[H]c1c([H])c([H])c(C([H])([H])OC(=O)N([H])[C@@]([H])(C(=O)N2C([H])([H])C([H])([H])C([H])([H])[C@@]2([H])C(=O)N([H])[C@]([H])(C(=O)c2nc3c([H])c([H])c([H])c([H])c3s2)C([H])([H])C([H])([H])C([H])([H])N=C(N([H])[H])N([H])[H])C([H])([H])c2c([H])c([H])c([H])c([H])c2[H])c([H])c1[H]


 54 58  0  0  0  0  0  0  0  0999 V2000
  -90.4305   29.3820   -2.3680 N   0  0  0  0  0  0  0  0  0  0  0  0
  -91.0132   30.1398   -3.3745 C   0  0  0  0  0  0  0  0  0  0  0  0
  -91.5045   29.6204   -4.4190 O   0  0  0  0  0  0  0  0  0  0  0  0
  -90.0279   29.7783   -1.5185 H   0  0  0  0  0  0  0  0  0  0  0  0
  -91.1082   31.6340   -3.2952 C   0  0  0  0  0  0  0  0  0  0  0  0
  -91.8032   32.1429   -4.5073 C   0  0  0  0  0  0  0  0  0  0  0  0
  -90.7605   32.8797   -5.3034 C   0  0  0  0  0  0  0  0  0  0  0  0
  -89.4626   32.3451   -4.7068 C   0  0  0  0  0  0  0  0  0  0  0  0
  -89.7595   32.2151   -3.3240 N   0  0  0  0  0  0  0  0  0  0  0  0
  -88.9877   32.5298   -2.2016 C   0  0  0  0  0  0  0  0  0  0  0  0
  -89.5811   32.3220   -1.0765 O   0  0  0  0  0  0  0  0  0  0  0  0
  -87.6308   33.0394   -2.1032 C   0  0  0  0  0  0  0  0  0  0  0  0
  -87.0613   32.5695   -0.8307 N   0  0  0  0  0  0  0  0  0  0  0  0
  -85.6659   32.7384   -0.5110 C   0  0  0  0  0  0  0  0  0  0  0  0
  -84.9286   33.2975   -1.3608 O   0  0  0  0  0  0  0  0  0  0  0  0
  -87.7202   32.1084   -0.1740 H   0  0  0  0  0  0  0  0  0  0  0  0
  -85.1353   32.3144    0.6721 O   0  0  0  0  0  0  0  0  0  0  0  0
  -83.7799   31.9374    0.8272 C   0  0  0  0  0  0  0  0  0  0  0  0
  -83.7587   30.6233    1.5423 C   0  0  0  0  0  0  0  0  0  0  0  0
  -82.6666   29.7915    1.5512 C   0  0  0  0  0  0  0  0  0  0  0  0
  -82.6559   28.5783    2.2073 C   0  0  0  0  0  0  0  0  0  0  0  0
  -83.7687   28.1668    2.8836 C   0  0  0  0  0  0  0  0  0  0  0  0
  -84.8991   28.9737    2.9042 C   0  0  0  0  0  0  0  0  0  0  0  0
  -84.8878   30.1864    2.2395 C   0  0  0  0  0  0  0  0  0  0  0  0
  -87.3643   34.4787   -2.2917 C   0  0  0  0  0  0  0  0  0  0  0  0
  -87.9089   35.1312   -3.4745 C   0  0  0  0  0  0  0  0  0  0  0  0
  -87.2852   35.0738   -4.7044 C   0  0  0  0  0  0  0  0  0  0  0  0
  -87.8450   35.6926   -5.8108 C   0  0  0  0  0  0  0  0  0  0  0  0
  -89.0371   36.3836   -5.7235 C   0  0  0  0  0  0  0  0  0  0  0  0
  -89.6626   36.4430   -4.4944 C   0  0  0  0  0  0  0  0  0  0  0  0
  -89.0914   35.8212   -3.4015 C   0  0  0  0  0  0  0  0  0  0  0  0
  -90.3592   27.8848   -2.4760 C   0  0  0  0  0  0  0  0  0  0  0  0
  -91.3196   27.3583   -1.4540 C   0  0  0  0  0  0  0  0  0  0  0  0
  -92.4200   26.9524   -1.9184 O   0  0  0  0  0  0  0  0  0  0  0  0
  -91.0974   27.2730   -0.0324 C   0  0  0  0  0  0  0  0  0  0  0  0
  -90.9407   26.2473    0.7643 N   0  0  0  0  0  0  0  0  0  0  0  0
  -90.7597   26.4033    2.0425 C   0  0  0  0  0  0  0  0  0  0  0  0
  -90.5876   25.3809    2.9898 C   0  0  0  0  0  0  0  0  0  0  0  0
  -90.4114   25.6604    4.3126 C   0  0  0  0  0  0  0  0  0  0  0  0
  -90.3901   26.9439    4.8016 C   0  0  0  0  0  0  0  0  0  0  0  0
  -90.5563   27.9625    3.8905 C   0  0  0  0  0  0  0  0  0  0  0  0
  -90.7384   27.6789    2.5264 C   0  0  0  0  0  0  0  0  0  0  0  0
  -90.9813   28.5929    1.1038 S   0  0  0  0  0  0  0  0  0  0  0  0
  -88.9925   27.5756   -1.9193 C   0  0  0  0  0  0  0  0  0  0  0  0
  -88.1615   28.6683   -1.4038 C   0  0  0  0  0  0  0  0  0  0  0  0
  -86.9358   28.3098   -0.6299 C   0  0  0  0  0  0  0  0  0  0  0  0
  -87.3689   26.2547    2.3680 N   0  0  0  0  0  0  0  0  0  0  0  0
  -87.1844   26.6355    1.0179 C   0  0  0  0  0  0  0  0  0  0  0  0
  -87.0718   25.6315    0.0272 N   0  0  0  0  0  0  0  0  0  0  0  0
  -87.1173   27.8645    0.6926 N   0  0  0  0  0  0  0  0  0  0  0  0
  -86.6195   26.1541    3.0698 H   0  0  0  0  0  0  0  0  0  0  0  0
  -88.3504   26.0453    2.7251 H   0  0  0  0  0  0  0  0  0  0  0  0
  -86.2975   24.9389    0.0029 H   0  0  0  0  0  0  0  0  0  0  0  0
  -87.7928   25.5810   -0.7141 H   0  0  0  0  0  0  0  0  0  0  0  0
 47 48  1  0  0  0
 48 49  1  0  0  0
 48 50  2  0  0  0
 50 46  1  0  0  0
 46 45  1  0  0  0
 45 44  1  0  0  0
 44 32  1  0  0  0
 32  1  1  0  0  0
  1  2  1  0  0  0
  2  3  2  0  0  0
  2  5  1  0  0  0
  5  6  1  0  0  0
  6  7  1  0  0  0
  7  8  1  0  0  0
  8  9  1  0  0  0
  9 10  1  0  0  0
 10 11  2  0  0  0
 10 12  1  0  0  0
 12 25  1  0  0  0
 25 26  1  0  0  0
 26 27  2  0  0  0
 27 28  1  0  0  0
 28 29  2  0  0  0
 29 30  1  0  0  0
 30 31  2  0  0  0
 12 13  1  0  0  0
 13 14  1  0  0  0
 14 15  2  0  0  0
 14 17  1  0  0  0
 17 18  1  0  0  0
 18 19  1  0  0  0
 19 20  2  0  0  0
 20 21  1  0  0  0
 21 22  2  0  0  0
 22 23  1  0  0  0
 23 24  2  0  0  0
 32 33  1  0  0  0
 33 34  2  0  0  0
 33 35  1  0  0  0
 35 36  2  0  0  0
 36 37  1  0  0  0
 37 38  2  0  0  0
 38 39  1  0  0  0
 39 40  2  0  0  0
 40 41  1  0  0  0
 41 42  2  0  0  0
 42 43  1  0  0  0
  9  5  1  0  0  0
 31 26  1  0  0  0
 24 19  1  0  0  0
 43 35  1  0  0  0
 42 37  1  0  0  0
 47 51  1  0  0  0
 47 52  1  0  0  0
 49 53  1  0  0  0
 49 54  1  0  0  0
  1  4  1  0  0  0
 13 16  1  0  0  0
M  END
> <minimizedAffinity>
-10.17855

> <CNNscore>
0.2164382190

> <CNNaffinity>
7.3185868263

> <CNN_VS>
1.5840219259

> <CNNaffinity_variance>
1.1675099134

$$$$
[H]c1c([H])c([H])c(C([H])([H])OC(=O)N([H])[C@@]([H])(C(=O)N2C([H])([H])C([H])([H])C([H])([H])[C@@]2([H])C(=O)N([H])[C@]([H])(C(=O)c2nc3c([H])c([H])c([H])c([H])c3s2)C([H])([H])C([H])([H])C([H])([H])N=C(N([H])[H])N([H])[H])C([H])([H])c2c([H])c([H])c([H])c([H])c2[H])c([H])c1[H]


 54 58  0  0  0  0  0  0  0  0999 V2000
  -89.5934   26.8877   -2.1815 N   0  0  0  0  0  0  0  0  0  0  0  0
  -89.1169   28.1103   -2.6342 C   0  0  0  0  0  0  0  0  0  0  0  0
  -89.8572   28.9547   -3.2181 O   0  0  0  0  0  0  0  0  0  0  0  0
  -89.0158   26.1919   -1.7092 H   0  0  0  0  0  0  0  0  0  0  0  0
  -87.6863   28.5237   -2.4594 C   0  0  0  0  0  0  0  0  0  0  0  0
  -87.0330   27.6155   -1.4799 C   0  0  0  0  0  0  0  0  0  0  0  0
  -86.7673   28.4494   -0.2560 C   0  0  0  0  0  0  0  0  0  0  0  0
  -87.6968   29.6397   -0.4692 C   0  0  0  0  0  0  0  0  0  0  0  0
  -87.6311   29.8677   -1.8695 N   0  0  0  0  0  0  0  0  0  0  0  0
  -87.5500   31.0654   -2.5862 C   0  0  0  0  0  0  0  0  0  0  0  0
  -87.4653   30.9130   -3.8632 O   0  0  0  0  0  0  0  0  0  0  0  0
  -87.5568   32.4428   -2.1244 C   0  0  0  0  0  0  0  0  0  0  0  0
  -86.8896   32.4849   -0.8138 N   0  0  0  0  0  0  0  0  0  0  0  0
  -85.5126   32.8864   -0.6716 C   0  0  0  0  0  0  0  0  0  0  0  0
  -84.8775   33.1970   -1.7101 O   0  0  0  0  0  0  0  0  0  0  0  0
  -87.4655   32.2089    0.0048 H   0  0  0  0  0  0  0  0  0  0  0  0
  -84.8926   32.9376    0.5425 O   0  0  0  0  0  0  0  0  0  0  0  0
  -83.6313   32.3488    0.7985 C   0  0  0  0  0  0  0  0  0  0  0  0
  -83.8746   31.0687    1.5340 C   0  0  0  0  0  0  0  0  0  0  0  0
  -84.9917   30.8439    2.2994 C   0  0  0  0  0  0  0  0  0  0  0  0
  -85.2067   29.6637    2.9800 C   0  0  0  0  0  0  0  0  0  0  0  0
  -84.2817   28.6620    2.9034 C   0  0  0  0  0  0  0  0  0  0  0  0
  -83.1345   28.8416    2.1411 C   0  0  0  0  0  0  0  0  0  0  0  0
  -82.9392   30.0331    1.4668 C   0  0  0  0  0  0  0  0  0  0  0  0
  -88.8193   33.2064   -2.0895 C   0  0  0  0  0  0  0  0  0  0  0  0
  -88.9001   34.4398   -2.8598 C   0  0  0  0  0  0  0  0  0  0  0  0
  -90.0337   34.8030   -3.5584 C   0  0  0  0  0  0  0  0  0  0  0  0
  -90.0778   35.9944   -4.2647 C   0  0  0  0  0  0  0  0  0  0  0  0
  -88.9981   36.8544   -4.2950 C   0  0  0  0  0  0  0  0  0  0  0  0
  -87.8629   36.4933   -3.5976 C   0  0  0  0  0  0  0  0  0  0  0  0
  -87.8350   35.3023   -2.8989 C   0  0  0  0  0  0  0  0  0  0  0  0
  -91.0358   26.5084   -2.3660 C   0  0  0  0  0  0  0  0  0  0  0  0
  -91.7709   27.1416   -1.2245 C   0  0  0  0  0  0  0  0  0  0  0  0
  -92.8522   27.7099   -1.5388 O   0  0  0  0  0  0  0  0  0  0  0  0
  -91.3636   27.1502    0.1581 C   0  0  0  0  0  0  0  0  0  0  0  0
  -91.0847   26.1796    0.9897 N   0  0  0  0  0  0  0  0  0  0  0  0
  -90.7416   26.4194    2.2208 C   0  0  0  0  0  0  0  0  0  0  0  0
  -90.4279   25.4619    3.1992 C   0  0  0  0  0  0  0  0  0  0  0  0
  -90.0862   25.8277    4.4673 C   0  0  0  0  0  0  0  0  0  0  0  0
  -90.0260   27.1401    4.8685 C   0  0  0  0  0  0  0  0  0  0  0  0
  -90.3291   28.0962    3.9254 C   0  0  0  0  0  0  0  0  0  0  0  0
  -90.6820   27.7236    2.6174 C   0  0  0  0  0  0  0  0  0  0  0  0
  -91.1257   28.5416    1.1848 S   0  0  0  0  0  0  0  0  0  0  0  0
  -91.0343   25.0330   -2.0556 C   0  0  0  0  0  0  0  0  0  0  0  0
  -89.7737   24.3739   -1.6996 C   0  0  0  0  0  0  0  0  0  0  0  0
  -89.8437   23.0109   -1.0935 C   0  0  0  0  0  0  0  0  0  0  0  0
  -91.1075   21.9184    2.1634 N   0  0  0  0  0  0  0  0  0  0  0  0
  -90.3226   22.0048    0.9895 C   0  0  0  0  0  0  0  0  0  0  0  0
  -89.2366   21.1139    0.8187 N   0  0  0  0  0  0  0  0  0  0  0  0
  -90.5836   22.8729    0.0955 N   0  0  0  0  0  0  0  0  0  0  0  0
  -90.9770   22.4866    3.0145 H   0  0  0  0  0  0  0  0  0  0  0  0
  -91.9089   21.2180    2.2089 H   0  0  0  0  0  0  0  0  0  0  0  0
  -88.4085   21.0976    1.4462 H   0  0  0  0  0  0  0  0  0  0  0  0
  -89.2620   20.4442    0.0296 H   0  0  0  0  0  0  0  0  0  0  0  0
 47 48  1  0  0  0
 48 49  1  0  0  0
 48 50  2  0  0  0
 50 46  1  0  0  0
 46 45  1  0  0  0
 45 44  1  0  0  0
 44 32  1  0  0  0
 32  1  1  0  0  0
  1  2  1  0  0  0
  2  3  2  0  0  0
  2  5  1  0  0  0
  5  6  1  0  0  0
  6  7  1  0  0  0
  7  8  1  0  0  0
  8  9  1  0  0  0
  9 10  1  0  0  0
 10 11  2  0  0  0
 10 12  1  0  0  0
 12 25  1  0  0  0
 25 26  1  0  0  0
 26 27  2  0  0  0
 27 28  1  0  0  0
 28 29  2  0  0  0
 29 30  1  0  0  0
 30 31  2  0  0  0
 12 13  1  0  0  0
 13 14  1  0  0  0
 14 15  2  0  0  0
 14 17  1  0  0  0
 17 18  1  0  0  0
 18 19  1  0  0  0
 19 20  2  0  0  0
 20 21  1  0  0  0
 21 22  2  0  0  0
 22 23  1  0  0  0
 23 24  2  0  0  0
 32 33  1  0  0  0
 33 34  2  0  0  0
 33 35  1  0  0  0
 35 36  2  0  0  0
 36 37  1  0  0  0
 37 38  2  0  0  0
 38 39  1  0  0  0
 39 40  2  0  0  0
 40 41  1  0  0  0
 41 42  2  0  0  0
 42 43  1  0  0  0
  9  5  1  0  0  0
 31 26  1  0  0  0
 24 19  1  0  0  0
 43 35  1  0  0  0
 42 37  1  0  0  0
 47 51  1  0  0  0
 47 52  1  0  0  0
 49 53  1  0  0  0
 49 54  1  0  0  0
  1  4  1  0  0  0
 13 16  1  0  0  0
M  END
> <minimizedAffinity>
-10.37231

> <CNNscore>
0.1823675185

> <CNNaffinity>
7.0918006897

> <CNN_VS>
1.2933140993

> <CNNaffinity_variance>
1.7745349407

$$$$
[H]c1c([H])c([H])c(C([H])([H])OC(=O)N([H])[C@@]([H])(C(=O)N2C([H])([H])C([H])([H])C([H])([H])[C@@]2([H])C(=O)N([H])[C@]([H])(C(=O)c2nc3c([H])c([H])c([H])c([H])c3s2)C([H])([H])C([H])([H])C([H])([H])N=C(N([H])[H])N([H])[H])C([H])([H])c2c([H])c([H])c([H])c([H])c2[H])c([H])c1[H]


 54 58  0  0  0  0  0  0  0  0999 V2000
  -86.0460   30.6068   -0.8716 N   0  0  0  0  0  0  0  0  0  0  0  0
  -86.9264   29.5954   -0.5125 C   0  0  0  0  0  0  0  0  0  0  0  0
  -87.3540   29.4543    0.6704 O   0  0  0  0  0  0  0  0  0  0  0  0
  -85.6879   30.7394   -1.8176 H   0  0  0  0  0  0  0  0  0  0  0  0
  -87.4411   28.5957   -1.5044 C   0  0  0  0  0  0  0  0  0  0  0  0
  -87.7341   29.2885   -2.7870 C   0  0  0  0  0  0  0  0  0  0  0  0
  -89.2312   29.2677   -2.9357 C   0  0  0  0  0  0  0  0  0  0  0  0
  -89.6921   28.9685   -1.5129 C   0  0  0  0  0  0  0  0  0  0  0  0
  -88.7208   28.0497   -1.0338 N   0  0  0  0  0  0  0  0  0  0  0  0
  -88.8759   26.8878   -0.2720 C   0  0  0  0  0  0  0  0  0  0  0  0
  -87.7764   26.2566   -0.0400 O   0  0  0  0  0  0  0  0  0  0  0  0
  -90.0684   26.2899    0.3037 C   0  0  0  0  0  0  0  0  0  0  0  0
  -90.9434   25.8693   -0.8016 N   0  0  0  0  0  0  0  0  0  0  0  0
  -90.9602   24.5122   -1.2872 C   0  0  0  0  0  0  0  0  0  0  0  0
  -90.1910   23.6808   -0.7436 O   0  0  0  0  0  0  0  0  0  0  0  0
  -91.5494   26.6045   -1.2142 H   0  0  0  0  0  0  0  0  0  0  0  0
  -91.7776   24.1146   -2.3043 O   0  0  0  0  0  0  0  0  0  0  0  0
  -93.1189   24.5459   -2.4396 C   0  0  0  0  0  0  0  0  0  0  0  0
  -93.2456   25.2054   -3.7766 C   0  0  0  0  0  0  0  0  0  0  0  0
  -93.9356   24.6494   -4.8251 C   0  0  0  0  0  0  0  0  0  0  0  0
  -94.0431   25.2599   -6.0572 C   0  0  0  0  0  0  0  0  0  0  0  0
  -93.4452   26.4699   -6.2655 C   0  0  0  0  0  0  0  0  0  0  0  0
  -92.7357   27.0733   -5.2351 C   0  0  0  0  0  0  0  0  0  0  0  0
  -92.6407   26.4435   -4.0076 C   0  0  0  0  0  0  0  0  0  0  0  0
  -90.8405   27.0173    1.3298 C   0  0  0  0  0  0  0  0  0  0  0  0
  -90.5047   26.7969    2.7298 C   0  0  0  0  0  0  0  0  0  0  0  0
  -90.1344   25.5594    3.2160 C   0  0  0  0  0  0  0  0  0  0  0  0
  -89.8043   25.3942    4.5516 C   0  0  0  0  0  0  0  0  0  0  0  0
  -89.8336   26.4530    5.4373 C   0  0  0  0  0  0  0  0  0  0  0  0
  -90.2041   27.6916    4.9537 C   0  0  0  0  0  0  0  0  0  0  0  0
  -90.5305   27.8394    3.6199 C   0  0  0  0  0  0  0  0  0  0  0  0
  -85.5561   31.5973    0.1467 C   0  0  0  0  0  0  0  0  0  0  0  0
  -85.8370   32.9491   -0.4346 C   0  0  0  0  0  0  0  0  0  0  0  0
  -85.1509   33.8895    0.0513 O   0  0  0  0  0  0  0  0  0  0  0  0
  -86.7889   33.2550   -1.4728 C   0  0  0  0  0  0  0  0  0  0  0  0
  -86.6507   33.8339   -2.6378 N   0  0  0  0  0  0  0  0  0  0  0  0
  -87.6674   34.0212   -3.4265 C   0  0  0  0  0  0  0  0  0  0  0  0
  -87.6392   34.6338   -4.6899 C   0  0  0  0  0  0  0  0  0  0  0  0
  -88.7731   34.7846   -5.4318 C   0  0  0  0  0  0  0  0  0  0  0  0
  -90.0034   34.3528   -4.9996 C   0  0  0  0  0  0  0  0  0  0  0  0
  -90.0548   33.7485   -3.7637 C   0  0  0  0  0  0  0  0  0  0  0  0
  -88.8887   33.5913   -2.9957 C   0  0  0  0  0  0  0  0  0  0  0  0
  -88.5047   32.9342   -1.4663 S   0  0  0  0  0  0  0  0  0  0  0  0
  -84.0583   31.4442    0.0663 C   0  0  0  0  0  0  0  0  0  0  0  0
  -83.2928   31.2033    1.2936 C   0  0  0  0  0  0  0  0  0  0  0  0
  -83.1759   29.7965    1.7804 C   0  0  0  0  0  0  0  0  0  0  0  0
  -85.5633   27.0272    1.9532 N   0  0  0  0  0  0  0  0  0  0  0  0
  -84.4046   27.8139    2.1543 C   0  0  0  0  0  0  0  0  0  0  0  0
  -83.3584   27.3072    2.9610 N   0  0  0  0  0  0  0  0  0  0  0  0
  -84.3000   28.9651    1.6208 N   0  0  0  0  0  0  0  0  0  0  0  0
  -86.4368   27.0969    2.4977 H   0  0  0  0  0  0  0  0  0  0  0  0
  -85.5705   26.2899    1.1843 H   0  0  0  0  0  0  0  0  0  0  0  0
  -83.4686   27.0988    3.9730 H   0  0  0  0  0  0  0  0  0  0  0  0
  -82.4342   27.1356    2.5271 H   0  0  0  0  0  0  0  0  0  0  0  0
 47 48  1  0  0  0
 48 49  1  0  0  0
 48 50  2  0  0  0
 50 46  1  0  0  0
 46 45  1  0  0  0
 45 44  1  0  0  0
 44 32  1  0  0  0
 32  1  1  0  0  0
  1  2  1  0  0  0
  2  3  2  0  0  0
  2  5  1  0  0  0
  5  6  1  0  0  0
  6  7  1  0  0  0
  7  8  1  0  0  0
  8  9  1  0  0  0
  9 10  1  0  0  0
 10 11  2  0  0  0
 10 12  1  0  0  0
 12 25  1  0  0  0
 25 26  1  0  0  0
 26 27  2  0  0  0
 27 28  1  0  0  0
 28 29  2  0  0  0
 29 30  1  0  0  0
 30 31  2  0  0  0
 12 13  1  0  0  0
 13 14  1  0  0  0
 14 15  2  0  0  0
 14 17  1  0  0  0
 17 18  1  0  0  0
 18 19  1  0  0  0
 19 20  2  0  0  0
 20 21  1  0  0  0
 21 22  2  0  0  0
 22 23  1  0  0  0
 23 24  2  0  0  0
 32 33  1  0  0  0
 33 34  2  0  0  0
 33 35  1  0  0  0
 35 36  2  0  0  0
 36 37  1  0  0  0
 37 38  2  0  0  0
 38 39  1  0  0  0
 39 40  2  0  0  0
 40 41  1  0  0  0
 41 42  2  0  0  0
 42 43  1  0  0  0
  9  5  1  0  0  0
 31 26  1  0  0  0
 24 19  1  0  0  0
 43 35  1  0  0  0
 42 37  1  0  0  0
 47 51  1  0  0  0
 47 52  1  0  0  0
 49 53  1  0  0  0
 49 54  1  0  0  0
  1  4  1  0  0  0
 13 16  1  0  0  0
M  END
> <minimizedAffinity>
-8.78362

> <CNNscore>
0.1693962514

> <CNNaffinity>
7.6150732040

> <CNN_VS>
1.2899649143

> <CNNaffinity_variance>
0.4844075143

$$$$
[H]c1c([H])c([H])c(C([H])([H])OC(=O)N([H])[C@@]([H])(C(=O)N2C([H])([H])C([H])([H])C([H])([H])[C@@]2([H])C(=O)N([H])[C@]([H])(C(=O)c2nc3c([H])c([H])c([H])c([H])c3s2)C([H])([H])C([H])([H])C([H])([H])N=C(N([H])[H])N([H])[H])C([H])([H])c2c([H])c([H])c([H])c([H])c2[H])c([H])c1[H]


 54 58  0  0  0  0  0  0  0  0999 V2000
  -86.6492   29.4602    1.0177 N   0  0  0  0  0  0  0  0  0  0  0  0
  -87.2333   29.6894   -0.2205 C   0  0  0  0  0  0  0  0  0  0  0  0
  -86.7370   29.2493   -1.2985 O   0  0  0  0  0  0  0  0  0  0  0  0
  -87.0305   29.8051    1.8988 H   0  0  0  0  0  0  0  0  0  0  0  0
  -88.5023   30.4736   -0.3715 C   0  0  0  0  0  0  0  0  0  0  0  0
  -89.6594   29.5408   -0.3289 C   0  0  0  0  0  0  0  0  0  0  0  0
  -90.2375   29.5350   -1.7180 C   0  0  0  0  0  0  0  0  0  0  0  0
  -89.0933   30.1115   -2.5454 C   0  0  0  0  0  0  0  0  0  0  0  0
  -88.5357   31.1050   -1.6973 N   0  0  0  0  0  0  0  0  0  0  0  0
  -88.0860   32.3953   -1.9928 C   0  0  0  0  0  0  0  0  0  0  0  0
  -87.6685   33.0575   -0.9689 O   0  0  0  0  0  0  0  0  0  0  0  0
  -88.0053   33.0981   -3.2618 C   0  0  0  0  0  0  0  0  0  0  0  0
  -88.5601   34.4469   -3.0690 N   0  0  0  0  0  0  0  0  0  0  0  0
  -87.8982   35.6234   -3.5745 C   0  0  0  0  0  0  0  0  0  0  0  0
  -86.8117   35.4727   -4.1871 O   0  0  0  0  0  0  0  0  0  0  0  0
  -89.4562   34.5058   -2.5478 H   0  0  0  0  0  0  0  0  0  0  0  0
  -88.4142   36.8752   -3.4080 O   0  0  0  0  0  0  0  0  0  0  0  0
  -89.0107   37.6175   -4.4551 C   0  0  0  0  0  0  0  0  0  0  0  0
  -90.4601   37.7795   -4.1212 C   0  0  0  0  0  0  0  0  0  0  0  0
  -91.3145   36.7182   -3.9528 C   0  0  0  0  0  0  0  0  0  0  0  0
  -92.6512   36.8749   -3.6512 C   0  0  0  0  0  0  0  0  0  0  0  0
  -93.1686   38.1307   -3.5095 C   0  0  0  0  0  0  0  0  0  0  0  0
  -92.3439   39.2369   -3.6700 C   0  0  0  0  0  0  0  0  0  0  0  0
  -91.0065   39.0567   -3.9722 C   0  0  0  0  0  0  0  0  0  0  0  0
  -88.5515   32.4816   -4.4863 C   0  0  0  0  0  0  0  0  0  0  0  0
  -89.8503   32.9344   -4.9654 C   0  0  0  0  0  0  0  0  0  0  0  0
  -89.9878   33.7548   -6.0668 C   0  0  0  0  0  0  0  0  0  0  0  0
  -91.2427   34.1491   -6.5027 C   0  0  0  0  0  0  0  0  0  0  0  0
  -92.3917   33.7389   -5.8563 C   0  0  0  0  0  0  0  0  0  0  0  0
  -92.2569   32.9188   -4.7542 C   0  0  0  0  0  0  0  0  0  0  0  0
  -90.9990   32.5352   -4.3323 C   0  0  0  0  0  0  0  0  0  0  0  0
  -85.3809   28.6626    1.1338 C   0  0  0  0  0  0  0  0  0  0  0  0
  -85.7982   27.3034    1.6056 C   0  0  0  0  0  0  0  0  0  0  0  0
  -84.9321   26.6877    2.2853 O   0  0  0  0  0  0  0  0  0  0  0  0
  -87.0667   26.6635    1.3622 C   0  0  0  0  0  0  0  0  0  0  0  0
  -87.5867   26.1450    0.2796 N   0  0  0  0  0  0  0  0  0  0  0  0
  -88.7756   25.6182    0.2840 C   0  0  0  0  0  0  0  0  0  0  0  0
  -89.4345   25.0412   -0.8139 C   0  0  0  0  0  0  0  0  0  0  0  0
  -90.6898   24.5223   -0.6965 C   0  0  0  0  0  0  0  0  0  0  0  0
  -91.3855   24.5281    0.4879 C   0  0  0  0  0  0  0  0  0  0  0  0
  -90.7585   25.0883    1.5781 C   0  0  0  0  0  0  0  0  0  0  0  0
  -89.4650   25.6245    1.4614 C   0  0  0  0  0  0  0  0  0  0  0  0
  -88.3555   26.3939    2.5081 S   0  0  0  0  0  0  0  0  0  0  0  0
  -84.6989   29.2929    2.3216 C   0  0  0  0  0  0  0  0  0  0  0  0
  -84.9398   30.7077    2.6225 C   0  0  0  0  0  0  0  0  0  0  0  0
  -84.1291   31.7264    1.8913 C   0  0  0  0  0  0  0  0  0  0  0  0
  -84.6065   33.2995   -1.3792 N   0  0  0  0  0  0  0  0  0  0  0  0
  -83.9862   32.7725   -0.2219 C   0  0  0  0  0  0  0  0  0  0  0  0
  -82.5756   32.8113   -0.1170 N   0  0  0  0  0  0  0  0  0  0  0  0
  -84.6830   32.2662    0.7156 N   0  0  0  0  0  0  0  0  0  0  0  0
  -84.8914   32.7542   -2.2072 H   0  0  0  0  0  0  0  0  0  0  0  0
  -84.8111   34.3434   -1.4361 H   0  0  0  0  0  0  0  0  0  0  0  0
  -81.9417   32.3028   -0.7645 H   0  0  0  0  0  0  0  0  0  0  0  0
  -82.1484   33.3709    0.6421 H   0  0  0  0  0  0  0  0  0  0  0  0
 47 48  1  0  0  0
 48 49  1  0  0  0
 48 50  2  0  0  0
 50 46  1  0  0  0
 46 45  1  0  0  0
 45 44  1  0  0  0
 44 32  1  0  0  0
 32  1  1  0  0  0
  1  2  1  0  0  0
  2  3  2  0  0  0
  2  5  1  0  0  0
  5  6  1  0  0  0
  6  7  1  0  0  0
  7  8  1  0  0  0
  8  9  1  0  0  0
  9 10  1  0  0  0
 10 11  2  0  0  0
 10 12  1  0  0  0
 12 25  1  0  0  0
 25 26  1  0  0  0
 26 27  2  0  0  0
 27 28  1  0  0  0
 28 29  2  0  0  0
 29 30  1  0  0  0
 30 31  2  0  0  0
 12 13  1  0  0  0
 13 14  1  0  0  0
 14 15  2  0  0  0
 14 17  1  0  0  0
 17 18  1  0  0  0
 18 19  1  0  0  0
 19 20  2  0  0  0
 20 21  1  0  0  0
 21 22  2  0  0  0
 22 23  1  0  0  0
 23 24  2  0  0  0
 32 33  1  0  0  0
 33 34  2  0  0  0
 33 35  1  0  0  0
 35 36  2  0  0  0
 36 37  1  0  0  0
 37 38  2  0  0  0
 38 39  1  0  0  0
 39 40  2  0  0  0
 40 41  1  0  0  0
 41 42  2  0  0  0
 42 43  1  0  0  0
  9  5  1  0  0  0
 31 26  1  0  0  0
 24 19  1  0  0  0
 43 35  1  0  0  0
 42 37  1  0  0  0
 47 51  1  0  0  0
 47 52  1  0  0  0
 49 53  1  0  0  0
 49 54  1  0  0  0
  1  4  1  0  0  0
 13 16  1  0  0  0
M  END
> <minimizedAffinity>
-8.54240

> <CNNscore>
0.1593386829

> <CNNaffinity>
7.4473242760

> <CNN_VS>
1.1866468191

> <CNNaffinity_variance>
0.2015256137

$$$$
[H]c1c([H])c([H])c(C([H])([H])OC(=O)N([H])[C@@]([H])(C(=O)N2C([H])([H])C([H])([H])C([H])([H])[C@@]2([H])C(=O)N([H])[C@]([H])(C(=O)c2nc3c([H])c([H])c([H])c([H])c3s2)C([H])([H])C([H])([H])C([H])([H])N=C(N([H])[H])N([H])[H])C([H])([H])c2c([H])c([H])c([H])c([H])c2[H])c([H])c1[H]


 54 58  0  0  0  0  0  0  0  0999 V2000
  -87.5640   29.3286    0.9964 N   0  0  0  0  0  0  0  0  0  0  0  0
  -88.2464   29.5418   -0.1934 C   0  0  0  0  0  0  0  0  0  0  0  0
  -87.7436   29.2726   -1.3234 O   0  0  0  0  0  0  0  0  0  0  0  0
  -87.9485   29.5384    1.9178 H   0  0  0  0  0  0  0  0  0  0  0  0
  -89.6361   30.1039   -0.2270 C   0  0  0  0  0  0  0  0  0  0  0  0
  -90.6050   29.0278    0.1109 C   0  0  0  0  0  0  0  0  0  0  0  0
  -91.3652   28.7430   -1.1560 C   0  0  0  0  0  0  0  0  0  0  0  0
  -90.4612   29.3581   -2.2192 C   0  0  0  0  0  0  0  0  0  0  0  0
  -89.9611   30.5313   -1.5941 N   0  0  0  0  0  0  0  0  0  0  0  0
  -89.7776   31.8189   -2.1067 C   0  0  0  0  0  0  0  0  0  0  0  0
  -89.3345   32.6719   -1.2480 O   0  0  0  0  0  0  0  0  0  0  0  0
  -89.9950   32.3409   -3.4449 C   0  0  0  0  0  0  0  0  0  0  0  0
  -89.1202   33.5102   -3.6231 N   0  0  0  0  0  0  0  0  0  0  0  0
  -87.7546   33.3807   -4.0659 C   0  0  0  0  0  0  0  0  0  0  0  0
  -87.3140   32.2261   -4.2923 O   0  0  0  0  0  0  0  0  0  0  0  0
  -89.5405   34.4359   -3.4120 H   0  0  0  0  0  0  0  0  0  0  0  0
  -86.9427   34.4625   -4.2432 O   0  0  0  0  0  0  0  0  0  0  0  0
  -87.3305   35.7871   -3.9294 C   0  0  0  0  0  0  0  0  0  0  0  0
  -87.0214   36.6391   -5.1198 C   0  0  0  0  0  0  0  0  0  0  0  0
  -86.1740   37.7181   -5.0706 C   0  0  0  0  0  0  0  0  0  0  0  0
  -85.8984   38.5033   -6.1705 C   0  0  0  0  0  0  0  0  0  0  0  0
  -86.4826   38.2133   -7.3704 C   0  0  0  0  0  0  0  0  0  0  0  0
  -87.3475   37.1312   -7.4710 C   0  0  0  0  0  0  0  0  0  0  0  0
  -87.6097   36.3572   -6.3553 C   0  0  0  0  0  0  0  0  0  0  0  0
  -91.3632   32.6398   -3.9104 C   0  0  0  0  0  0  0  0  0  0  0  0
  -91.5419   33.0804   -5.2871 C   0  0  0  0  0  0  0  0  0  0  0  0
  -92.6530   32.7439   -6.0335 C   0  0  0  0  0  0  0  0  0  0  0  0
  -92.7951   33.1984   -7.3348 C   0  0  0  0  0  0  0  0  0  0  0  0
  -91.8379   33.9980   -7.9272 C   0  0  0  0  0  0  0  0  0  0  0  0
  -90.7254   34.3356   -7.1831 C   0  0  0  0  0  0  0  0  0  0  0  0
  -90.5988   33.8741   -5.8876 C   0  0  0  0  0  0  0  0  0  0  0  0
  -86.1747   28.7559    0.9940 C   0  0  0  0  0  0  0  0  0  0  0  0
  -86.2948   27.3978    1.6149 C   0  0  0  0  0  0  0  0  0  0  0  0
  -85.2349   26.9569    2.1377 O   0  0  0  0  0  0  0  0  0  0  0  0
  -87.4819   26.5820    1.6693 C   0  0  0  0  0  0  0  0  0  0  0  0
  -88.1929   26.1455    2.6770 N   0  0  0  0  0  0  0  0  0  0  0  0
  -89.2416   25.3990    2.4936 C   0  0  0  0  0  0  0  0  0  0  0  0
  -90.0725   24.8702    3.4948 C   0  0  0  0  0  0  0  0  0  0  0  0
  -91.1473   24.0898    3.1871 C   0  0  0  0  0  0  0  0  0  0  0  0
  -91.4860   23.7726    1.8942 C   0  0  0  0  0  0  0  0  0  0  0  0
  -90.6856   24.2808    0.8960 C   0  0  0  0  0  0  0  0  0  0  0  0
  -89.5768   25.0852    1.2087 C   0  0  0  0  0  0  0  0  0  0  0  0
  -88.3548   25.8890    0.3260 S   0  0  0  0  0  0  0  0  0  0  0  0
  -85.4674   29.5940    2.0287 C   0  0  0  0  0  0  0  0  0  0  0  0
  -84.4255   30.5341    1.6033 C   0  0  0  0  0  0  0  0  0  0  0  0
  -84.5181   31.1052    0.2267 C   0  0  0  0  0  0  0  0  0  0  0  0
  -86.6130   33.8412   -1.0079 N   0  0  0  0  0  0  0  0  0  0  0  0
  -85.4947   33.0039   -0.7841 C   0  0  0  0  0  0  0  0  0  0  0  0
  -84.2624   33.3185   -1.4042 N   0  0  0  0  0  0  0  0  0  0  0  0
  -85.5905   31.9774   -0.0370 N   0  0  0  0  0  0  0  0  0  0  0  0
  -87.3448   33.6863   -1.7183 H   0  0  0  0  0  0  0  0  0  0  0  0
  -86.7425   34.7148   -0.4122 H   0  0  0  0  0  0  0  0  0  0  0  0
  -84.1286   33.3270   -2.4346 H   0  0  0  0  0  0  0  0  0  0  0  0
  -83.4496   33.5504   -0.8064 H   0  0  0  0  0  0  0  0  0  0  0  0
 47 48  1  0  0  0
 48 49  1  0  0  0
 48 50  2  0  0  0
 50 46  1  0  0  0
 46 45  1  0  0  0
 45 44  1  0  0  0
 44 32  1  0  0  0
 32  1  1  0  0  0
  1  2  1  0  0  0
  2  3  2  0  0  0
  2  5  1  0  0  0
  5  6  1  0  0  0
  6  7  1  0  0  0
  7  8  1  0  0  0
  8  9  1  0  0  0
  9 10  1  0  0  0
 10 11  2  0  0  0
 10 12  1  0  0  0
 12 25  1  0  0  0
 25 26  1  0  0  0
 26 27  2  0  0  0
 27 28  1  0  0  0
 28 29  2  0  0  0
 29 30  1  0  0  0
 30 31  2  0  0  0
 12 13  1  0  0  0
 13 14  1  0  0  0
 14 15  2  0  0  0
 14 17  1  0  0  0
 17 18  1  0  0  0
 18 19  1  0  0  0
 19 20  2  0  0  0
 20 21  1  0  0  0
 21 22  2  0  0  0
 22 23  1  0  0  0
 23 24  2  0  0  0
 32 33  1  0  0  0
 33 34  2  0  0  0
 33 35  1  0  0  0
 35 36  2  0  0  0
 36 37  1  0  0  0
 37 38  2  0  0  0
 38 39  1  0  0  0
 39 40  2  0  0  0
 40 41  1  0  0  0
 41 42  2  0  0  0
 42 43  1  0  0  0
  9  5  1  0  0  0
 31 26  1  0  0  0
 24 19  1  0  0  0
 43 35  1  0  0  0
 42 37  1  0  0  0
 47 51  1  0  0  0
 47 52  1  0  0  0
 49 53  1  0  0  0
 49 54  1  0  0  0
  1  4  1  0  0  0
 13 16  1  0  0  0
M  END
> <minimizedAffinity>
-8.24309

> <CNNscore>
0.1555346996

> <CNNaffinity>
7.2309503555

> <CNN_VS>
1.1246637106

> <CNNaffinity_variance>
0.1118290871

$$$$
[H]c1c([H])c([H])c(C([H])([H])OC(=O)N([H])[C@@]([H])(C(=O)N2C([H])([H])C([H])([H])C([H])([H])[C@@]2([H])C(=O)N([H])[C@]([H])(C(=O)c2nc3c([H])c([H])c([H])c([H])c3s2)C([H])([H])C([H])([H])C([H])([H])N=C(N([H])[H])N([H])[H])C([H])([H])c2c([H])c([H])c([H])c([H])c2[H])c([H])c1[H]


 54 58  0  0  0  0  0  0  0  0999 V2000
  -89.3875   27.4027   -1.5096 N   0  0  0  0  0  0  0  0  0  0  0  0
  -88.4196   26.5898   -0.9359 C   0  0  0  0  0  0  0  0  0  0  0  0
  -88.5775   25.3422   -0.7918 O   0  0  0  0  0  0  0  0  0  0  0  0
  -89.2826   28.4096   -1.6353 H   0  0  0  0  0  0  0  0  0  0  0  0
  -87.1095   27.1313   -0.4476 C   0  0  0  0  0  0  0  0  0  0  0  0
  -86.6712   26.3498    0.7391 C   0  0  0  0  0  0  0  0  0  0  0  0
  -86.7786   27.2850    1.9129 C   0  0  0  0  0  0  0  0  0  0  0  0
  -87.6960   28.3767    1.3720 C   0  0  0  0  0  0  0  0  0  0  0  0
  -87.2906   28.5126    0.0176 N   0  0  0  0  0  0  0  0  0  0  0  0
  -87.1052   29.6607   -0.7582 C   0  0  0  0  0  0  0  0  0  0  0  0
  -86.6889   29.4285   -1.9557 O   0  0  0  0  0  0  0  0  0  0  0  0
  -87.3158   31.0614   -0.4349 C   0  0  0  0  0  0  0  0  0  0  0  0
  -87.9431   31.7061   -1.5990 N   0  0  0  0  0  0  0  0  0  0  0  0
  -89.1927   32.4172   -1.4959 C   0  0  0  0  0  0  0  0  0  0  0  0
  -89.7518   32.4690   -0.3720 O   0  0  0  0  0  0  0  0  0  0  0  0
  -87.4361   31.6207   -2.5011 H   0  0  0  0  0  0  0  0  0  0  0  0
  -89.7728   33.0260   -2.5700 O   0  0  0  0  0  0  0  0  0  0  0  0
  -89.1284   33.1783   -3.8209 C   0  0  0  0  0  0  0  0  0  0  0  0
  -88.6941   34.6058   -3.9312 C   0  0  0  0  0  0  0  0  0  0  0  0
  -89.5040   35.6641   -3.6013 C   0  0  0  0  0  0  0  0  0  0  0  0
  -89.0995   36.9780   -3.7114 C   0  0  0  0  0  0  0  0  0  0  0  0
  -87.8434   37.2619   -4.1660 C   0  0  0  0  0  0  0  0  0  0  0  0
  -86.9863   36.2251   -4.5123 C   0  0  0  0  0  0  0  0  0  0  0  0
  -87.4127   34.9148   -4.3941 C   0  0  0  0  0  0  0  0  0  0  0  0
  -86.1985   31.8807    0.0734 C   0  0  0  0  0  0  0  0  0  0  0  0
  -85.0377   31.1961    0.6260 C   0  0  0  0  0  0  0  0  0  0  0  0
  -83.8112   31.1906   -0.0069 C   0  0  0  0  0  0  0  0  0  0  0  0
  -82.7255   30.5430    0.5606 C   0  0  0  0  0  0  0  0  0  0  0  0
  -82.8304   29.8851    1.7699 C   0  0  0  0  0  0  0  0  0  0  0  0
  -84.0561   29.8886    2.4047 C   0  0  0  0  0  0  0  0  0  0  0  0
  -85.1284   30.5385    1.8256 C   0  0  0  0  0  0  0  0  0  0  0  0
  -90.6869   26.8253   -1.9960 C   0  0  0  0  0  0  0  0  0  0  0  0
  -91.6161   26.8719   -0.8218 C   0  0  0  0  0  0  0  0  0  0  0  0
  -92.8416   26.7963   -1.1108 O   0  0  0  0  0  0  0  0  0  0  0  0
  -91.2402   26.9854    0.5651 C   0  0  0  0  0  0  0  0  0  0  0  0
  -90.8702   26.0889    1.4430 N   0  0  0  0  0  0  0  0  0  0  0  0
  -90.5811   26.4181    2.6673 C   0  0  0  0  0  0  0  0  0  0  0  0
  -90.1809   25.5448    3.6918 C   0  0  0  0  0  0  0  0  0  0  0  0
  -89.9082   26.0005    4.9475 C   0  0  0  0  0  0  0  0  0  0  0  0
  -90.0046   27.3271    5.2908 C   0  0  0  0  0  0  0  0  0  0  0  0
  -90.3947   28.2017    4.3018 C   0  0  0  0  0  0  0  0  0  0  0  0
  -90.6770   27.7362    3.0064 C   0  0  0  0  0  0  0  0  0  0  0  0
  -91.1815   28.4371    1.5324 S   0  0  0  0  0  0  0  0  0  0  0  0
  -90.3570   25.3647   -2.1717 C   0  0  0  0  0  0  0  0  0  0  0  0
  -91.4430   24.4022   -2.3831 C   0  0  0  0  0  0  0  0  0  0  0  0
  -91.3352   23.0690   -1.7193 C   0  0  0  0  0  0  0  0  0  0  0  0
  -90.3711   22.7136    1.7940 N   0  0  0  0  0  0  0  0  0  0  0  0
  -90.3131   22.7119    0.3803 C   0  0  0  0  0  0  0  0  0  0  0  0
  -89.1100   22.3316   -0.2602 N   0  0  0  0  0  0  0  0  0  0  0  0
  -91.3266   23.0497   -0.3122 N   0  0  0  0  0  0  0  0  0  0  0  0
  -90.2135   23.5342    2.3990 H   0  0  0  0  0  0  0  0  0  0  0  0
  -90.5927   21.8093    2.3115 H   0  0  0  0  0  0  0  0  0  0  0  0
  -88.2204   22.8595   -0.1620 H   0  0  0  0  0  0  0  0  0  0  0  0
  -89.1109   21.4874   -0.8595 H   0  0  0  0  0  0  0  0  0  0  0  0
 47 48  1  0  0  0
 48 49  1  0  0  0
 48 50  2  0  0  0
 50 46  1  0  0  0
 46 45  1  0  0  0
 45 44  1  0  0  0
 44 32  1  0  0  0
 32  1  1  0  0  0
  1  2  1  0  0  0
  2  3  2  0  0  0
  2  5  1  0  0  0
  5  6  1  0  0  0
  6  7  1  0  0  0
  7  8  1  0  0  0
  8  9  1  0  0  0
  9 10  1  0  0  0
 10 11  2  0  0  0
 10 12  1  0  0  0
 12 25  1  0  0  0
 25 26  1  0  0  0
 26 27  2  0  0  0
 27 28  1  0  0  0
 28 29  2  0  0  0
 29 30  1  0  0  0
 30 31  2  0  0  0
 12 13  1  0  0  0
 13 14  1  0  0  0
 14 15  2  0  0  0
 14 17  1  0  0  0
 17 18  1  0  0  0
 18 19  1  0  0  0
 19 20  2  0  0  0
 20 21  1  0  0  0
 21 22  2  0  0  0
 22 23  1  0  0  0
 23 24  2  0  0  0
 32 33  1  0  0  0
 33 34  2  0  0  0
 33 35  1  0  0  0
 35 36  2  0  0  0
 36 37  1  0  0  0
 37 38  2  0  0  0
 38 39  1  0  0  0
 39 40  2  0  0  0
 40 41  1  0  0  0
 41 42  2  0  0  0
 42 43  1  0  0  0
  9  5  1  0  0  0
 31 26  1  0  0  0
 24 19  1  0  0  0
 43 35  1  0  0  0
 42 37  1  0  0  0
 47 51  1  0  0  0
 47 52  1  0  0  0
 49 53  1  0  0  0
 49 54  1  0  0  0
  1  4  1  0  0  0
 13 16  1  0  0  0
M  END
> <minimizedAffinity>
-9.36425

> <CNNscore>
0.1549865454

> <CNNaffinity>
6.7645578384

> <CNN_VS>
1.0484154224

> <CNNaffinity_variance>
2.2282605171

$$$$
[H]c1c([H])c([H])c(C([H])([H])OC(=O)N([H])[C@@]([H])(C(=O)N2C([H])([H])C([H])([H])C([H])([H])[C@@]2([H])C(=O)N([H])[C@]([H])(C(=O)c2nc3c([H])c([H])c([H])c([H])c3s2)C([H])([H])C([H])([H])C([H])([H])N=C(N([H])[H])N([H])[H])C([H])([H])c2c([H])c([H])c([H])c([H])c2[H])c([H])c1[H]


 54 58  0  0  0  0  0  0  0  0999 V2000
  -89.7930   27.1817   -1.9034 N   0  0  0  0  0  0  0  0  0  0  0  0
  -89.3559   28.3607   -2.4914 C   0  0  0  0  0  0  0  0  0  0  0  0
  -90.1529   29.2071   -2.9919 O   0  0  0  0  0  0  0  0  0  0  0  0
  -89.1696   26.4851   -1.4946 H   0  0  0  0  0  0  0  0  0  0  0  0
  -87.9029   28.7214   -2.5725 C   0  0  0  0  0  0  0  0  0  0  0  0
  -87.1171   27.7668   -1.7466 C   0  0  0  0  0  0  0  0  0  0  0  0
  -86.6024   28.5592   -0.5757 C   0  0  0  0  0  0  0  0  0  0  0  0
  -87.5097   29.7850   -0.5925 C   0  0  0  0  0  0  0  0  0  0  0  0
  -87.6910   30.0471   -1.9766 N   0  0  0  0  0  0  0  0  0  0  0  0
  -87.6965   31.2595   -2.6725 C   0  0  0  0  0  0  0  0  0  0  0  0
  -87.8509   31.1377   -3.9463 O   0  0  0  0  0  0  0  0  0  0  0  0
  -87.5676   32.6240   -2.1904 C   0  0  0  0  0  0  0  0  0  0  0  0
  -86.8989   32.5808   -0.8807 N   0  0  0  0  0  0  0  0  0  0  0  0
  -85.5099   32.9317   -0.7214 C   0  0  0  0  0  0  0  0  0  0  0  0
  -84.8659   33.2732   -1.7446 O   0  0  0  0  0  0  0  0  0  0  0  0
  -87.4828   32.2828   -0.0755 H   0  0  0  0  0  0  0  0  0  0  0  0
  -84.8883   32.9039    0.4925 O   0  0  0  0  0  0  0  0  0  0  0  0
  -83.6269   32.2991    0.7080 C   0  0  0  0  0  0  0  0  0  0  0  0
  -83.8603   31.0349    1.4735 C   0  0  0  0  0  0  0  0  0  0  0  0
  -84.9900   30.8072    2.2196 C   0  0  0  0  0  0  0  0  0  0  0  0
  -85.1960   29.6419    2.9281 C   0  0  0  0  0  0  0  0  0  0  0  0
  -84.2485   28.6588    2.9007 C   0  0  0  0  0  0  0  0  0  0  0  0
  -83.0880   28.8420    2.1598 C   0  0  0  0  0  0  0  0  0  0  0  0
  -82.9021   30.0183    1.4567 C   0  0  0  0  0  0  0  0  0  0  0  0
  -88.7487   33.5074   -2.1420 C   0  0  0  0  0  0  0  0  0  0  0  0
  -88.7563   34.6948   -2.9854 C   0  0  0  0  0  0  0  0  0  0  0  0
  -89.9005   35.1549   -3.6052 C   0  0  0  0  0  0  0  0  0  0  0  0
  -89.8706   36.2997   -4.3854 C   0  0  0  0  0  0  0  0  0  0  0  0
  -88.7046   37.0158   -4.5696 C   0  0  0  0  0  0  0  0  0  0  0  0
  -87.5587   36.5575   -3.9513 C   0  0  0  0  0  0  0  0  0  0  0  0
  -87.6053   35.4146   -3.1773 C   0  0  0  0  0  0  0  0  0  0  0  0
  -91.2580   26.8551   -1.8318 C   0  0  0  0  0  0  0  0  0  0  0  0
  -91.4213   25.9868   -0.6220 C   0  0  0  0  0  0  0  0  0  0  0  0
  -91.8945   24.8401   -0.8510 O   0  0  0  0  0  0  0  0  0  0  0  0
  -91.0883   26.3370    0.7359 C   0  0  0  0  0  0  0  0  0  0  0  0
  -90.7809   25.6027    1.7740 N   0  0  0  0  0  0  0  0  0  0  0  0
  -90.5213   26.1383    2.9301 C   0  0  0  0  0  0  0  0  0  0  0  0
  -90.1878   25.4523    4.1094 C   0  0  0  0  0  0  0  0  0  0  0  0
  -89.9409   26.1184    5.2731 C   0  0  0  0  0  0  0  0  0  0  0  0
  -90.0003   27.4874    5.3694 C   0  0  0  0  0  0  0  0  0  0  0  0
  -90.3249   28.1808    4.2252 C   0  0  0  0  0  0  0  0  0  0  0  0
  -90.5804   27.4982    3.0239 C   0  0  0  0  0  0  0  0  0  0  0  0
  -91.0092   27.9368    1.4295 S   0  0  0  0  0  0  0  0  0  0  0  0
  -91.4498   25.9267   -3.0042 C   0  0  0  0  0  0  0  0  0  0  0  0
  -92.6588   26.0450   -3.8255 C   0  0  0  0  0  0  0  0  0  0  0  0
  -92.5428   26.7318   -5.1464 C   0  0  0  0  0  0  0  0  0  0  0  0
  -92.6672   30.3083   -5.9155 N   0  0  0  0  0  0  0  0  0  0  0  0
  -92.8882   28.9126   -5.9861 C   0  0  0  0  0  0  0  0  0  0  0  0
  -93.7049   28.3949   -7.0191 N   0  0  0  0  0  0  0  0  0  0  0  0
  -92.3635   28.1275   -5.1322 N   0  0  0  0  0  0  0  0  0  0  0  0
  -93.2010   30.9706   -5.3317 H   0  0  0  0  0  0  0  0  0  0  0  0
  -91.8936   30.7477   -6.5013 H   0  0  0  0  0  0  0  0  0  0  0  0
  -94.7141   28.6227   -7.1162 H   0  0  0  0  0  0  0  0  0  0  0  0
  -93.2818   27.7551   -7.7144 H   0  0  0  0  0  0  0  0  0  0  0  0
 47 48  1  0  0  0
 48 49  1  0  0  0
 48 50  2  0  0  0
 50 46  1  0  0  0
 46 45  1  0  0  0
 45 44  1  0  0  0
 44 32  1  0  0  0
 32  1  1  0  0  0
  1  2  1  0  0  0
  2  3  2  0  0  0
  2  5  1  0  0  0
  5  6  1  0  0  0
  6  7  1  0  0  0
  7  8  1  0  0  0
  8  9  1  0  0  0
  9 10  1  0  0  0
 10 11  2  0  0  0
 10 12  1  0  0  0
 12 25  1  0  0  0
 25 26  1  0  0  0
 26 27  2  0  0  0
 27 28  1  0  0  0
 28 29  2  0  0  0
 29 30  1  0  0  0
 30 31  2  0  0  0
 12 13  1  0  0  0
 13 14  1  0  0  0
 14 15  2  0  0  0
 14 17  1  0  0  0
 17 18  1  0  0  0
 18 19  1  0  0  0
 19 20  2  0  0  0
 20 21  1  0  0  0
 21 22  2  0  0  0
 22 23  1  0  0  0
 23 24  2  0  0  0
 32 33  1  0  0  0
 33 34  2  0  0  0
 33 35  1  0  0  0
 35 36  2  0  0  0
 36 37  1  0  0  0
 37 38  2  0  0  0
 38 39  1  0  0  0
 39 40  2  0  0  0
 40 41  1  0  0  0
 41 42  2  0  0  0
 42 43  1  0  0  0
  9  5  1  0  0  0
 31 26  1  0  0  0
 24 19  1  0  0  0
 43 35  1  0  0  0
 42 37  1  0  0  0
 47 51  1  0  0  0
 47 52  1  0  0  0
 49 53  1  0  0  0
 49 54  1  0  0  0
  1  4  1  0  0  0
 13 16  1  0  0  0
M  END
> <minimizedAffinity>
-10.66696

> <CNNscore>
0.1386773288

> <CNNaffinity>
6.9141511917

> <CNN_VS>
0.9588360190

> <CNNaffinity_variance>
1.9797165394

$$$$
[H]c1c([H])c([H])c(C([H])([H])OC(=O)N([H])[C@@]([H])(C(=O)N2C([H])([H])C([H])([H])C([H])([H])[C@@]2([H])C(=O)N([H])[C@]([H])(C(=O)c2nc3c([H])c([H])c([H])c([H])c3s2)C([H])([H])C([H])([H])C([H])([H])N=C(N([H])[H])N([H])[H])C([H])([H])c2c([H])c([H])c([H])c([H])c2[H])c([H])c1[H]


 54 58  0  0  0  0  0  0  0  0999 V2000
  -89.2903   29.6663   -2.9359 N   0  0  0  0  0  0  0  0  0  0  0  0
  -89.9738   28.4584   -2.9620 C   0  0  0  0  0  0  0  0  0  0  0  0
  -91.1479   28.3512   -3.4225 O   0  0  0  0  0  0  0  0  0  0  0  0
  -88.3447   29.7766   -2.5694 H   0  0  0  0  0  0  0  0  0  0  0  0
  -89.3671   27.1867   -2.4494 C   0  0  0  0  0  0  0  0  0  0  0  0
  -90.3795   26.1001   -2.5220 C   0  0  0  0  0  0  0  0  0  0  0  0
  -90.7325   25.7676   -1.0977 C   0  0  0  0  0  0  0  0  0  0  0  0
  -90.2322   26.9971   -0.3465 C   0  0  0  0  0  0  0  0  0  0  0  0
  -89.0334   27.3391   -1.0271 N   0  0  0  0  0  0  0  0  0  0  0  0
  -87.7957   27.7504   -0.5239 C   0  0  0  0  0  0  0  0  0  0  0  0
  -86.8962   27.9455   -1.4262 O   0  0  0  0  0  0  0  0  0  0  0  0
  -87.3693   28.0009    0.8422 C   0  0  0  0  0  0  0  0  0  0  0  0
  -88.5321   27.8077    1.7226 N   0  0  0  0  0  0  0  0  0  0  0  0
  -88.5455   26.8068    2.7598 C   0  0  0  0  0  0  0  0  0  0  0  0
  -87.5283   26.0818    2.8943 O   0  0  0  0  0  0  0  0  0  0  0  0
  -89.3444   28.4324    1.5559 H   0  0  0  0  0  0  0  0  0  0  0  0
  -89.6167   26.6311    3.5859 O   0  0  0  0  0  0  0  0  0  0  0  0
  -89.7489   25.5312    4.4668 C   0  0  0  0  0  0  0  0  0  0  0  0
  -90.1831   24.3536    3.6523 C   0  0  0  0  0  0  0  0  0  0  0  0
  -90.9866   24.4626    2.5446 C   0  0  0  0  0  0  0  0  0  0  0  0
  -91.3883   23.3721    1.8019 C   0  0  0  0  0  0  0  0  0  0  0  0
  -90.9812   22.1204    2.1659 C   0  0  0  0  0  0  0  0  0  0  0  0
  -90.1669   21.9584    3.2795 C   0  0  0  0  0  0  0  0  0  0  0  0
  -89.7760   23.0658    4.0098 C   0  0  0  0  0  0  0  0  0  0  0  0
  -86.6636   29.2521    1.1805 C   0  0  0  0  0  0  0  0  0  0  0  0
  -85.2394   29.1814    1.4771 C   0  0  0  0  0  0  0  0  0  0  0  0
  -84.3461   30.1433    1.0508 C   0  0  0  0  0  0  0  0  0  0  0  0
  -83.0007   30.0499    1.3694 C   0  0  0  0  0  0  0  0  0  0  0  0
  -82.5090   28.9997    2.1187 C   0  0  0  0  0  0  0  0  0  0  0  0
  -83.4002   28.0360    2.5459 C   0  0  0  0  0  0  0  0  0  0  0  0
  -84.7379   28.1436    2.2196 C   0  0  0  0  0  0  0  0  0  0  0  0
  -89.9256   30.9209   -3.4658 C   0  0  0  0  0  0  0  0  0  0  0  0
  -88.9345   31.5026   -4.4269 C   0  0  0  0  0  0  0  0  0  0  0  0
  -88.0401   30.7031   -4.8167 O   0  0  0  0  0  0  0  0  0  0  0  0
  -88.9210   32.8524   -4.9323 C   0  0  0  0  0  0  0  0  0  0  0  0
  -88.0071   33.7876   -4.8932 N   0  0  0  0  0  0  0  0  0  0  0  0
  -88.2151   34.9607   -5.4143 C   0  0  0  0  0  0  0  0  0  0  0  0
  -87.3142   36.0380   -5.4259 C   0  0  0  0  0  0  0  0  0  0  0  0
  -87.6416   37.2317   -5.9975 C   0  0  0  0  0  0  0  0  0  0  0  0
  -88.8584   37.4582   -6.5933 C   0  0  0  0  0  0  0  0  0  0  0  0
  -89.7574   36.4155   -6.5943 C   0  0  0  0  0  0  0  0  0  0  0  0
  -89.4241   35.1838   -6.0060 C   0  0  0  0  0  0  0  0  0  0  0  0
  -90.2030   33.6803   -5.7795 S   0  0  0  0  0  0  0  0  0  0  0  0
  -89.8931   31.8404   -2.2713 C   0  0  0  0  0  0  0  0  0  0  0  0
  -88.7171   31.8407   -1.3953 C   0  0  0  0  0  0  0  0  0  0  0  0
  -87.9433   33.1110   -1.2634 C   0  0  0  0  0  0  0  0  0  0  0  0
  -84.2953   33.1842   -0.9712 N   0  0  0  0  0  0  0  0  0  0  0  0
  -85.6012   33.3065   -1.5018 C   0  0  0  0  0  0  0  0  0  0  0  0
  -85.7659   33.7642   -2.8305 N   0  0  0  0  0  0  0  0  0  0  0  0
  -86.6195   33.0123   -0.7965 N   0  0  0  0  0  0  0  0  0  0  0  0
  -83.8107   33.8954   -0.4025 H   0  0  0  0  0  0  0  0  0  0  0  0
  -83.7349   32.2971   -1.1550 H   0  0  0  0  0  0  0  0  0  0  0  0
  -85.4814   34.7125   -3.1462 H   0  0  0  0  0  0  0  0  0  0  0  0
  -86.1925   33.1277   -3.5267 H   0  0  0  0  0  0  0  0  0  0  0  0
 47 48  1  0  0  0
 48 49  1  0  0  0
 48 50  2  0  0  0
 50 46  1  0  0  0
 46 45  1  0  0  0
 45 44  1  0  0  0
 44 32  1  0  0  0
 32  1  1  0  0  0
  1  2  1  0  0  0
  2  3  2  0  0  0
  2  5  1  0  0  0
  5  6  1  0  0  0
  6  7  1  0  0  0
  7  8  1  0  0  0
  8  9  1  0  0  0
  9 10  1  0  0  0
 10 11  2  0  0  0
 10 12  1  0  0  0
 12 25  1  0  0  0
 25 26  1  0  0  0
 26 27  2  0  0  0
 27 28  1  0  0  0
 28 29  2  0  0  0
 29 30  1  0  0  0
 30 31  2  0  0  0
 12 13  1  0  0  0
 13 14  1  0  0  0
 14 15  2  0  0  0
 14 17  1  0  0  0
 17 18  1  0  0  0
 18 19  1  0  0  0
 19 20  2  0  0  0
 20 21  1  0  0  0
 21 22  2  0  0  0
 22 23  1  0  0  0
 23 24  2  0  0  0
 32 33  1  0  0  0
 33 34  2  0  0  0
 33 35  1  0  0  0
 35 36  2  0  0  0
 36 37  1  0  0  0
 37 38  2  0  0  0
 38 39  1  0  0  0
 39 40  2  0  0  0
 40 41  1  0  0  0
 41 42  2  0  0  0
 42 43  1  0  0  0
  9  5  1  0  0  0
 31 26  1  0  0  0
 24 19  1  0  0  0
 43 35  1  0  0  0
 42 37  1  0  0  0
 47 51  1  0  0  0
 47 52  1  0  0  0
 49 53  1  0  0  0
 49 54  1  0  0  0
  1  4  1  0  0  0
 13 16  1  0  0  0
M  END
> <minimizedAffinity>
-9.73690

> <CNNscore>
0.1061067954

> <CNNaffinity>
7.2425842285

> <CNN_VS>
0.7684873939

> <CNNaffinity_variance>
0.5601636171

$$$$
[H]c1c([H])c([H])c(C([H])([H])OC(=O)N([H])[C@@]([H])(C(=O)N2C([H])([H])C([H])([H])C([H])([H])[C@@]2([H])C(=O)N([H])[C@]([H])(C(=O)c2nc3c([H])c([H])c([H])c([H])c3s2)C([H])([H])C([H])([H])C([H])([H])N=C(N([H])[H])N([H])[H])C([H])([H])c2c([H])c([H])c([H])c([H])c2[H])c([H])c1[H]


 54 58  0  0  0  0  0  0  0  0999 V2000
  -88.2297   31.8297   -2.2850 N   0  0  0  0  0  0  0  0  0  0  0  0
  -88.5416   30.7055   -3.0371 C   0  0  0  0  0  0  0  0  0  0  0  0
  -87.7742   30.2553   -3.9374 O   0  0  0  0  0  0  0  0  0  0  0  0
  -88.8324   32.2108   -1.5553 H   0  0  0  0  0  0  0  0  0  0  0  0
  -89.8126   29.9365   -2.8338 C   0  0  0  0  0  0  0  0  0  0  0  0
  -90.8764   30.8671   -2.3721 C   0  0  0  0  0  0  0  0  0  0  0  0
  -91.1606   30.4939   -0.9425 C   0  0  0  0  0  0  0  0  0  0  0  0
  -89.9229   29.6848   -0.5688 C   0  0  0  0  0  0  0  0  0  0  0  0
  -89.6286   28.9587   -1.7534 N   0  0  0  0  0  0  0  0  0  0  0  0
  -89.2330   27.6285   -1.9220 C   0  0  0  0  0  0  0  0  0  0  0  0
  -89.0845   27.2725   -3.1518 O   0  0  0  0  0  0  0  0  0  0  0  0
  -88.9548   26.5957   -0.9387 C   0  0  0  0  0  0  0  0  0  0  0  0
  -90.2290   25.9503   -0.5862 N   0  0  0  0  0  0  0  0  0  0  0  0
  -90.6160   24.6753   -1.1360 C   0  0  0  0  0  0  0  0  0  0  0  0
  -89.8329   24.1189   -1.9455 O   0  0  0  0  0  0  0  0  0  0  0  0
  -90.8359   26.4642    0.0814 H   0  0  0  0  0  0  0  0  0  0  0  0
  -91.7913   24.0677   -0.8038 O   0  0  0  0  0  0  0  0  0  0  0  0
  -91.8777   22.7228   -0.3712 C   0  0  0  0  0  0  0  0  0  0  0  0
  -91.3677   22.6699    1.0344 C   0  0  0  0  0  0  0  0  0  0  0  0
  -91.5897   23.6673    1.9512 C   0  0  0  0  0  0  0  0  0  0  0  0
  -91.1112   23.6150    3.2437 C   0  0  0  0  0  0  0  0  0  0  0  0
  -90.3827   22.5340    3.6507 C   0  0  0  0  0  0  0  0  0  0  0  0
  -90.1315   21.4985    2.7595 C   0  0  0  0  0  0  0  0  0  0  0  0
  -90.6210   21.5716    1.4682 C   0  0  0  0  0  0  0  0  0  0  0  0
  -88.1820   26.9184    0.2765 C   0  0  0  0  0  0  0  0  0  0  0  0
  -88.8914   26.9855    1.5467 C   0  0  0  0  0  0  0  0  0  0  0  0
  -90.0130   27.7693    1.7273 C   0  0  0  0  0  0  0  0  0  0  0  0
  -90.6712   27.7919    2.9465 C   0  0  0  0  0  0  0  0  0  0  0  0
  -90.2324   27.0372    4.0162 C   0  0  0  0  0  0  0  0  0  0  0  0
  -89.1106   26.2529    3.8384 C   0  0  0  0  0  0  0  0  0  0  0  0
  -88.4659   26.2419    2.6171 C   0  0  0  0  0  0  0  0  0  0  0  0
  -86.9427   32.5724   -2.5095 C   0  0  0  0  0  0  0  0  0  0  0  0
  -86.3593   32.7936   -1.1476 C   0  0  0  0  0  0  0  0  0  0  0  0
  -86.5213   33.9549   -0.6823 O   0  0  0  0  0  0  0  0  0  0  0  0
  -85.6572   31.8218   -0.3474 C   0  0  0  0  0  0  0  0  0  0  0  0
  -86.0652   30.7410    0.2663 N   0  0  0  0  0  0  0  0  0  0  0  0
  -85.2460   30.0020    0.9545 C   0  0  0  0  0  0  0  0  0  0  0  0
  -85.5714   28.8300    1.6564 C   0  0  0  0  0  0  0  0  0  0  0  0
  -84.6286   28.1347    2.3539 C   0  0  0  0  0  0  0  0  0  0  0  0
  -83.3139   28.5280    2.4160 C   0  0  0  0  0  0  0  0  0  0  0  0
  -82.9718   29.6743    1.7345 C   0  0  0  0  0  0  0  0  0  0  0  0
  -83.9404   30.3940    1.0147 C   0  0  0  0  0  0  0  0  0  0  0  0
  -83.9621   31.8165    0.0690 S   0  0  0  0  0  0  0  0  0  0  0  0
  -87.4167   33.9329   -2.9540 C   0  0  0  0  0  0  0  0  0  0  0  0
  -87.5368   34.2203   -4.3869 C   0  0  0  0  0  0  0  0  0  0  0  0
  -88.8689   34.0206   -5.0313 C   0  0  0  0  0  0  0  0  0  0  0  0
  -91.0176   36.8711   -5.8412 N   0  0  0  0  0  0  0  0  0  0  0  0
  -90.4706   35.7513   -5.1715 C   0  0  0  0  0  0  0  0  0  0  0  0
  -91.0590   35.3169   -3.9602 N   0  0  0  0  0  0  0  0  0  0  0  0
  -89.4602   35.1396   -5.6465 N   0  0  0  0  0  0  0  0  0  0  0  0
  -90.6854   37.8437   -5.7520 H   0  0  0  0  0  0  0  0  0  0  0  0
  -91.8436   36.7369   -6.5004 H   0  0  0  0  0  0  0  0  0  0  0  0
  -91.0856   35.8976   -3.0989 H   0  0  0  0  0  0  0  0  0  0  0  0
  -91.4837   34.3734   -3.9237 H   0  0  0  0  0  0  0  0  0  0  0  0
 47 48  1  0  0  0
 48 49  1  0  0  0
 48 50  2  0  0  0
 50 46  1  0  0  0
 46 45  1  0  0  0
 45 44  1  0  0  0
 44 32  1  0  0  0
 32  1  1  0  0  0
  1  2  1  0  0  0
  2  3  2  0  0  0
  2  5  1  0  0  0
  5  6  1  0  0  0
  6  7  1  0  0  0
  7  8  1  0  0  0
  8  9  1  0  0  0
  9 10  1  0  0  0
 10 11  2  0  0  0
 10 12  1  0  0  0
 12 25  1  0  0  0
 25 26  1  0  0  0
 26 27  2  0  0  0
 27 28  1  0  0  0
 28 29  2  0  0  0
 29 30  1  0  0  0
 30 31  2  0  0  0
 12 13  1  0  0  0
 13 14  1  0  0  0
 14 15  2  0  0  0
 14 17  1  0  0  0
 17 18  1  0  0  0
 18 19  1  0  0  0
 19 20  2  0  0  0
 20 21  1  0  0  0
 21 22  2  0  0  0
 22 23  1  0  0  0
 23 24  2  0  0  0
 32 33  1  0  0  0
 33 34  2  0  0  0
 33 35  1  0  0  0
 35 36  2  0  0  0
 36 37  1  0  0  0
 37 38  2  0  0  0
 38 39  1  0  0  0
 39 40  2  0  0  0
 40 41  1  0  0  0
 41 42  2  0  0  0
 42 43  1  0  0  0
  9  5  1  0  0  0
 31 26  1  0  0  0
 24 19  1  0  0  0
 43 35  1  0  0  0
 42 37  1  0  0  0
 47 51  1  0  0  0
 47 52  1  0  0  0
 49 53  1  0  0  0
 49 54  1  0  0  0
  1  4  1  0  0  0
 13 16  1  0  0  0
M  END
> <minimizedAffinity>
-8.67390

> <CNNscore>
0.0945734233

> <CNNaffinity>
7.2624750137

> <CNN_VS>
0.6868371367

> <CNNaffinity_variance>
0.6413001418

$$$$
[H]OC(=O)C([H])([H])[C@@]([H])(C(=O)N1C([H])([H])C([H])([H])C([H])([H])[C@@]1([H])C(=O)N([H])[C@]([H])(C(=O)N([H])[C@]([H])(C(=O)O[H])C([H])([H])c1c([H])c([H])c([H])c([H])c1[H])C([H])(C([H])([H])[H])C([H])([H])[H])N([H])C(=O)[C@@]([H])(N([H])C(=O)[C@@]([H])(N([H])C(=O)c1c(O[H])c2c([H])c([H])c([H])c([H])c2n1[H])C([H])([H])c1c([H])c([H])c([H])c([H])c1[H])C([H])([H])C([H])(C([H])([H])[H])C([H])([H])[H]


 74 78  0  0  0  0  0  0  0  0999 V2000
  -92.7011   25.9338   -1.4337 C   0  0  0  0  0  0  0  0  0  0  0  0
  -93.4758   25.9929   -2.4489 O   0  0  0  0  0  0  0  0  0  0  0  0
  -92.6444   24.7233   -0.7176 N   0  0  0  0  0  0  0  0  0  0  0  0
  -92.0173   24.6521    0.1060 H   0  0  0  0  0  0  0  0  0  0  0  0
  -93.4225   23.5484   -1.0724 C   0  0  0  0  0  0  0  0  0  0  0  0
  -94.3486   23.2123    0.0519 C   0  0  0  0  0  0  0  0  0  0  0  0
  -93.8387   23.2087    1.2178 O   0  0  0  0  0  0  0  0  0  0  0  0
  -95.7188   22.9104   -0.1216 N   0  0  0  0  0  0  0  0  0  0  0  0
  -96.5971   22.4904    0.9406 C   0  0  0  0  0  0  0  0  0  0  0  0
  -97.6688   21.6947    0.2303 C   0  0  0  0  0  0  0  0  0  0  0  0
  -97.2247   21.6560   -1.2467 C   0  0  0  0  0  0  0  0  0  0  0  0
  -96.4809   22.9935   -1.3176 C   0  0  0  0  0  0  0  0  0  0  0  0
  -97.4737   24.1065   -1.3805 C   0  0  0  0  0  0  0  0  0  0  0  0
  -98.5838   23.9527   -1.9064 O   0  0  0  0  0  0  0  0  0  0  0  0
  -97.0754   25.3264   -0.8129 N   0  0  0  0  0  0  0  0  0  0  0  0
  -96.1554   25.4277   -0.3579 H   0  0  0  0  0  0  0  0  0  0  0  0
  -97.9550   26.4769   -0.8412 C   0  0  0  0  0  0  0  0  0  0  0  0
  -97.3052   27.4837   -1.7247 C   0  0  0  0  0  0  0  0  0  0  0  0
  -98.0700   28.2328   -2.4478 O   0  0  0  0  0  0  0  0  0  0  0  0
  -95.9299   27.7186   -1.8652 N   0  0  0  0  0  0  0  0  0  0  0  0
  -95.2356   27.1825   -1.3078 H   0  0  0  0  0  0  0  0  0  0  0  0
  -95.4438   28.7531   -2.8216 C   0  0  0  0  0  0  0  0  0  0  0  0
  -95.9479   30.0206   -2.3318 C   0  0  0  0  0  0  0  0  0  0  0  0
  -96.8153   30.7853   -3.0993 O   0  0  0  0  0  0  0  0  0  0  0  0
  -95.6490   30.5227   -1.2046 O   0  0  0  0  0  0  0  0  0  0  0  0
  -97.4420   31.4725   -2.6916 H   0  0  0  0  0  0  0  0  0  0  0  0
  -96.0586   28.3834   -4.1410 C   0  0  0  0  0  0  0  0  0  0  0  0
  -95.3570   27.3796   -4.9261 C   0  0  0  0  0  0  0  0  0  0  0  0
  -95.8743   26.0980   -5.1437 C   0  0  0  0  0  0  0  0  0  0  0  0
  -95.2224   25.1704   -5.8938 C   0  0  0  0  0  0  0  0  0  0  0  0
  -94.0067   25.4601   -6.4787 C   0  0  0  0  0  0  0  0  0  0  0  0
  -93.4800   26.7327   -6.2708 C   0  0  0  0  0  0  0  0  0  0  0  0
  -94.1460   27.6605   -5.5126 C   0  0  0  0  0  0  0  0  0  0  0  0
  -97.9411   27.0273    0.5981 C   0  0  0  0  0  0  0  0  0  0  0  0
  -97.5868   26.0017    1.6152 C   0  0  0  0  0  0  0  0  0  0  0  0
  -99.2294   27.7296    0.9108 C   0  0  0  0  0  0  0  0  0  0  0  0
  -92.4427   22.4123   -1.1977 C   0  0  0  0  0  0  0  0  0  0  0  0
  -91.0413   22.7802   -1.0033 C   0  0  0  0  0  0  0  0  0  0  0  0
  -90.3783   23.3485   -2.1107 O   0  0  0  0  0  0  0  0  0  0  0  0
  -90.3483   22.6578    0.0192 O   0  0  0  0  0  0  0  0  0  0  0  0
  -89.5028   22.9218   -2.3862 H   0  0  0  0  0  0  0  0  0  0  0  0
  -91.8967   27.1276   -1.0518 C   0  0  0  0  0  0  0  0  0  0  0  0
  -90.6801   26.7293   -0.3557 N   0  0  0  0  0  0  0  0  0  0  0  0
  -90.3988   27.1632    0.9605 C   0  0  0  0  0  0  0  0  0  0  0  0
  -91.2570   27.9139    1.4913 O   0  0  0  0  0  0  0  0  0  0  0  0
  -89.9931   26.1209   -0.8351 H   0  0  0  0  0  0  0  0  0  0  0  0
  -89.1527   26.7763    1.7134 C   0  0  0  0  0  0  0  0  0  0  0  0
  -88.1007   27.6988    1.4774 N   0  0  0  0  0  0  0  0  0  0  0  0
  -86.7236   27.5770    1.7331 C   0  0  0  0  0  0  0  0  0  0  0  0
  -86.2514   26.5426    2.2339 O   0  0  0  0  0  0  0  0  0  0  0  0
  -88.3900   28.6379    1.0408 H   0  0  0  0  0  0  0  0  0  0  0  0
  -85.8015   28.6750    1.4187 C   0  0  0  0  0  0  0  0  0  0  0  0
  -86.1192   29.7784    0.7272 N   0  0  0  0  0  0  0  0  0  0  0  0
  -85.0351   30.5925    0.6258 C   0  0  0  0  0  0  0  0  0  0  0  0
  -84.8600   31.8040    0.0294 C   0  0  0  0  0  0  0  0  0  0  0  0
  -83.6357   32.4469    0.0639 C   0  0  0  0  0  0  0  0  0  0  0  0
  -82.5701   31.8301    0.7254 C   0  0  0  0  0  0  0  0  0  0  0  0
  -82.7608   30.5961    1.3299 C   0  0  0  0  0  0  0  0  0  0  0  0
  -83.9824   29.9880    1.2762 C   0  0  0  0  0  0  0  0  0  0  0  0
  -84.4652   28.7773    1.7781 C   0  0  0  0  0  0  0  0  0  0  0  0
  -83.6965   27.9054    2.4857 O   0  0  0  0  0  0  0  0  0  0  0  0
  -87.0563   29.9763    0.3299 H   0  0  0  0  0  0  0  0  0  0  0  0
  -83.9699   27.0364    2.8725 H   0  0  0  0  0  0  0  0  0  0  0  0
  -89.5366   26.5536    3.1348 C   0  0  0  0  0  0  0  0  0  0  0  0
  -89.4966   25.1664    3.6227 C   0  0  0  0  0  0  0  0  0  0  0  0
  -88.6205   24.8067    4.6088 C   0  0  0  0  0  0  0  0  0  0  0  0
  -88.5781   23.4969    5.0785 C   0  0  0  0  0  0  0  0  0  0  0  0
  -89.4271   22.5584    4.5470 C   0  0  0  0  0  0  0  0  0  0  0  0
  -90.3214   22.8972    3.5515 C   0  0  0  0  0  0  0  0  0  0  0  0
  -90.3369   24.1892    3.1121 C   0  0  0  0  0  0  0  0  0  0  0  0
  -91.4368   27.7842   -2.3528 C   0  0  0  0  0  0  0  0  0  0  0  0
  -90.6058   29.9878   -1.7105 C   0  0  0  0  0  0  0  0  0  0  0  0
  -91.7692   29.2610   -2.3920 C   0  0  0  0  0  0  0  0  0  0  0  0
  -91.7340   29.7646   -3.8401 C   0  0  0  0  0  0  0  0  0  0  0  0
 72 73  1  0  0  0
 73 74  1  0  0  0
 73 71  1  0  0  0
 71 42  1  0  0  0
 42 43  1  0  0  0
 43 44  1  0  0  0
 44 45  2  0  0  0
 44 47  1  0  0  0
 47 64  1  0  0  0
 64 65  1  0  0  0
 65 66  2  0  0  0
 66 67  1  0  0  0
 67 68  2  0  0  0
 68 69  1  0  0  0
 69 70  2  0  0  0
 47 48  1  0  0  0
 48 49  1  0  0  0
 49 50  2  0  0  0
 49 52  1  0  0  0
 52 53  1  0  0  0
 53 54  1  0  0  0
 54 55  2  0  0  0
 55 56  1  0  0  0
 56 57  2  0  0  0
 57 58  1  0  0  0
 58 59  2  0  0  0
 59 60  1  0  0  0
 60 61  1  0  0  0
 42  1  1  0  0  0
  1  2  2  0  0  0
  1  3  1  0  0  0
  3  5  1  0  0  0
  5 37  1  0  0  0
 37 38  1  0  0  0
 38 39  1  0  0  0
 38 40  2  0  0  0
  5  6  1  0  0  0
  6  7  2  0  0  0
  6  8  1  0  0  0
  8  9  1  0  0  0
  9 10  1  0  0  0
 10 11  1  0  0  0
 11 12  1  0  0  0
 12 13  1  0  0  0
 13 14  2  0  0  0
 13 15  1  0  0  0
 15 17  1  0  0  0
 17 34  1  0  0  0
 34 35  1  0  0  0
 34 36  1  0  0  0
 17 18  1  0  0  0
 18 19  2  0  0  0
 18 20  1  0  0  0
 20 22  1  0  0  0
 22 27  1  0  0  0
 27 28  1  0  0  0
 28 29  2  0  0  0
 29 30  1  0  0  0
 30 31  2  0  0  0
 31 32  1  0  0  0
 32 33  2  0  0  0
 22 23  1  0  0  0
 23 24  1  0  0  0
 23 25  2  0  0  0
 70 65  1  0  0  0
 60 52  2  0  0  0
 12  8  1  0  0  0
 33 28  1  0  0  0
 59 54  1  0  0  0
 43 46  1  0  0  0
 48 51  1  0  0  0
 53 62  1  0  0  0
 61 63  1  0  0  0
  3  4  1  0  0  0
 39 41  1  0  0  0
 15 16  1  0  0  0
 20 21  1  0  0  0
 24 26  1  0  0  0
M  END
> <minimizedAffinity>
-7.99473

> <CNNscore>
0.1030735150

> <CNNaffinity>
6.9594221115

> <CNN_VS>
0.7173321247

> <CNNaffinity_variance>
1.0080837011

$$$$
[H]OC(=O)C([H])([H])[C@@]([H])(C(=O)N1C([H])([H])C([H])([H])C([H])([H])[C@@]1([H])C(=O)N([H])[C@]([H])(C(=O)N([H])[C@]([H])(C(=O)O[H])C([H])([H])c1c([H])c([H])c([H])c([H])c1[H])C([H])(C([H])([H])[H])C([H])([H])[H])N([H])C(=O)[C@@]([H])(N([H])C(=O)[C@@]([H])(N([H])C(=O)c1c(O[H])c2c([H])c([H])c([H])c([H])c2n1[H])C([H])([H])c1c([H])c([H])c([H])c([H])c1[H])C([H])([H])C([H])(C([H])([H])[H])C([H])([H])[H]


 74 78  0  0  0  0  0  0  0  0999 V2000
  -91.4951   26.0508   -3.0425 C   0  0  0  0  0  0  0  0  0  0  0  0
  -90.8122   26.8823   -3.7330 O   0  0  0  0  0  0  0  0  0  0  0  0
  -92.8968   26.0864   -3.1657 N   0  0  0  0  0  0  0  0  0  0  0  0
  -93.4695   25.4159   -2.6187 H   0  0  0  0  0  0  0  0  0  0  0  0
  -93.5991   27.0195   -4.0304 C   0  0  0  0  0  0  0  0  0  0  0  0
  -94.2073   28.1016   -3.1975 C   0  0  0  0  0  0  0  0  0  0  0  0
  -95.2030   27.7656   -2.4799 O   0  0  0  0  0  0  0  0  0  0  0  0
  -93.7370   29.4347   -3.1748 N   0  0  0  0  0  0  0  0  0  0  0  0
  -94.3738   30.5067   -2.4527 C   0  0  0  0  0  0  0  0  0  0  0  0
  -93.9614   31.7483   -3.2106 C   0  0  0  0  0  0  0  0  0  0  0  0
  -93.1554   31.2290   -4.4194 C   0  0  0  0  0  0  0  0  0  0  0  0
  -92.5724   29.9547   -3.8004 C   0  0  0  0  0  0  0  0  0  0  0  0
  -91.4505   30.3200   -2.8859 C   0  0  0  0  0  0  0  0  0  0  0  0
  -91.3692   29.8497   -1.7437 O   0  0  0  0  0  0  0  0  0  0  0  0
  -90.5029   31.2209   -3.3952 N   0  0  0  0  0  0  0  0  0  0  0  0
  -90.5751   31.5830   -4.3581 H   0  0  0  0  0  0  0  0  0  0  0  0
  -89.3872   31.6584   -2.5815 C   0  0  0  0  0  0  0  0  0  0  0  0
  -89.3112   33.1379   -2.7295 C   0  0  0  0  0  0  0  0  0  0  0  0
  -88.5261   33.7830   -1.9316 O   0  0  0  0  0  0  0  0  0  0  0  0
  -90.0073   33.9290   -3.6547 N   0  0  0  0  0  0  0  0  0  0  0  0
  -90.6447   33.4990   -4.3540 H   0  0  0  0  0  0  0  0  0  0  0  0
  -89.8353   35.4094   -3.6487 C   0  0  0  0  0  0  0  0  0  0  0  0
  -91.0193   35.9533   -4.2832 C   0  0  0  0  0  0  0  0  0  0  0  0
  -92.1283   36.3125   -3.5299 O   0  0  0  0  0  0  0  0  0  0  0  0
  -91.1412   36.1380   -5.5334 O   0  0  0  0  0  0  0  0  0  0  0  0
  -92.8147   36.9854   -3.8573 H   0  0  0  0  0  0  0  0  0  0  0  0
  -88.6013   35.6614   -4.4669 C   0  0  0  0  0  0  0  0  0  0  0  0
  -87.8881   36.9013   -4.2018 C   0  0  0  0  0  0  0  0  0  0  0  0
  -88.2570   37.7764   -3.1745 C   0  0  0  0  0  0  0  0  0  0  0  0
  -87.5751   38.9246   -2.9200 C   0  0  0  0  0  0  0  0  0  0  0  0
  -86.4764   39.2781   -3.6761 C   0  0  0  0  0  0  0  0  0  0  0  0
  -86.0975   38.4156   -4.7022 C   0  0  0  0  0  0  0  0  0  0  0  0
  -86.7923   37.2601   -4.9500 C   0  0  0  0  0  0  0  0  0  0  0  0
  -88.1401   31.0486   -3.2506 C   0  0  0  0  0  0  0  0  0  0  0  0
  -88.1019   31.2585   -4.7223 C   0  0  0  0  0  0  0  0  0  0  0  0
  -87.9844   29.6061   -2.8688 C   0  0  0  0  0  0  0  0  0  0  0  0
  -94.7309   26.2490   -4.6562 C   0  0  0  0  0  0  0  0  0  0  0  0
  -94.7879   24.8331   -4.2969 C   0  0  0  0  0  0  0  0  0  0  0  0
  -94.0424   23.9470   -5.1019 O   0  0  0  0  0  0  0  0  0  0  0  0
  -95.4126   24.2999   -3.3663 O   0  0  0  0  0  0  0  0  0  0  0  0
  -94.5381   23.1520   -5.4848 H   0  0  0  0  0  0  0  0  0  0  0  0
  -90.7948   25.0875   -2.1483 C   0  0  0  0  0  0  0  0  0  0  0  0
  -90.4423   25.7194   -0.8835 N   0  0  0  0  0  0  0  0  0  0  0  0
  -89.1175   26.1215   -0.5953 C   0  0  0  0  0  0  0  0  0  0  0  0
  -88.2639   25.8986   -1.4916 O   0  0  0  0  0  0  0  0  0  0  0  0
  -91.1740   25.8718   -0.1671 H   0  0  0  0  0  0  0  0  0  0  0  0
  -88.7119   26.7753    0.6998 C   0  0  0  0  0  0  0  0  0  0  0  0
  -87.8360   27.8684    0.4730 N   0  0  0  0  0  0  0  0  0  0  0  0
  -86.7126   28.2879    1.2070 C   0  0  0  0  0  0  0  0  0  0  0  0
  -86.3409   27.6738    2.2210 O   0  0  0  0  0  0  0  0  0  0  0  0
  -88.0584   28.4769   -0.3851 H   0  0  0  0  0  0  0  0  0  0  0  0
  -85.9467   29.4710    0.7967 C   0  0  0  0  0  0  0  0  0  0  0  0
  -86.4439   30.5217    0.1295 N   0  0  0  0  0  0  0  0  0  0  0  0
  -85.4673   31.4436   -0.0819 C   0  0  0  0  0  0  0  0  0  0  0  0
  -85.4794   32.6556   -0.7024 C   0  0  0  0  0  0  0  0  0  0  0  0
  -84.3329   33.4245   -0.7903 C   0  0  0  0  0  0  0  0  0  0  0  0
  -83.1501   32.9359   -0.2284 C   0  0  0  0  0  0  0  0  0  0  0  0
  -83.1503   31.7001    0.4018 C   0  0  0  0  0  0  0  0  0  0  0  0
  -84.2996   30.9656    0.4702 C   0  0  0  0  0  0  0  0  0  0  0  0
  -84.6011   29.7203    1.0260 C   0  0  0  0  0  0  0  0  0  0  0  0
  -83.6806   28.9475    1.6643 O   0  0  0  0  0  0  0  0  0  0  0  0
  -87.4300   30.6123   -0.1783 H   0  0  0  0  0  0  0  0  0  0  0  0
  -83.8221   28.0620    2.0827 H   0  0  0  0  0  0  0  0  0  0  0  0
  -89.9551   27.0662    1.4659 C   0  0  0  0  0  0  0  0  0  0  0  0
  -89.9121   26.8238    2.9162 C   0  0  0  0  0  0  0  0  0  0  0  0
  -90.1638   27.8417    3.7937 C   0  0  0  0  0  0  0  0  0  0  0  0
  -90.1281   27.6204    5.1677 C   0  0  0  0  0  0  0  0  0  0  0  0
  -89.8395   26.3662    5.6450 C   0  0  0  0  0  0  0  0  0  0  0  0
  -89.5830   25.3220    4.7793 C   0  0  0  0  0  0  0  0  0  0  0  0
  -89.6244   25.5723    3.4383 C   0  0  0  0  0  0  0  0  0  0  0  0
  -91.8042   23.9939   -1.8010 C   0  0  0  0  0  0  0  0  0  0  0  0
  -93.4737   23.8808   -0.0236 C   0  0  0  0  0  0  0  0  0  0  0  0
  -91.9689   23.8276   -0.3050 C   0  0  0  0  0  0  0  0  0  0  0  0
  -91.5563   22.4100    0.1099 C   0  0  0  0  0  0  0  0  0  0  0  0
 72 73  1  0  0  0
 73 74  1  0  0  0
 73 71  1  0  0  0
 71 42  1  0  0  0
 42 43  1  0  0  0
 43 44  1  0  0  0
 44 45  2  0  0  0
 44 47  1  0  0  0
 47 64  1  0  0  0
 64 65  1  0  0  0
 65 66  2  0  0  0
 66 67  1  0  0  0
 67 68  2  0  0  0
 68 69  1  0  0  0
 69 70  2  0  0  0
 47 48  1  0  0  0
 48 49  1  0  0  0
 49 50  2  0  0  0
 49 52  1  0  0  0
 52 53  1  0  0  0
 53 54  1  0  0  0
 54 55  2  0  0  0
 55 56  1  0  0  0
 56 57  2  0  0  0
 57 58  1  0  0  0
 58 59  2  0  0  0
 59 60  1  0  0  0
 60 61  1  0  0  0
 42  1  1  0  0  0
  1  2  2  0  0  0
  1  3  1  0  0  0
  3  5  1  0  0  0
  5 37  1  0  0  0
 37 38  1  0  0  0
 38 39  1  0  0  0
 38 40  2  0  0  0
  5  6  1  0  0  0
  6  7  2  0  0  0
  6  8  1  0  0  0
  8  9  1  0  0  0
  9 10  1  0  0  0
 10 11  1  0  0  0
 11 12  1  0  0  0
 12 13  1  0  0  0
 13 14  2  0  0  0
 13 15  1  0  0  0
 15 17  1  0  0  0
 17 34  1  0  0  0
 34 35  1  0  0  0
 34 36  1  0  0  0
 17 18  1  0  0  0
 18 19  2  0  0  0
 18 20  1  0  0  0
 20 22  1  0  0  0
 22 27  1  0  0  0
 27 28  1  0  0  0
 28 29  2  0  0  0
 29 30  1  0  0  0
 30 31  2  0  0  0
 31 32  1  0  0  0
 32 33  2  0  0  0
 22 23  1  0  0  0
 23 24  1  0  0  0
 23 25  2  0  0  0
 70 65  1  0  0  0
 60 52  2  0  0  0
 12  8  1  0  0  0
 33 28  1  0  0  0
 59 54  1  0  0  0
 43 46  1  0  0  0
 48 51  1  0  0  0
 53 62  1  0  0  0
 61 63  1  0  0  0
  3  4  1  0  0  0
 39 41  1  0  0  0
 15 16  1  0  0  0
 20 21  1  0  0  0
 24 26  1  0  0  0
M  END
> <minimizedAffinity>
-9.34321

> <CNNscore>
0.0933205485

> <CNNaffinity>
7.4344701767

> <CNN_VS>
0.6937888265

> <CNNaffinity_variance>
1.3872649670

$$$$
[H]OC(=O)C([H])([H])[C@@]([H])(C(=O)N1C([H])([H])C([H])([H])C([H])([H])[C@@]1([H])C(=O)N([H])[C@]([H])(C(=O)N([H])[C@]([H])(C(=O)O[H])C([H])([H])c1c([H])c([H])c([H])c([H])c1[H])C([H])(C([H])([H])[H])C([H])([H])[H])N([H])C(=O)[C@@]([H])(N([H])C(=O)[C@@]([H])(N([H])C(=O)c1c(O[H])c2c([H])c([H])c([H])c([H])c2n1[H])C([H])([H])c1c([H])c([H])c([H])c([H])c1[H])C([H])([H])C([H])(C([H])([H])[H])C([H])([H])[H]


 74 78  0  0  0  0  0  0  0  0999 V2000
  -92.1174   28.9741   -4.2780 C   0  0  0  0  0  0  0  0  0  0  0  0
  -92.0260   29.0423   -5.5513 O   0  0  0  0  0  0  0  0  0  0  0  0
  -92.7795   27.8626   -3.7234 N   0  0  0  0  0  0  0  0  0  0  0  0
  -92.8593   27.7849   -2.6917 H   0  0  0  0  0  0  0  0  0  0  0  0
  -93.3635   26.7997   -4.5238 C   0  0  0  0  0  0  0  0  0  0  0  0
  -94.8517   26.8418   -4.3890 C   0  0  0  0  0  0  0  0  0  0  0  0
  -95.3093   26.8132   -3.2020 O   0  0  0  0  0  0  0  0  0  0  0  0
  -95.7391   26.9109   -5.4875 N   0  0  0  0  0  0  0  0  0  0  0  0
  -97.1744   26.8534   -5.3749 C   0  0  0  0  0  0  0  0  0  0  0  0
  -97.6210   26.3156   -6.7156 C   0  0  0  0  0  0  0  0  0  0  0  0
  -96.3153   26.0123   -7.4793 C   0  0  0  0  0  0  0  0  0  0  0  0
  -95.4104   27.0816   -6.8589 C   0  0  0  0  0  0  0  0  0  0  0  0
  -95.7451   28.4120   -7.4475 C   0  0  0  0  0  0  0  0  0  0  0  0
  -95.7978   28.5814   -8.6727 O   0  0  0  0  0  0  0  0  0  0  0  0
  -95.9935   29.4493   -6.5357 N   0  0  0  0  0  0  0  0  0  0  0  0
  -95.9683   29.2824   -5.5183 H   0  0  0  0  0  0  0  0  0  0  0  0
  -96.3047   30.7848   -7.0025 C   0  0  0  0  0  0  0  0  0  0  0  0
  -95.6255   31.7267   -6.0708 C   0  0  0  0  0  0  0  0  0  0  0  0
  -94.6009   31.2911   -5.4155 O   0  0  0  0  0  0  0  0  0  0  0  0
  -95.9762   33.0606   -5.8174 N   0  0  0  0  0  0  0  0  0  0  0  0
  -96.7717   33.5085   -6.3140 H   0  0  0  0  0  0  0  0  0  0  0  0
  -95.2014   33.8602   -4.8267 C   0  0  0  0  0  0  0  0  0  0  0  0
  -95.8960   33.7154   -3.5630 C   0  0  0  0  0  0  0  0  0  0  0  0
  -97.2665   33.9173   -3.4777 O   0  0  0  0  0  0  0  0  0  0  0  0
  -95.3330   33.4067   -2.4676 O   0  0  0  0  0  0  0  0  0  0  0  0
  -97.8319   33.5125   -2.7377 H   0  0  0  0  0  0  0  0  0  0  0  0
  -95.2605   35.2724   -5.3344 C   0  0  0  0  0  0  0  0  0  0  0  0
  -94.6407   36.2895   -4.4992 C   0  0  0  0  0  0  0  0  0  0  0  0
  -93.2694   36.3020   -4.2218 C   0  0  0  0  0  0  0  0  0  0  0  0
  -92.6932   37.2659   -3.4556 C   0  0  0  0  0  0  0  0  0  0  0  0
  -93.4488   38.2848   -2.9127 C   0  0  0  0  0  0  0  0  0  0  0  0
  -94.8156   38.2850   -3.1812 C   0  0  0  0  0  0  0  0  0  0  0  0
  -95.3863   37.3081   -3.9553 C   0  0  0  0  0  0  0  0  0  0  0  0
  -97.8257   30.9339   -6.8049 C   0  0  0  0  0  0  0  0  0  0  0  0
  -98.3273   30.2576   -5.5791 C   0  0  0  0  0  0  0  0  0  0  0  0
  -98.5656   30.5131   -8.0404 C   0  0  0  0  0  0  0  0  0  0  0  0
  -92.8971   25.5044   -3.9148 C   0  0  0  0  0  0  0  0  0  0  0  0
  -92.0342   25.6473   -2.7436 C   0  0  0  0  0  0  0  0  0  0  0  0
  -90.6584   25.8330   -2.9918 O   0  0  0  0  0  0  0  0  0  0  0  0
  -92.3547   25.6268   -1.5446 O   0  0  0  0  0  0  0  0  0  0  0  0
  -90.0207   25.2063   -2.5175 H   0  0  0  0  0  0  0  0  0  0  0  0
  -91.5274   30.0543   -3.4394 C   0  0  0  0  0  0  0  0  0  0  0  0
  -90.7010   29.4918   -2.3793 N   0  0  0  0  0  0  0  0  0  0  0  0
  -91.2332   29.1764   -1.1077 C   0  0  0  0  0  0  0  0  0  0  0  0
  -92.4577   29.4130   -0.9458 O   0  0  0  0  0  0  0  0  0  0  0  0
  -89.6936   29.3256   -2.5507 H   0  0  0  0  0  0  0  0  0  0  0  0
  -90.4128   28.5963    0.0147 C   0  0  0  0  0  0  0  0  0  0  0  0
  -89.1373   29.2130    0.0928 N   0  0  0  0  0  0  0  0  0  0  0  0
  -87.8621   28.6310    0.2014 C   0  0  0  0  0  0  0  0  0  0  0  0
  -87.7189   27.3973    0.2356 O   0  0  0  0  0  0  0  0  0  0  0  0
  -89.1344   30.2880    0.0703 H   0  0  0  0  0  0  0  0  0  0  0  0
  -86.6591   29.4682    0.2827 C   0  0  0  0  0  0  0  0  0  0  0  0
  -85.4938   29.0974    0.8315 N   0  0  0  0  0  0  0  0  0  0  0  0
  -84.5894   30.1075    0.7307 C   0  0  0  0  0  0  0  0  0  0  0  0
  -83.2923   30.2104    1.1318 C   0  0  0  0  0  0  0  0  0  0  0  0
  -82.5658   31.3664    0.9105 C   0  0  0  0  0  0  0  0  0  0  0  0
  -83.1871   32.4383    0.2635 C   0  0  0  0  0  0  0  0  0  0  0  0
  -84.5088   32.3214   -0.1412 C   0  0  0  0  0  0  0  0  0  0  0  0
  -85.1980   31.1662    0.0938 C   0  0  0  0  0  0  0  0  0  0  0  0
  -86.5048   30.7635   -0.1904 C   0  0  0  0  0  0  0  0  0  0  0  0
  -87.4083   31.5604   -0.8233 O   0  0  0  0  0  0  0  0  0  0  0  0
  -85.3145   28.1740    1.2679 H   0  0  0  0  0  0  0  0  0  0  0  0
  -88.3444   31.3424   -1.0591 H   0  0  0  0  0  0  0  0  0  0  0  0
  -91.2469   28.6334    1.2477 C   0  0  0  0  0  0  0  0  0  0  0  0
  -90.7936   27.8105    2.3797 C   0  0  0  0  0  0  0  0  0  0  0  0
  -90.7269   28.3434    3.6370 C   0  0  0  0  0  0  0  0  0  0  0  0
  -90.3018   27.5709    4.7144 C   0  0  0  0  0  0  0  0  0  0  0  0
  -89.9490   26.2601    4.5112 C   0  0  0  0  0  0  0  0  0  0  0  0
  -90.0091   25.6988    3.2515 C   0  0  0  0  0  0  0  0  0  0  0  0
  -90.4284   26.4833    2.2163 C   0  0  0  0  0  0  0  0  0  0  0  0
  -90.5742   30.8402   -4.3388 C   0  0  0  0  0  0  0  0  0  0  0  0
  -89.2260   32.8661   -4.5311 C   0  0  0  0  0  0  0  0  0  0  0  0
  -90.5470   32.3129   -3.9879 C   0  0  0  0  0  0  0  0  0  0  0  0
  -91.6253   33.0581   -4.7842 C   0  0  0  0  0  0  0  0  0  0  0  0
 72 73  1  0  0  0
 73 74  1  0  0  0
 73 71  1  0  0  0
 71 42  1  0  0  0
 42 43  1  0  0  0
 43 44  1  0  0  0
 44 45  2  0  0  0
 44 47  1  0  0  0
 47 64  1  0  0  0
 64 65  1  0  0  0
 65 66  2  0  0  0
 66 67  1  0  0  0
 67 68  2  0  0  0
 68 69  1  0  0  0
 69 70  2  0  0  0
 47 48  1  0  0  0
 48 49  1  0  0  0
 49 50  2  0  0  0
 49 52  1  0  0  0
 52 53  1  0  0  0
 53 54  1  0  0  0
 54 55  2  0  0  0
 55 56  1  0  0  0
 56 57  2  0  0  0
 57 58  1  0  0  0
 58 59  2  0  0  0
 59 60  1  0  0  0
 60 61  1  0  0  0
 42  1  1  0  0  0
  1  2  2  0  0  0
  1  3  1  0  0  0
  3  5  1  0  0  0
  5 37  1  0  0  0
 37 38  1  0  0  0
 38 39  1  0  0  0
 38 40  2  0  0  0
  5  6  1  0  0  0
  6  7  2  0  0  0
  6  8  1  0  0  0
  8  9  1  0  0  0
  9 10  1  0  0  0
 10 11  1  0  0  0
 11 12  1  0  0  0
 12 13  1  0  0  0
 13 14  2  0  0  0
 13 15  1  0  0  0
 15 17  1  0  0  0
 17 34  1  0  0  0
 34 35  1  0  0  0
 34 36  1  0  0  0
 17 18  1  0  0  0
 18 19  2  0  0  0
 18 20  1  0  0  0
 20 22  1  0  0  0
 22 27  1  0  0  0
 27 28  1  0  0  0
 28 29  2  0  0  0
 29 30  1  0  0  0
 30 31  2  0  0  0
 31 32  1  0  0  0
 32 33  2  0  0  0
 22 23  1  0  0  0
 23 24  1  0  0  0
 23 25  2  0  0  0
 70 65  1  0  0  0
 60 52  2  0  0  0
 12  8  1  0  0  0
 33 28  1  0  0  0
 59 54  1  0  0  0
 43 46  1  0  0  0
 48 51  1  0  0  0
 53 62  1  0  0  0
 61 63  1  0  0  0
  3  4  1  0  0  0
 39 41  1  0  0  0
 15 16  1  0  0  0
 20 21  1  0  0  0
 24 26  1  0  0  0
M  END
> <minimizedAffinity>
-7.72627

> <CNNscore>
0.0675740838

> <CNNaffinity>
6.6722030640

> <CNN_VS>
0.4508680105

> <CNNaffinity_variance>
0.6446588635

$$$$
[H]OC(=O)C([H])([H])[C@@]([H])(C(=O)N1C([H])([H])C([H])([H])C([H])([H])[C@@]1([H])C(=O)N([H])[C@]([H])(C(=O)N([H])[C@]([H])(C(=O)O[H])C([H])([H])c1c([H])c([H])c([H])c([H])c1[H])C([H])(C([H])([H])[H])C([H])([H])[H])N([H])C(=O)[C@@]([H])(N([H])C(=O)[C@@]([H])(N([H])C(=O)c1c(O[H])c2c([H])c([H])c([H])c([H])c2n1[H])C([H])([H])c1c([H])c([H])c([H])c([H])c1[H])C([H])([H])C([H])(C([H])([H])[H])C([H])([H])[H]


 74 78  0  0  0  0  0  0  0  0999 V2000
  -91.3244   26.8205   -3.1499 C   0  0  0  0  0  0  0  0  0  0  0  0
  -90.4904   27.7895   -3.1557 O   0  0  0  0  0  0  0  0  0  0  0  0
  -92.5172   26.9733   -3.8814 N   0  0  0  0  0  0  0  0  0  0  0  0
  -93.2049   26.1964   -3.8950 H   0  0  0  0  0  0  0  0  0  0  0  0
  -92.8449   28.1730   -4.6331 C   0  0  0  0  0  0  0  0  0  0  0  0
  -93.5896   29.1209   -3.7489 C   0  0  0  0  0  0  0  0  0  0  0  0
  -94.4736   28.6063   -2.9920 O   0  0  0  0  0  0  0  0  0  0  0  0
  -93.3586   30.5154   -3.7200 N   0  0  0  0  0  0  0  0  0  0  0  0
  -94.1351   31.4497   -2.9454 C   0  0  0  0  0  0  0  0  0  0  0  0
  -93.9848   32.7540   -3.6952 C   0  0  0  0  0  0  0  0  0  0  0  0
  -93.1631   32.3997   -4.9521 C   0  0  0  0  0  0  0  0  0  0  0  0
  -92.3359   31.2395   -4.3892 C   0  0  0  0  0  0  0  0  0  0  0  0
  -91.2500   31.7841   -3.5217 C   0  0  0  0  0  0  0  0  0  0  0  0
  -91.1296   31.4331   -2.3407 O   0  0  0  0  0  0  0  0  0  0  0  0
  -90.3824   32.7100   -4.1210 N   0  0  0  0  0  0  0  0  0  0  0  0
  -90.4845   32.9715   -5.1133 H   0  0  0  0  0  0  0  0  0  0  0  0
  -89.3087   33.3161   -3.3606 C   0  0  0  0  0  0  0  0  0  0  0  0
  -89.1026   34.6757   -3.9311 C   0  0  0  0  0  0  0  0  0  0  0  0
  -88.6669   35.6003   -3.1408 O   0  0  0  0  0  0  0  0  0  0  0  0
  -89.3306   35.0774   -5.2551 N   0  0  0  0  0  0  0  0  0  0  0  0
  -89.6590   34.3994   -5.9711 H   0  0  0  0  0  0  0  0  0  0  0  0
  -89.0977   36.4939   -5.6554 C   0  0  0  0  0  0  0  0  0  0  0  0
  -90.3876   37.0123   -6.0650 C   0  0  0  0  0  0  0  0  0  0  0  0
  -91.5260   36.2212   -5.9972 O   0  0  0  0  0  0  0  0  0  0  0  0
  -90.5799   38.1870   -6.5068 O   0  0  0  0  0  0  0  0  0  0  0  0
  -92.4604   36.6147   -5.9414 H   0  0  0  0  0  0  0  0  0  0  0  0
  -88.1374   36.4201   -6.8078 C   0  0  0  0  0  0  0  0  0  0  0  0
  -87.0628   37.4006   -6.8218 C   0  0  0  0  0  0  0  0  0  0  0  0
  -86.2309   37.6207   -5.7187 C   0  0  0  0  0  0  0  0  0  0  0  0
  -85.2165   38.5254   -5.7443 C   0  0  0  0  0  0  0  0  0  0  0  0
  -84.9637   39.2739   -6.8755 C   0  0  0  0  0  0  0  0  0  0  0  0
  -85.7841   39.0647   -7.9816 C   0  0  0  0  0  0  0  0  0  0  0  0
  -86.8041   38.1496   -7.9449 C   0  0  0  0  0  0  0  0  0  0  0  0
  -88.0619   32.4702   -3.6840 C   0  0  0  0  0  0  0  0  0  0  0  0
  -88.2437   31.5844   -4.8646 C   0  0  0  0  0  0  0  0  0  0  0  0
  -87.5963   31.7241   -2.4686 C   0  0  0  0  0  0  0  0  0  0  0  0
  -93.7898   27.7454   -5.7243 C   0  0  0  0  0  0  0  0  0  0  0  0
  -93.2801   26.6988   -6.6084 C   0  0  0  0  0  0  0  0  0  0  0  0
  -91.9849   26.8904   -7.1325 O   0  0  0  0  0  0  0  0  0  0  0  0
  -93.8421   25.6507   -6.9640 O   0  0  0  0  0  0  0  0  0  0  0  0
  -91.8839   26.8170   -8.1369 H   0  0  0  0  0  0  0  0  0  0  0  0
  -91.0086   25.5829   -2.3840 C   0  0  0  0  0  0  0  0  0  0  0  0
  -90.6403   25.9049   -1.0115 N   0  0  0  0  0  0  0  0  0  0  0  0
  -89.6195   25.2028   -0.3297 C   0  0  0  0  0  0  0  0  0  0  0  0
  -89.0529   24.2844   -0.9755 O   0  0  0  0  0  0  0  0  0  0  0  0
  -91.1422   26.6599   -0.5116 H   0  0  0  0  0  0  0  0  0  0  0  0
  -89.2106   25.5031    1.0887 C   0  0  0  0  0  0  0  0  0  0  0  0
  -88.0962   26.3805    1.1290 N   0  0  0  0  0  0  0  0  0  0  0  0
  -87.9777   27.7052    0.6732 C   0  0  0  0  0  0  0  0  0  0  0  0
  -88.9372   28.2922    0.1456 O   0  0  0  0  0  0  0  0  0  0  0  0
  -87.2005   25.9804    1.5693 H   0  0  0  0  0  0  0  0  0  0  0  0
  -86.7101   28.4337    0.8042 C   0  0  0  0  0  0  0  0  0  0  0  0
  -86.4346   29.6159    0.2359 N   0  0  0  0  0  0  0  0  0  0  0  0
  -85.1768   30.0106    0.5685 C   0  0  0  0  0  0  0  0  0  0  0  0
  -84.4555   31.1189    0.2437 C   0  0  0  0  0  0  0  0  0  0  0  0
  -83.1680   31.2971    0.7169 C   0  0  0  0  0  0  0  0  0  0  0  0
  -82.6117   30.3146    1.5407 C   0  0  0  0  0  0  0  0  0  0  0  0
  -83.3565   29.1902    1.8652 C   0  0  0  0  0  0  0  0  0  0  0  0
  -84.6247   29.0446    1.3802 C   0  0  0  0  0  0  0  0  0  0  0  0
  -85.5923   28.0486    1.5305 C   0  0  0  0  0  0  0  0  0  0  0  0
  -85.3962   26.9268    2.2755 O   0  0  0  0  0  0  0  0  0  0  0  0
  -87.0889   30.1468   -0.3684 H   0  0  0  0  0  0  0  0  0  0  0  0
  -86.0332   26.1852    2.4287 H   0  0  0  0  0  0  0  0  0  0  0  0
  -90.4288   25.9398    1.8254 C   0  0  0  0  0  0  0  0  0  0  0  0
  -90.2399   26.3815    3.2158 C   0  0  0  0  0  0  0  0  0  0  0  0
  -90.3752   27.7016    3.5449 C   0  0  0  0  0  0  0  0  0  0  0  0
  -90.2011   28.1277    4.8587 C   0  0  0  0  0  0  0  0  0  0  0  0
  -89.8930   27.2116    5.8333 C   0  0  0  0  0  0  0  0  0  0  0  0
  -89.7523   25.8731    5.5264 C   0  0  0  0  0  0  0  0  0  0  0  0
  -89.9279   25.4881    4.2288 C   0  0  0  0  0  0  0  0  0  0  0  0
  -92.3050   24.7792   -2.2903 C   0  0  0  0  0  0  0  0  0  0  0  0
  -92.3445   22.6101   -1.1713 C   0  0  0  0  0  0  0  0  0  0  0  0
  -92.0729   23.2994   -2.5119 C   0  0  0  0  0  0  0  0  0  0  0  0
  -93.1482   22.7384   -3.4506 C   0  0  0  0  0  0  0  0  0  0  0  0
 72 73  1  0  0  0
 73 74  1  0  0  0
 73 71  1  0  0  0
 71 42  1  0  0  0
 42 43  1  0  0  0
 43 44  1  0  0  0
 44 45  2  0  0  0
 44 47  1  0  0  0
 47 64  1  0  0  0
 64 65  1  0  0  0
 65 66  2  0  0  0
 66 67  1  0  0  0
 67 68  2  0  0  0
 68 69  1  0  0  0
 69 70  2  0  0  0
 47 48  1  0  0  0
 48 49  1  0  0  0
 49 50  2  0  0  0
 49 52  1  0  0  0
 52 53  1  0  0  0
 53 54  1  0  0  0
 54 55  2  0  0  0
 55 56  1  0  0  0
 56 57  2  0  0  0
 57 58  1  0  0  0
 58 59  2  0  0  0
 59 60  1  0  0  0
 60 61  1  0  0  0
 42  1  1  0  0  0
  1  2  2  0  0  0
  1  3  1  0  0  0
  3  5  1  0  0  0
  5 37  1  0  0  0
 37 38  1  0  0  0
 38 39  1  0  0  0
 38 40  2  0  0  0
  5  6  1  0  0  0
  6  7  2  0  0  0
  6  8  1  0  0  0
  8  9  1  0  0  0
  9 10  1  0  0  0
 10 11  1  0  0  0
 11 12  1  0  0  0
 12 13  1  0  0  0
 13 14  2  0  0  0
 13 15  1  0  0  0
 15 17  1  0  0  0
 17 34  1  0  0  0
 34 35  1  0  0  0
 34 36  1  0  0  0
 17 18  1  0  0  0
 18 19  2  0  0  0
 18 20  1  0  0  0
 20 22  1  0  0  0
 22 27  1  0  0  0
 27 28  1  0  0  0
 28 29  2  0  0  0
 29 30  1  0  0  0
 30 31  2  0  0  0
 31 32  1  0  0  0
 32 33  2  0  0  0
 22 23  1  0  0  0
 23 24  1  0  0  0
 23 25  2  0  0  0
 70 65  1  0  0  0
 60 52  2  0  0  0
 12  8  1  0  0  0
 33 28  1  0  0  0
 59 54  1  0  0  0
 43 46  1  0  0  0
 48 51  1  0  0  0
 53 62  1  0  0  0
 61 63  1  0  0  0
  3  4  1  0  0  0
 39 41  1  0  0  0
 15 16  1  0  0  0
 20 21  1  0  0  0
 24 26  1  0  0  0
M  END
> <minimizedAffinity>
-9.19850

> <CNNscore>
0.0611585006

> <CNNaffinity>
7.2223219872

> <CNN_VS>
0.4417063892

> <CNNaffinity_variance>
0.8071030378

$$$$
[H]OC(=O)C([H])([H])[C@@]([H])(C(=O)N1C([H])([H])C([H])([H])C([H])([H])[C@@]1([H])C(=O)N([H])[C@]([H])(C(=O)N([H])[C@]([H])(C(=O)O[H])C([H])([H])c1c([H])c([H])c([H])c([H])c1[H])C([H])(C([H])([H])[H])C([H])([H])[H])N([H])C(=O)[C@@]([H])(N([H])C(=O)[C@@]([H])(N([H])C(=O)c1c(O[H])c2c([H])c([H])c([H])c([H])c2n1[H])C([H])([H])c1c([H])c([H])c([H])c([H])c1[H])C([H])([H])C([H])(C([H])([H])[H])C([H])([H])[H]


 74 78  0  0  0  0  0  0  0  0999 V2000
  -91.9479   29.5763   -3.9380 C   0  0  0  0  0  0  0  0  0  0  0  0
  -91.6434   29.6356   -5.1782 O   0  0  0  0  0  0  0  0  0  0  0  0
  -92.7981   28.5364   -3.5171 N   0  0  0  0  0  0  0  0  0  0  0  0
  -93.0526   28.4665   -2.5135 H   0  0  0  0  0  0  0  0  0  0  0  0
  -93.3457   27.5378   -4.4196 C   0  0  0  0  0  0  0  0  0  0  0  0
  -94.8294   27.7033   -4.4965 C   0  0  0  0  0  0  0  0  0  0  0  0
  -95.4224   27.9696   -3.4026 O   0  0  0  0  0  0  0  0  0  0  0  0
  -95.5731   27.5815   -5.6927 N   0  0  0  0  0  0  0  0  0  0  0  0
  -97.0110   27.6419   -5.7628 C   0  0  0  0  0  0  0  0  0  0  0  0
  -97.3461   26.8479   -7.0051 C   0  0  0  0  0  0  0  0  0  0  0  0
  -95.9937   26.2994   -7.5055 C   0  0  0  0  0  0  0  0  0  0  0  0
  -95.0733   27.4206   -7.0126 C   0  0  0  0  0  0  0  0  0  0  0  0
  -95.2146   28.6045   -7.9108 C   0  0  0  0  0  0  0  0  0  0  0  0
  -95.4752   28.4748   -9.1141 O   0  0  0  0  0  0  0  0  0  0  0  0
  -95.0351   29.8616   -7.3137 N   0  0  0  0  0  0  0  0  0  0  0  0
  -94.8422   29.9498   -6.3044 H   0  0  0  0  0  0  0  0  0  0  0  0
  -95.1282   31.0739   -8.1010 C   0  0  0  0  0  0  0  0  0  0  0  0
  -94.4750   32.1473   -7.3025 C   0  0  0  0  0  0  0  0  0  0  0  0
  -94.7612   32.2206   -6.0448 O   0  0  0  0  0  0  0  0  0  0  0  0
  -93.5652   33.1079   -7.7671 N   0  0  0  0  0  0  0  0  0  0  0  0
  -93.2548   33.1155   -8.7589 H   0  0  0  0  0  0  0  0  0  0  0  0
  -93.0241   34.1357   -6.8334 C   0  0  0  0  0  0  0  0  0  0  0  0
  -93.0859   35.3966   -7.5453 C   0  0  0  0  0  0  0  0  0  0  0  0
  -93.6351   36.5234   -6.9494 O   0  0  0  0  0  0  0  0  0  0  0  0
  -92.6630   35.5719   -8.7295 O   0  0  0  0  0  0  0  0  0  0  0  0
  -93.4029   37.4657   -7.2482 H   0  0  0  0  0  0  0  0  0  0  0  0
  -91.6065   33.7152   -6.5704 C   0  0  0  0  0  0  0  0  0  0  0  0
  -90.7910   34.6325   -5.7894 C   0  0  0  0  0  0  0  0  0  0  0  0
  -91.2725   35.2808   -4.6469 C   0  0  0  0  0  0  0  0  0  0  0  0
  -90.4996   36.1226   -3.9107 C   0  0  0  0  0  0  0  0  0  0  0  0
  -89.1906   36.3752   -4.2663 C   0  0  0  0  0  0  0  0  0  0  0  0
  -88.6978   35.7359   -5.4015 C   0  0  0  0  0  0  0  0  0  0  0  0
  -89.4860   34.8888   -6.1366 C   0  0  0  0  0  0  0  0  0  0  0  0
  -96.6351   31.3873   -8.1770 C   0  0  0  0  0  0  0  0  0  0  0  0
  -96.9261   32.7433   -8.7140 C   0  0  0  0  0  0  0  0  0  0  0  0
  -97.2974   31.1356   -6.8546 C   0  0  0  0  0  0  0  0  0  0  0  0
  -93.0787   26.1994   -3.7843 C   0  0  0  0  0  0  0  0  0  0  0  0
  -92.5337   26.2561   -2.4290 C   0  0  0  0  0  0  0  0  0  0  0  0
  -93.4330   26.6076   -1.4011 O   0  0  0  0  0  0  0  0  0  0  0  0
  -91.3705   26.0334   -2.0574 O   0  0  0  0  0  0  0  0  0  0  0  0
  -93.1568   27.3690   -0.7941 H   0  0  0  0  0  0  0  0  0  0  0  0
  -91.3990   30.5914   -2.9965 C   0  0  0  0  0  0  0  0  0  0  0  0
  -90.5654   29.9583   -1.9830 N   0  0  0  0  0  0  0  0  0  0  0  0
  -91.1214   29.3574   -0.8300 C   0  0  0  0  0  0  0  0  0  0  0  0
  -92.3741   29.4051   -0.7302 O   0  0  0  0  0  0  0  0  0  0  0  0
  -89.5364   29.9536   -2.0978 H   0  0  0  0  0  0  0  0  0  0  0  0
  -90.2948   28.6952    0.2413 C   0  0  0  0  0  0  0  0  0  0  0  0
  -88.9932   29.2561    0.3084 N   0  0  0  0  0  0  0  0  0  0  0  0
  -87.7592   28.6360    0.5718 C   0  0  0  0  0  0  0  0  0  0  0  0
  -87.6859   27.4142    0.7851 O   0  0  0  0  0  0  0  0  0  0  0  0
  -88.9301   30.3158    0.1374 H   0  0  0  0  0  0  0  0  0  0  0  0
  -86.5179   29.4187    0.6072 C   0  0  0  0  0  0  0  0  0  0  0  0
  -85.3237   28.9582    1.0049 N   0  0  0  0  0  0  0  0  0  0  0  0
  -84.3888   29.9402    0.9040 C   0  0  0  0  0  0  0  0  0  0  0  0
  -83.0563   29.9597    1.1836 C   0  0  0  0  0  0  0  0  0  0  0  0
  -82.3034   31.1043    0.9933 C   0  0  0  0  0  0  0  0  0  0  0  0
  -82.9348   32.2520    0.5058 C   0  0  0  0  0  0  0  0  0  0  0  0
  -84.2927   32.2197    0.2239 C   0  0  0  0  0  0  0  0  0  0  0  0
  -85.0072   31.0734    0.4241 C   0  0  0  0  0  0  0  0  0  0  0  0
  -86.3516   30.7452    0.2355 C   0  0  0  0  0  0  0  0  0  0  0  0
  -87.2745   31.6281   -0.2343 O   0  0  0  0  0  0  0  0  0  0  0  0
  -85.1451   27.9932    1.3399 H   0  0  0  0  0  0  0  0  0  0  0  0
  -88.2374   31.4660   -0.3953 H   0  0  0  0  0  0  0  0  0  0  0  0
  -91.0921   28.7107    1.4990 C   0  0  0  0  0  0  0  0  0  0  0  0
  -90.7274   27.7240    2.5272 C   0  0  0  0  0  0  0  0  0  0  0  0
  -90.5508   28.1137    3.8258 C   0  0  0  0  0  0  0  0  0  0  0  0
  -90.2084   27.1861    4.8057 C   0  0  0  0  0  0  0  0  0  0  0  0
  -90.0495   25.8663    4.4637 C   0  0  0  0  0  0  0  0  0  0  0  0
  -90.2236   25.4478    3.1599 C   0  0  0  0  0  0  0  0  0  0  0  0
  -90.5574   26.3823    2.2228 C   0  0  0  0  0  0  0  0  0  0  0  0
  -90.4622   31.4851   -3.8084 C   0  0  0  0  0  0  0  0  0  0  0  0
  -88.0613   31.7212   -4.1812 C   0  0  0  0  0  0  0  0  0  0  0  0
  -89.1453   31.7201   -3.0990 C   0  0  0  0  0  0  0  0  0  0  0  0
  -89.1091   33.1420   -2.5255 C   0  0  0  0  0  0  0  0  0  0  0  0
 72 73  1  0  0  0
 73 74  1  0  0  0
 73 71  1  0  0  0
 71 42  1  0  0  0
 42 43  1  0  0  0
 43 44  1  0  0  0
 44 45  2  0  0  0
 44 47  1  0  0  0
 47 64  1  0  0  0
 64 65  1  0  0  0
 65 66  2  0  0  0
 66 67  1  0  0  0
 67 68  2  0  0  0
 68 69  1  0  0  0
 69 70  2  0  0  0
 47 48  1  0  0  0
 48 49  1  0  0  0
 49 50  2  0  0  0
 49 52  1  0  0  0
 52 53  1  0  0  0
 53 54  1  0  0  0
 54 55  2  0  0  0
 55 56  1  0  0  0
 56 57  2  0  0  0
 57 58  1  0  0  0
 58 59  2  0  0  0
 59 60  1  0  0  0
 60 61  1  0  0  0
 42  1  1  0  0  0
  1  2  2  0  0  0
  1  3  1  0  0  0
  3  5  1  0  0  0
  5 37  1  0  0  0
 37 38  1  0  0  0
 38 39  1  0  0  0
 38 40  2  0  0  0
  5  6  1  0  0  0
  6  7  2  0  0  0
  6  8  1  0  0  0
  8  9  1  0  0  0
  9 10  1  0  0  0
 10 11  1  0  0  0
 11 12  1  0  0  0
 12 13  1  0  0  0
 13 14  2  0  0  0
 13 15  1  0  0  0
 15 17  1  0  0  0
 17 34  1  0  0  0
 34 35  1  0  0  0
 34 36  1  0  0  0
 17 18  1  0  0  0
 18 19  2  0  0  0
 18 20  1  0  0  0
 20 22  1  0  0  0
 22 27  1  0  0  0
 27 28  1  0  0  0
 28 29  2  0  0  0
 29 30  1  0  0  0
 30 31  2  0  0  0
 31 32  1  0  0  0
 32 33  2  0  0  0
 22 23  1  0  0  0
 23 24  1  0  0  0
 23 25  2  0  0  0
 70 65  1  0  0  0
 60 52  2  0  0  0
 12  8  1  0  0  0
 33 28  1  0  0  0
 59 54  1  0  0  0
 43 46  1  0  0  0
 48 51  1  0  0  0
 53 62  1  0  0  0
 61 63  1  0  0  0
  3  4  1  0  0  0
 39 41  1  0  0  0
 15 16  1  0  0  0
 20 21  1  0  0  0
 24 26  1  0  0  0
M  END
> <minimizedAffinity>
-8.50620

> <CNNscore>
0.0567583069

> <CNNaffinity>
7.0767021179

> <CNN_VS>
0.4016616344

> <CNNaffinity_variance>
0.5768932104

$$$$
[H]OC(=O)C([H])([H])[C@@]([H])(C(=O)N1C([H])([H])C([H])([H])C([H])([H])[C@@]1([H])C(=O)N([H])[C@]([H])(C(=O)N([H])[C@]([H])(C(=O)O[H])C([H])([H])c1c([H])c([H])c([H])c([H])c1[H])C([H])(C([H])([H])[H])C([H])([H])[H])N([H])C(=O)[C@@]([H])(N([H])C(=O)[C@@]([H])(N([H])C(=O)c1c(O[H])c2c([H])c([H])c([H])c([H])c2n1[H])C([H])([H])c1c([H])c([H])c([H])c([H])c1[H])C([H])([H])C([H])(C([H])([H])[H])C([H])([H])[H]


 74 78  0  0  0  0  0  0  0  0999 V2000
  -91.9848   29.3150   -4.0678 C   0  0  0  0  0  0  0  0  0  0  0  0
  -91.6695   29.3476   -5.3063 O   0  0  0  0  0  0  0  0  0  0  0  0
  -92.7699   28.2377   -3.6157 N   0  0  0  0  0  0  0  0  0  0  0  0
  -93.0317   28.1890   -2.6128 H   0  0  0  0  0  0  0  0  0  0  0  0
  -93.2392   27.1717   -4.4845 C   0  0  0  0  0  0  0  0  0  0  0  0
  -94.6186   26.7701   -4.0715 C   0  0  0  0  0  0  0  0  0  0  0  0
  -94.8814   26.8591   -2.8296 O   0  0  0  0  0  0  0  0  0  0  0  0
  -95.6075   26.3133   -4.9727 N   0  0  0  0  0  0  0  0  0  0  0  0
  -96.9061   25.8317   -4.5753 C   0  0  0  0  0  0  0  0  0  0  0  0
  -97.3056   24.9007   -5.6977 C   0  0  0  0  0  0  0  0  0  0  0  0
  -96.0853   24.8658   -6.6411 C   0  0  0  0  0  0  0  0  0  0  0  0
  -95.5375   26.2745   -6.3910 C   0  0  0  0  0  0  0  0  0  0  0  0
  -96.3867   27.2683   -7.1118 C   0  0  0  0  0  0  0  0  0  0  0  0
  -96.7138   27.1014   -8.2941 O   0  0  0  0  0  0  0  0  0  0  0  0
  -96.7873   28.3931   -6.3745 N   0  0  0  0  0  0  0  0  0  0  0  0
  -96.5244   28.5022   -5.3833 H   0  0  0  0  0  0  0  0  0  0  0  0
  -97.5942   29.4288   -6.9865 C   0  0  0  0  0  0  0  0  0  0  0  0
  -96.7166   30.6239   -7.1204 C   0  0  0  0  0  0  0  0  0  0  0  0
  -96.0321   30.9869   -6.0866 O   0  0  0  0  0  0  0  0  0  0  0  0
  -96.5426   31.4177   -8.2633 N   0  0  0  0  0  0  0  0  0  0  0  0
  -97.0324   31.1916   -9.1516 H   0  0  0  0  0  0  0  0  0  0  0  0
  -95.6407   32.6032   -8.2177 C   0  0  0  0  0  0  0  0  0  0  0  0
  -96.4992   33.7651   -8.3329 C   0  0  0  0  0  0  0  0  0  0  0  0
  -97.5121   33.8096   -9.2806 O   0  0  0  0  0  0  0  0  0  0  0  0
  -96.4010   34.8028   -7.6080 O   0  0  0  0  0  0  0  0  0  0  0  0
  -98.3227   34.4135   -9.1839 H   0  0  0  0  0  0  0  0  0  0  0  0
  -94.7426   32.4555   -9.4124 C   0  0  0  0  0  0  0  0  0  0  0  0
  -93.4671   33.1528   -9.3566 C   0  0  0  0  0  0  0  0  0  0  0  0
  -92.8634   33.5211   -8.1494 C   0  0  0  0  0  0  0  0  0  0  0  0
  -91.6623   34.1562   -8.1032 C   0  0  0  0  0  0  0  0  0  0  0  0
  -90.9811   34.4679   -9.2620 C   0  0  0  0  0  0  0  0  0  0  0  0
  -91.5705   34.1066  -10.4713 C   0  0  0  0  0  0  0  0  0  0  0  0
  -92.7820   33.4662  -10.5062 C   0  0  0  0  0  0  0  0  0  0  0  0
  -98.6848   29.7534   -5.9472 C   0  0  0  0  0  0  0  0  0  0  0  0
  -99.3602   28.5432   -5.4078 C   0  0  0  0  0  0  0  0  0  0  0  0
  -99.6538   30.7613   -6.4911 C   0  0  0  0  0  0  0  0  0  0  0  0
  -92.3377   25.9922   -4.2343 C   0  0  0  0  0  0  0  0  0  0  0  0
  -91.4178   26.1451   -3.1086 C   0  0  0  0  0  0  0  0  0  0  0  0
  -90.1443   26.6755   -3.4014 O   0  0  0  0  0  0  0  0  0  0  0  0
  -91.6102   25.8669   -1.9143 O   0  0  0  0  0  0  0  0  0  0  0  0
  -89.3444   26.1450   -3.0802 H   0  0  0  0  0  0  0  0  0  0  0  0
  -91.5158   30.3992   -3.1607 C   0  0  0  0  0  0  0  0  0  0  0  0
  -90.6555   29.8613   -2.1149 N   0  0  0  0  0  0  0  0  0  0  0  0
  -91.1844   29.3153   -0.9225 C   0  0  0  0  0  0  0  0  0  0  0  0
  -92.4376   29.3248   -0.8174 O   0  0  0  0  0  0  0  0  0  0  0  0
  -89.6276   29.8858   -2.2362 H   0  0  0  0  0  0  0  0  0  0  0  0
  -90.3298   28.7518    0.1827 C   0  0  0  0  0  0  0  0  0  0  0  0
  -89.0460   29.3558    0.2004 N   0  0  0  0  0  0  0  0  0  0  0  0
  -87.7781   28.7687    0.3567 C   0  0  0  0  0  0  0  0  0  0  0  0
  -87.6510   27.5414    0.5018 O   0  0  0  0  0  0  0  0  0  0  0  0
  -89.0290   30.4242    0.0808 H   0  0  0  0  0  0  0  0  0  0  0  0
  -86.5637   29.5935    0.3578 C   0  0  0  0  0  0  0  0  0  0  0  0
  -86.4582   30.8161   -0.1811 N   0  0  0  0  0  0  0  0  0  0  0  0
  -85.2010   31.2996    0.0039 C   0  0  0  0  0  0  0  0  0  0  0  0
  -84.6167   32.4757   -0.3558 C   0  0  0  0  0  0  0  0  0  0  0  0
  -83.2947   32.7404   -0.0464 C   0  0  0  0  0  0  0  0  0  0  0  0
  -82.5594   31.7749    0.6470 C   0  0  0  0  0  0  0  0  0  0  0  0
  -83.1658   30.5808    1.0087 C   0  0  0  0  0  0  0  0  0  0  0  0
  -84.4728   30.3507    0.6867 C   0  0  0  0  0  0  0  0  0  0  0  0
  -85.3325   29.2731    0.9115 C   0  0  0  0  0  0  0  0  0  0  0  0
  -84.9530   28.1424    1.5668 O   0  0  0  0  0  0  0  0  0  0  0  0
  -87.2263   31.3150   -0.6672 H   0  0  0  0  0  0  0  0  0  0  0  0
  -85.5052   27.3452    1.7642 H   0  0  0  0  0  0  0  0  0  0  0  0
  -91.1181   28.8266    1.4438 C   0  0  0  0  0  0  0  0  0  0  0  0
  -90.7424   27.8931    2.5168 C   0  0  0  0  0  0  0  0  0  0  0  0
  -90.6244   28.3344    3.8055 C   0  0  0  0  0  0  0  0  0  0  0  0
  -90.2721   27.4571    4.8274 C   0  0  0  0  0  0  0  0  0  0  0  0
  -90.0438   26.1351    4.5372 C   0  0  0  0  0  0  0  0  0  0  0  0
  -90.1578   25.6651    3.2443 C   0  0  0  0  0  0  0  0  0  0  0  0
  -90.5032   26.5510    2.2652 C   0  0  0  0  0  0  0  0  0  0  0  0
  -90.6294   31.3213   -3.9968 C   0  0  0  0  0  0  0  0  0  0  0  0
  -92.7813   32.4733   -4.0318 C   0  0  0  0  0  0  0  0  0  0  0  0
  -91.4389   32.3493   -4.7590 C   0  0  0  0  0  0  0  0  0  0  0  0
  -90.7972   33.7340   -4.6077 C   0  0  0  0  0  0  0  0  0  0  0  0
 72 73  1  0  0  0
 73 74  1  0  0  0
 73 71  1  0  0  0
 71 42  1  0  0  0
 42 43  1  0  0  0
 43 44  1  0  0  0
 44 45  2  0  0  0
 44 47  1  0  0  0
 47 64  1  0  0  0
 64 65  1  0  0  0
 65 66  2  0  0  0
 66 67  1  0  0  0
 67 68  2  0  0  0
 68 69  1  0  0  0
 69 70  2  0  0  0
 47 48  1  0  0  0
 48 49  1  0  0  0
 49 50  2  0  0  0
 49 52  1  0  0  0
 52 53  1  0  0  0
 53 54  1  0  0  0
 54 55  2  0  0  0
 55 56  1  0  0  0
 56 57  2  0  0  0
 57 58  1  0  0  0
 58 59  2  0  0  0
 59 60  1  0  0  0
 60 61  1  0  0  0
 42  1  1  0  0  0
  1  2  2  0  0  0
  1  3  1  0  0  0
  3  5  1  0  0  0
  5 37  1  0  0  0
 37 38  1  0  0  0
 38 39  1  0  0  0
 38 40  2  0  0  0
  5  6  1  0  0  0
  6  7  2  0  0  0
  6  8  1  0  0  0
  8  9  1  0  0  0
  9 10  1  0  0  0
 10 11  1  0  0  0
 11 12  1  0  0  0
 12 13  1  0  0  0
 13 14  2  0  0  0
 13 15  1  0  0  0
 15 17  1  0  0  0
 17 34  1  0  0  0
 34 35  1  0  0  0
 34 36  1  0  0  0
 17 18  1  0  0  0
 18 19  2  0  0  0
 18 20  1  0  0  0
 20 22  1  0  0  0
 22 27  1  0  0  0
 27 28  1  0  0  0
 28 29  2  0  0  0
 29 30  1  0  0  0
 30 31  2  0  0  0
 31 32  1  0  0  0
 32 33  2  0  0  0
 22 23  1  0  0  0
 23 24  1  0  0  0
 23 25  2  0  0  0
 70 65  1  0  0  0
 60 52  2  0  0  0
 12  8  1  0  0  0
 33 28  1  0  0  0
 59 54  1  0  0  0
 43 46  1  0  0  0
 48 51  1  0  0  0
 53 62  1  0  0  0
 61 63  1  0  0  0
  3  4  1  0  0  0
 39 41  1  0  0  0
 15 16  1  0  0  0
 20 21  1  0  0  0
 24 26  1  0  0  0
M  END
> <minimizedAffinity>
-8.19482

> <CNNscore>
0.0536048524

> <CNNaffinity>
6.7049980164

> <CNN_VS>
0.3594204187

> <CNNaffinity_variance>
0.5576630235

$$$$
[H]OC(=O)C([H])([H])[C@@]([H])(C(=O)N1C([H])([H])C([H])([H])C([H])([H])[C@@]1([H])C(=O)N([H])[C@]([H])(C(=O)N([H])[C@]([H])(C(=O)O[H])C([H])([H])c1c([H])c([H])c([H])c([H])c1[H])C([H])(C([H])([H])[H])C([H])([H])[H])N([H])C(=O)[C@@]([H])(N([H])C(=O)[C@@]([H])(N([H])C(=O)c1c(O[H])c2c([H])c([H])c([H])c([H])c2n1[H])C([H])([H])c1c([H])c([H])c([H])c([H])c1[H])C([H])([H])C([H])(C([H])([H])[H])C([H])([H])[H]


 74 78  0  0  0  0  0  0  0  0999 V2000
  -88.6234   35.2282   -3.3937 C   0  0  0  0  0  0  0  0  0  0  0  0
  -87.5305   35.0949   -2.7440 O   0  0  0  0  0  0  0  0  0  0  0  0
  -89.3634   34.0665   -3.6841 N   0  0  0  0  0  0  0  0  0  0  0  0
  -90.2566   34.1533   -4.2051 H   0  0  0  0  0  0  0  0  0  0  0  0
  -88.9445   32.7329   -3.2873 C   0  0  0  0  0  0  0  0  0  0  0  0
  -89.6155   31.7243   -4.1632 C   0  0  0  0  0  0  0  0  0  0  0  0
  -89.1037   31.5519   -5.3154 O   0  0  0  0  0  0  0  0  0  0  0  0
  -90.7537   30.9803   -3.7764 N   0  0  0  0  0  0  0  0  0  0  0  0
  -91.4664   30.0785   -4.6454 C   0  0  0  0  0  0  0  0  0  0  0  0
  -92.8655   30.0546   -4.0727 C   0  0  0  0  0  0  0  0  0  0  0  0
  -92.8416   31.0766   -2.9172 C   0  0  0  0  0  0  0  0  0  0  0  0
  -91.3738   30.9444   -2.4988 C   0  0  0  0  0  0  0  0  0  0  0  0
  -91.1944   29.6813   -1.7237 C   0  0  0  0  0  0  0  0  0  0  0  0
  -92.0367   29.3050   -0.8982 O   0  0  0  0  0  0  0  0  0  0  0  0
  -90.0234   28.9536   -1.9852 N   0  0  0  0  0  0  0  0  0  0  0  0
  -89.3453   29.2714   -2.6942 H   0  0  0  0  0  0  0  0  0  0  0  0
  -89.7415   27.7254   -1.2708 C   0  0  0  0  0  0  0  0  0  0  0  0
  -88.3330   27.8251   -0.7989 C   0  0  0  0  0  0  0  0  0  0  0  0
  -87.3940   27.7134   -1.6792 O   0  0  0  0  0  0  0  0  0  0  0  0
  -87.8983   28.0314    0.5183 N   0  0  0  0  0  0  0  0  0  0  0  0
  -88.5794   28.1569    1.2932 H   0  0  0  0  0  0  0  0  0  0  0  0
  -86.4404   28.0783    0.8238 C   0  0  0  0  0  0  0  0  0  0  0  0
  -86.1900   26.9939    1.7521 C   0  0  0  0  0  0  0  0  0  0  0  0
  -84.9032   26.7175    2.1924 O   0  0  0  0  0  0  0  0  0  0  0  0
  -87.0898   26.2311    2.2217 O   0  0  0  0  0  0  0  0  0  0  0  0
  -84.7184   26.2253    3.0611 H   0  0  0  0  0  0  0  0  0  0  0  0
  -86.2194   29.4191    1.4633 C   0  0  0  0  0  0  0  0  0  0  0  0
  -84.9718   30.0945    1.1417 C   0  0  0  0  0  0  0  0  0  0  0  0
  -84.9061   31.1662    0.2446 C   0  0  0  0  0  0  0  0  0  0  0  0
  -83.7400   31.8053   -0.0378 C   0  0  0  0  0  0  0  0  0  0  0  0
  -82.5574   31.4165    0.5574 C   0  0  0  0  0  0  0  0  0  0  0  0
  -82.6081   30.3511    1.4532 C   0  0  0  0  0  0  0  0  0  0  0  0
  -83.7897   29.7138    1.7308 C   0  0  0  0  0  0  0  0  0  0  0  0
  -89.8083   26.6166   -2.3388 C   0  0  0  0  0  0  0  0  0  0  0  0
  -91.0242   26.6952   -3.1913 C   0  0  0  0  0  0  0  0  0  0  0  0
  -89.6282   25.2649   -1.7131 C   0  0  0  0  0  0  0  0  0  0  0  0
  -89.4618   32.5237   -1.8891 C   0  0  0  0  0  0  0  0  0  0  0  0
  -88.4446   32.1727   -0.8997 C   0  0  0  0  0  0  0  0  0  0  0  0
  -87.4901   33.1655   -0.5959 O   0  0  0  0  0  0  0  0  0  0  0  0
  -88.3070   31.1040   -0.2834 O   0  0  0  0  0  0  0  0  0  0  0  0
  -86.5164   32.8982   -0.6647 H   0  0  0  0  0  0  0  0  0  0  0  0
  -89.0697   36.5863   -3.8116 C   0  0  0  0  0  0  0  0  0  0  0  0
  -87.9985   37.2917   -4.5031 N   0  0  0  0  0  0  0  0  0  0  0  0
  -87.3472   38.4067   -3.9266 C   0  0  0  0  0  0  0  0  0  0  0  0
  -87.7488   38.7541   -2.7866 O   0  0  0  0  0  0  0  0  0  0  0  0
  -87.7080   36.9807   -5.4469 H   0  0  0  0  0  0  0  0  0  0  0  0
  -86.2381   39.1641   -4.6089 C   0  0  0  0  0  0  0  0  0  0  0  0
  -86.5777   39.4781   -5.9503 N   0  0  0  0  0  0  0  0  0  0  0  0
  -86.5740   38.6603   -7.0939 C   0  0  0  0  0  0  0  0  0  0  0  0
  -86.2464   37.4637   -7.0279 O   0  0  0  0  0  0  0  0  0  0  0  0
  -86.8815   40.4935   -6.1314 H   0  0  0  0  0  0  0  0  0  0  0  0
  -86.9543   39.2007   -8.4047 C   0  0  0  0  0  0  0  0  0  0  0  0
  -86.9543   38.5128   -9.5550 N   0  0  0  0  0  0  0  0  0  0  0  0
  -87.3683   39.3109  -10.5748 C   0  0  0  0  0  0  0  0  0  0  0  0
  -87.5331   39.0744  -11.9056 C   0  0  0  0  0  0  0  0  0  0  0  0
  -87.9761   40.0693  -12.7584 C   0  0  0  0  0  0  0  0  0  0  0  0
  -88.2547   41.3333  -12.2307 C   0  0  0  0  0  0  0  0  0  0  0  0
  -88.0835   41.5620  -10.8732 C   0  0  0  0  0  0  0  0  0  0  0  0
  -87.6435   40.5579  -10.0590 C   0  0  0  0  0  0  0  0  0  0  0  0
  -87.3832   40.4894   -8.6885 C   0  0  0  0  0  0  0  0  0  0  0  0
  -87.5463   41.5458   -7.8462 O   0  0  0  0  0  0  0  0  0  0  0  0
  -86.6775   37.5177   -9.6475 H   0  0  0  0  0  0  0  0  0  0  0  0
  -87.3857   41.5696   -6.8700 H   0  0  0  0  0  0  0  0  0  0  0  0
  -85.8677   40.3082   -3.7307 C   0  0  0  0  0  0  0  0  0  0  0  0
  -84.4452   40.6808   -3.6919 C   0  0  0  0  0  0  0  0  0  0  0  0
  -84.0211   41.7023   -2.8882 C   0  0  0  0  0  0  0  0  0  0  0  0
  -82.6763   42.0596   -2.8432 C   0  0  0  0  0  0  0  0  0  0  0  0
  -81.7674   41.3766   -3.6123 C   0  0  0  0  0  0  0  0  0  0  0  0
  -82.1707   40.3407   -4.4308 C   0  0  0  0  0  0  0  0  0  0  0  0
  -83.4962   40.0163   -4.4532 C   0  0  0  0  0  0  0  0  0  0  0  0
  -90.1753   36.3880   -4.8478 C   0  0  0  0  0  0  0  0  0  0  0  0
  -90.0266   35.5808   -7.1468 C   0  0  0  0  0  0  0  0  0  0  0  0
  -89.7252   36.7780   -6.2400 C   0  0  0  0  0  0  0  0  0  0  0  0
  -90.6212   37.8983   -6.7822 C   0  0  0  0  0  0  0  0  0  0  0  0
 72 73  1  0  0  0
 73 74  1  0  0  0
 73 71  1  0  0  0
 71 42  1  0  0  0
 42 43  1  0  0  0
 43 44  1  0  0  0
 44 45  2  0  0  0
 44 47  1  0  0  0
 47 64  1  0  0  0
 64 65  1  0  0  0
 65 66  2  0  0  0
 66 67  1  0  0  0
 67 68  2  0  0  0
 68 69  1  0  0  0
 69 70  2  0  0  0
 47 48  1  0  0  0
 48 49  1  0  0  0
 49 50  2  0  0  0
 49 52  1  0  0  0
 52 53  1  0  0  0
 53 54  1  0  0  0
 54 55  2  0  0  0
 55 56  1  0  0  0
 56 57  2  0  0  0
 57 58  1  0  0  0
 58 59  2  0  0  0
 59 60  1  0  0  0
 60 61  1  0  0  0
 42  1  1  0  0  0
  1  2  2  0  0  0
  1  3  1  0  0  0
  3  5  1  0  0  0
  5 37  1  0  0  0
 37 38  1  0  0  0
 38 39  1  0  0  0
 38 40  2  0  0  0
  5  6  1  0  0  0
  6  7  2  0  0  0
  6  8  1  0  0  0
  8  9  1  0  0  0
  9 10  1  0  0  0
 10 11  1  0  0  0
 11 12  1  0  0  0
 12 13  1  0  0  0
 13 14  2  0  0  0
 13 15  1  0  0  0
 15 17  1  0  0  0
 17 34  1  0  0  0
 34 35  1  0  0  0
 34 36  1  0  0  0
 17 18  1  0  0  0
 18 19  2  0  0  0
 18 20  1  0  0  0
 20 22  1  0  0  0
 22 27  1  0  0  0
 27 28  1  0  0  0
 28 29  2  0  0  0
 29 30  1  0  0  0
 30 31  2  0  0  0
 31 32  1  0  0  0
 32 33  2  0  0  0
 22 23  1  0  0  0
 23 24  1  0  0  0
 23 25  2  0  0  0
 70 65  1  0  0  0
 60 52  2  0  0  0
 12  8  1  0  0  0
 33 28  1  0  0  0
 59 54  1  0  0  0
 43 46  1  0  0  0
 48 51  1  0  0  0
 53 62  1  0  0  0
 61 63  1  0  0  0
  3  4  1  0  0  0
 39 41  1  0  0  0
 15 16  1  0  0  0
 20 21  1  0  0  0
 24 26  1  0  0  0
M  END
> <minimizedAffinity>
-8.90564

> <CNNscore>
0.0516545326

> <CNNaffinity>
6.8190469742

> <CNN_VS>
0.3522346914

> <CNNaffinity_variance>
0.9323170781

$$$$
[H]OC(=O)C([H])([H])[C@@]([H])(C(=O)N1C([H])([H])C([H])([H])C([H])([H])[C@@]1([H])C(=O)N([H])[C@]([H])(C(=O)N([H])[C@]([H])(C(=O)O[H])C([H])([H])c1c([H])c([H])c([H])c([H])c1[H])C([H])(C([H])([H])[H])C([H])([H])[H])N([H])C(=O)[C@@]([H])(N([H])C(=O)[C@@]([H])(N([H])C(=O)c1c(O[H])c2c([H])c([H])c([H])c([H])c2n1[H])C([H])([H])c1c([H])c([H])c([H])c([H])c1[H])C([H])([H])C([H])(C([H])([H])[H])C([H])([H])[H]


 74 78  0  0  0  0  0  0  0  0999 V2000
  -91.6772   28.7406   -3.5939 C   0  0  0  0  0  0  0  0  0  0  0  0
  -91.9580   28.0655   -4.6427 O   0  0  0  0  0  0  0  0  0  0  0  0
  -91.0940   28.0600   -2.5086 N   0  0  0  0  0  0  0  0  0  0  0  0
  -90.8526   28.5905   -1.6501 H   0  0  0  0  0  0  0  0  0  0  0  0
  -90.8027   26.6364   -2.5221 C   0  0  0  0  0  0  0  0  0  0  0  0
  -91.7417   25.9321   -1.5964 C   0  0  0  0  0  0  0  0  0  0  0  0
  -91.8635   26.4320   -0.4326 O   0  0  0  0  0  0  0  0  0  0  0  0
  -92.4741   24.7756   -1.9496 N   0  0  0  0  0  0  0  0  0  0  0  0
  -93.3057   24.0327   -1.0370 C   0  0  0  0  0  0  0  0  0  0  0  0
  -93.3227   22.6369   -1.6179 C   0  0  0  0  0  0  0  0  0  0  0  0
  -92.3680   22.6963   -2.8283 C   0  0  0  0  0  0  0  0  0  0  0  0
  -92.5642   24.1623   -3.2278 C   0  0  0  0  0  0  0  0  0  0  0  0
  -93.8731   24.3105   -3.9299 C   0  0  0  0  0  0  0  0  0  0  0  0
  -94.6575   25.2257   -3.6474 O   0  0  0  0  0  0  0  0  0  0  0  0
  -94.1577   23.3579   -4.9201 N   0  0  0  0  0  0  0  0  0  0  0  0
  -93.4806   22.6171   -5.1576 H   0  0  0  0  0  0  0  0  0  0  0  0
  -95.4108   23.3977   -5.6456 C   0  0  0  0  0  0  0  0  0  0  0  0
  -95.7263   21.9921   -6.0212 C   0  0  0  0  0  0  0  0  0  0  0  0
  -96.9106   21.7408   -6.4721 O   0  0  0  0  0  0  0  0  0  0  0  0
  -94.8683   20.8858   -5.9412 N   0  0  0  0  0  0  0  0  0  0  0  0
  -93.8878   20.9915   -5.6130 H   0  0  0  0  0  0  0  0  0  0  0  0
  -95.3562   19.5336   -6.3343 C   0  0  0  0  0  0  0  0  0  0  0  0
  -95.6247   18.8286   -5.0969 C   0  0  0  0  0  0  0  0  0  0  0  0
  -95.5572   17.4436   -5.0385 O   0  0  0  0  0  0  0  0  0  0  0  0
  -95.9358   19.3941   -4.0035 O   0  0  0  0  0  0  0  0  0  0  0  0
  -95.4000   16.9418   -4.1698 H   0  0  0  0  0  0  0  0  0  0  0  0
  -94.2168   18.9132   -7.0910 C   0  0  0  0  0  0  0  0  0  0  0  0
  -94.0886   19.2844   -8.4917 C   0  0  0  0  0  0  0  0  0  0  0  0
  -95.1936   19.5935   -9.2922 C   0  0  0  0  0  0  0  0  0  0  0  0
  -95.0659   19.9577  -10.5957 C   0  0  0  0  0  0  0  0  0  0  0  0
  -93.8231   20.0378  -11.1899 C   0  0  0  0  0  0  0  0  0  0  0  0
  -92.7139   19.7332  -10.4044 C   0  0  0  0  0  0  0  0  0  0  0  0
  -92.8543   19.3672   -9.0908 C   0  0  0  0  0  0  0  0  0  0  0  0
  -95.1006   24.1774   -6.9382 C   0  0  0  0  0  0  0  0  0  0  0  0
  -96.1492   25.1716   -7.2898 C   0  0  0  0  0  0  0  0  0  0  0  0
  -94.7957   23.2363   -8.0660 C   0  0  0  0  0  0  0  0  0  0  0  0
  -89.4170   26.4812   -1.9546 C   0  0  0  0  0  0  0  0  0  0  0  0
  -88.6312   27.7125   -1.8968 C   0  0  0  0  0  0  0  0  0  0  0  0
  -87.9990   28.1148   -3.0916 O   0  0  0  0  0  0  0  0  0  0  0  0
  -88.4437   28.4607   -0.9243 O   0  0  0  0  0  0  0  0  0  0  0  0
  -87.0060   28.3041   -3.0407 H   0  0  0  0  0  0  0  0  0  0  0  0
  -91.9698   30.2004   -3.5588 C   0  0  0  0  0  0  0  0  0  0  0  0
  -90.7362   30.9728   -3.4905 N   0  0  0  0  0  0  0  0  0  0  0  0
  -90.1452   31.3252   -2.2550 C   0  0  0  0  0  0  0  0  0  0  0  0
  -90.7481   30.9365   -1.2220 O   0  0  0  0  0  0  0  0  0  0  0  0
  -90.2797   31.2848   -4.3658 H   0  0  0  0  0  0  0  0  0  0  0  0
  -88.8730   32.1239   -2.1415 C   0  0  0  0  0  0  0  0  0  0  0  0
  -87.9072   31.4455   -1.3538 N   0  0  0  0  0  0  0  0  0  0  0  0
  -86.8083   31.9565   -0.6412 C   0  0  0  0  0  0  0  0  0  0  0  0
  -86.5598   33.1737   -0.6282 O   0  0  0  0  0  0  0  0  0  0  0  0
  -88.0216   30.3783   -1.2885 H   0  0  0  0  0  0  0  0  0  0  0  0
  -85.9168   31.0618    0.1070 C   0  0  0  0  0  0  0  0  0  0  0  0
  -86.2825   29.9062    0.6792 N   0  0  0  0  0  0  0  0  0  0  0  0
  -85.2111   29.3256    1.2819 C   0  0  0  0  0  0  0  0  0  0  0  0
  -85.0794   28.1649    1.9815 C   0  0  0  0  0  0  0  0  0  0  0  0
  -83.8585   27.7825    2.5074 C   0  0  0  0  0  0  0  0  0  0  0  0
  -82.7510   28.6117    2.3095 C   0  0  0  0  0  0  0  0  0  0  0  0
  -82.8973   29.7915    1.5945 C   0  0  0  0  0  0  0  0  0  0  0  0
  -84.1172   30.1401    1.0895 C   0  0  0  0  0  0  0  0  0  0  0  0
  -84.5614   31.2365    0.3470 C   0  0  0  0  0  0  0  0  0  0  0  0
  -83.7456   32.2566   -0.0349 O   0  0  0  0  0  0  0  0  0  0  0  0
  -87.2436   29.5173    0.6617 H   0  0  0  0  0  0  0  0  0  0  0  0
  -83.9883   33.0587   -0.5613 H   0  0  0  0  0  0  0  0  0  0  0  0
  -88.4580   32.5076   -3.5191 C   0  0  0  0  0  0  0  0  0  0  0  0
  -88.4437   33.9452   -3.8309 C   0  0  0  0  0  0  0  0  0  0  0  0
  -89.3474   34.7874   -3.2450 C   0  0  0  0  0  0  0  0  0  0  0  0
  -89.3391   36.1495   -3.5322 C   0  0  0  0  0  0  0  0  0  0  0  0
  -88.4117   36.6513   -4.4109 C   0  0  0  0  0  0  0  0  0  0  0  0
  -87.4882   35.8217   -5.0144 C   0  0  0  0  0  0  0  0  0  0  0  0
  -87.5239   34.4911   -4.7128 C   0  0  0  0  0  0  0  0  0  0  0  0
  -92.6099   30.5545   -4.9005 C   0  0  0  0  0  0  0  0  0  0  0  0
  -93.4099   32.2677   -6.4446 C   0  0  0  0  0  0  0  0  0  0  0  0
  -92.8896   32.0377   -5.0223 C   0  0  0  0  0  0  0  0  0  0  0  0
  -94.0699   32.4208   -4.1211 C   0  0  0  0  0  0  0  0  0  0  0  0
 72 73  1  0  0  0
 73 74  1  0  0  0
 73 71  1  0  0  0
 71 42  1  0  0  0
 42 43  1  0  0  0
 43 44  1  0  0  0
 44 45  2  0  0  0
 44 47  1  0  0  0
 47 64  1  0  0  0
 64 65  1  0  0  0
 65 66  2  0  0  0
 66 67  1  0  0  0
 67 68  2  0  0  0
 68 69  1  0  0  0
 69 70  2  0  0  0
 47 48  1  0  0  0
 48 49  1  0  0  0
 49 50  2  0  0  0
 49 52  1  0  0  0
 52 53  1  0  0  0
 53 54  1  0  0  0
 54 55  2  0  0  0
 55 56  1  0  0  0
 56 57  2  0  0  0
 57 58  1  0  0  0
 58 59  2  0  0  0
 59 60  1  0  0  0
 60 61  1  0  0  0
 42  1  1  0  0  0
  1  2  2  0  0  0
  1  3  1  0  0  0
  3  5  1  0  0  0
  5 37  1  0  0  0
 37 38  1  0  0  0
 38 39  1  0  0  0
 38 40  2  0  0  0
  5  6  1  0  0  0
  6  7  2  0  0  0
  6  8  1  0  0  0
  8  9  1  0  0  0
  9 10  1  0  0  0
 10 11  1  0  0  0
 11 12  1  0  0  0
 12 13  1  0  0  0
 13 14  2  0  0  0
 13 15  1  0  0  0
 15 17  1  0  0  0
 17 34  1  0  0  0
 34 35  1  0  0  0
 34 36  1  0  0  0
 17 18  1  0  0  0
 18 19  2  0  0  0
 18 20  1  0  0  0
 20 22  1  0  0  0
 22 27  1  0  0  0
 27 28  1  0  0  0
 28 29  2  0  0  0
 29 30  1  0  0  0
 30 31  2  0  0  0
 31 32  1  0  0  0
 32 33  2  0  0  0
 22 23  1  0  0  0
 23 24  1  0  0  0
 23 25  2  0  0  0
 70 65  1  0  0  0
 60 52  2  0  0  0
 12  8  1  0  0  0
 33 28  1  0  0  0
 59 54  1  0  0  0
 43 46  1  0  0  0
 48 51  1  0  0  0
 53 62  1  0  0  0
 61 63  1  0  0  0
  3  4  1  0  0  0
 39 41  1  0  0  0
 15 16  1  0  0  0
 20 21  1  0  0  0
 24 26  1  0  0  0
M  END
> <minimizedAffinity>
-9.37433

> <CNNscore>
0.0479016751

> <CNNaffinity>
6.6191229820

> <CNN_VS>
0.3170670867

> <CNNaffinity_variance>
0.4929375052

$$$$
[H]OC(=O)C([H])([H])[C@@]([H])(C(=O)N1C([H])([H])C([H])([H])C([H])([H])[C@@]1([H])C(=O)N([H])[C@]([H])(C(=O)N([H])[C@]([H])(C(=O)O[H])C([H])([H])c1c([H])c([H])c([H])c([H])c1[H])C([H])(C([H])([H])[H])C([H])([H])[H])N([H])C(=O)[C@@]([H])(N([H])C(=O)[C@@]([H])(N([H])C(=O)c1c(O[H])c2c([H])c([H])c([H])c([H])c2n1[H])C([H])([H])c1c([H])c([H])c([H])c([H])c1[H])C([H])([H])C([H])(C([H])([H])[H])C([H])([H])[H]


 74 78  0  0  0  0  0  0  0  0999 V2000
  -92.0512   29.2422   -4.0415 C   0  0  0  0  0  0  0  0  0  0  0  0
  -91.7437   29.2082   -5.2819 O   0  0  0  0  0  0  0  0  0  0  0  0
  -92.8986   28.2340   -3.5447 N   0  0  0  0  0  0  0  0  0  0  0  0
  -93.1556   28.2396   -2.5394 H   0  0  0  0  0  0  0  0  0  0  0  0
  -93.4399   27.1674   -4.3700 C   0  0  0  0  0  0  0  0  0  0  0  0
  -94.9321   27.2578   -4.3763 C   0  0  0  0  0  0  0  0  0  0  0  0
  -95.4918   27.3881   -3.2410 O   0  0  0  0  0  0  0  0  0  0  0  0
  -95.7178   27.2074   -5.5505 N   0  0  0  0  0  0  0  0  0  0  0  0
  -97.1586   27.1951   -5.5618 C   0  0  0  0  0  0  0  0  0  0  0  0
  -97.5042   26.5030   -6.8609 C   0  0  0  0  0  0  0  0  0  0  0  0
  -96.1475   26.0785   -7.4605 C   0  0  0  0  0  0  0  0  0  0  0  0
  -95.2659   27.1977   -6.8973 C   0  0  0  0  0  0  0  0  0  0  0  0
  -95.5048   28.4505   -7.6729 C   0  0  0  0  0  0  0  0  0  0  0  0
  -95.5220   28.4504   -8.9107 O   0  0  0  0  0  0  0  0  0  0  0  0
  -95.7064   29.6176   -6.9202 N   0  0  0  0  0  0  0  0  0  0  0  0
  -95.7123   29.5928   -5.8892 H   0  0  0  0  0  0  0  0  0  0  0  0
  -95.9240   30.8911   -7.5753 C   0  0  0  0  0  0  0  0  0  0  0  0
  -96.0973   31.8985   -6.4929 C   0  0  0  0  0  0  0  0  0  0  0  0
  -96.0714   33.1473   -6.8232 O   0  0  0  0  0  0  0  0  0  0  0  0
  -96.2902   31.6436   -5.1276 N   0  0  0  0  0  0  0  0  0  0  0  0
  -96.3492   30.6703   -4.7679 H   0  0  0  0  0  0  0  0  0  0  0  0
  -96.4190   32.7767   -4.1682 C   0  0  0  0  0  0  0  0  0  0  0  0
  -95.1657   32.8323   -3.4425 C   0  0  0  0  0  0  0  0  0  0  0  0
  -94.4650   34.0244   -3.3239 O   0  0  0  0  0  0  0  0  0  0  0  0
  -94.6203   31.8345   -2.8777 O   0  0  0  0  0  0  0  0  0  0  0  0
  -93.7993   34.1931   -2.5759 H   0  0  0  0  0  0  0  0  0  0  0  0
  -97.5636   32.4000   -3.2718 C   0  0  0  0  0  0  0  0  0  0  0  0
  -97.8075   33.2678   -2.1300 C   0  0  0  0  0  0  0  0  0  0  0  0
  -98.1106   34.6266   -2.2691 C   0  0  0  0  0  0  0  0  0  0  0  0
  -98.3558   35.4283   -1.1990 C   0  0  0  0  0  0  0  0  0  0  0  0
  -98.3145   34.9266    0.0858 C   0  0  0  0  0  0  0  0  0  0  0  0
  -98.0144   33.5751    0.2390 C   0  0  0  0  0  0  0  0  0  0  0  0
  -97.7690   32.7756   -0.8472 C   0  0  0  0  0  0  0  0  0  0  0  0
  -97.2726   30.7405   -8.3056 C   0  0  0  0  0  0  0  0  0  0  0  0
  -97.4587   31.7260   -9.4036 C   0  0  0  0  0  0  0  0  0  0  0  0
  -98.4099   30.7445   -7.3272 C   0  0  0  0  0  0  0  0  0  0  0  0
  -93.0744   25.8759   -3.6882 C   0  0  0  0  0  0  0  0  0  0  0  0
  -92.4358   26.0257   -2.3818 C   0  0  0  0  0  0  0  0  0  0  0  0
  -93.2715   26.4016   -1.3099 O   0  0  0  0  0  0  0  0  0  0  0  0
  -91.2411   25.8643   -2.0863 O   0  0  0  0  0  0  0  0  0  0  0  0
  -92.9819   27.2042   -0.7655 H   0  0  0  0  0  0  0  0  0  0  0  0
  -91.5088   30.3282   -3.1787 C   0  0  0  0  0  0  0  0  0  0  0  0
  -90.6460   29.7804   -2.1402 N   0  0  0  0  0  0  0  0  0  0  0  0
  -91.1679   29.2837   -0.9233 C   0  0  0  0  0  0  0  0  0  0  0  0
  -92.4169   29.3463   -0.7900 O   0  0  0  0  0  0  0  0  0  0  0  0
  -89.6211   29.7605   -2.2853 H   0  0  0  0  0  0  0  0  0  0  0  0
  -90.3106   28.7119    0.1754 C   0  0  0  0  0  0  0  0  0  0  0  0
  -89.0333   29.3292    0.2067 N   0  0  0  0  0  0  0  0  0  0  0  0
  -87.7626   28.7576    0.3936 C   0  0  0  0  0  0  0  0  0  0  0  0
  -87.6257   27.5338    0.5586 O   0  0  0  0  0  0  0  0  0  0  0  0
  -89.0250   30.3960    0.0719 H   0  0  0  0  0  0  0  0  0  0  0  0
  -86.5567   29.5947    0.4038 C   0  0  0  0  0  0  0  0  0  0  0  0
  -85.3446   29.2007    0.8184 N   0  0  0  0  0  0  0  0  0  0  0  0
  -84.4534   30.2187    0.6854 C   0  0  0  0  0  0  0  0  0  0  0  0
  -83.1238   30.3061    0.9657 C   0  0  0  0  0  0  0  0  0  0  0  0
  -82.4211   31.4755    0.7376 C   0  0  0  0  0  0  0  0  0  0  0  0
  -83.1007   32.5772    0.2105 C   0  0  0  0  0  0  0  0  0  0  0  0
  -84.4552   32.4759   -0.0718 C   0  0  0  0  0  0  0  0  0  0  0  0
  -85.1194   31.3068    0.1665 C   0  0  0  0  0  0  0  0  0  0  0  0
  -86.4477   30.9138   -0.0126 C   0  0  0  0  0  0  0  0  0  0  0  0
  -87.4070   31.7390   -0.5132 O   0  0  0  0  0  0  0  0  0  0  0  0
  -85.1249   28.2564    1.1863 H   0  0  0  0  0  0  0  0  0  0  0  0
  -88.3615   31.5295   -0.6698 H   0  0  0  0  0  0  0  0  0  0  0  0
  -91.1033   28.7581    1.4352 C   0  0  0  0  0  0  0  0  0  0  0  0
  -90.7264   27.8055    2.4909 C   0  0  0  0  0  0  0  0  0  0  0  0
  -90.4712   26.4984    2.1818 C   0  0  0  0  0  0  0  0  0  0  0  0
  -90.1111   25.5909    3.1742 C   0  0  0  0  0  0  0  0  0  0  0  0
  -90.0091   26.0149    4.4757 C   0  0  0  0  0  0  0  0  0  0  0  0
  -90.2605   27.3296    4.8128 C   0  0  0  0  0  0  0  0  0  0  0  0
  -90.6128   28.1937    3.8168 C   0  0  0  0  0  0  0  0  0  0  0  0
  -90.6040   31.1844   -4.0639 C   0  0  0  0  0  0  0  0  0  0  0  0
  -88.1837   31.2015   -4.3822 C   0  0  0  0  0  0  0  0  0  0  0  0
  -89.2963   31.5232   -3.3797 C   0  0  0  0  0  0  0  0  0  0  0  0
  -89.1935   33.0395   -3.1741 C   0  0  0  0  0  0  0  0  0  0  0  0
 72 73  1  0  0  0
 73 74  1  0  0  0
 73 71  1  0  0  0
 71 42  1  0  0  0
 42 43  1  0  0  0
 43 44  1  0  0  0
 44 45  2  0  0  0
 44 47  1  0  0  0
 47 64  1  0  0  0
 64 65  1  0  0  0
 65 66  2  0  0  0
 66 67  1  0  0  0
 67 68  2  0  0  0
 68 69  1  0  0  0
 69 70  2  0  0  0
 47 48  1  0  0  0
 48 49  1  0  0  0
 49 50  2  0  0  0
 49 52  1  0  0  0
 52 53  1  0  0  0
 53 54  1  0  0  0
 54 55  2  0  0  0
 55 56  1  0  0  0
 56 57  2  0  0  0
 57 58  1  0  0  0
 58 59  2  0  0  0
 59 60  1  0  0  0
 60 61  1  0  0  0
 42  1  1  0  0  0
  1  2  2  0  0  0
  1  3  1  0  0  0
  3  5  1  0  0  0
  5 37  1  0  0  0
 37 38  1  0  0  0
 38 39  1  0  0  0
 38 40  2  0  0  0
  5  6  1  0  0  0
  6  7  2  0  0  0
  6  8  1  0  0  0
  8  9  1  0  0  0
  9 10  1  0  0  0
 10 11  1  0  0  0
 11 12  1  0  0  0
 12 13  1  0  0  0
 13 14  2  0  0  0
 13 15  1  0  0  0
 15 17  1  0  0  0
 17 34  1  0  0  0
 34 35  1  0  0  0
 34 36  1  0  0  0
 17 18  1  0  0  0
 18 19  2  0  0  0
 18 20  1  0  0  0
 20 22  1  0  0  0
 22 27  1  0  0  0
 27 28  1  0  0  0
 28 29  2  0  0  0
 29 30  1  0  0  0
 30 31  2  0  0  0
 31 32  1  0  0  0
 32 33  2  0  0  0
 22 23  1  0  0  0
 23 24  1  0  0  0
 23 25  2  0  0  0
 70 65  1  0  0  0
 60 52  2  0  0  0
 12  8  1  0  0  0
 33 28  1  0  0  0
 59 54  1  0  0  0
 43 46  1  0  0  0
 48 51  1  0  0  0
 53 62  1  0  0  0
 61 63  1  0  0  0
  3  4  1  0  0  0
 39 41  1  0  0  0
 15 16  1  0  0  0
 20 21  1  0  0  0
 24 26  1  0  0  0
M  END
> <minimizedAffinity>
-8.31786

> <CNNscore>
0.0432958156

> <CNNaffinity>
6.6833419800

> <CNN_VS>
0.2893607318

> <CNNaffinity_variance>
0.6444870234

$$$$
[H]O[C@]12O[C@]([H])([C@@]([H])(OC([H])([H])[H])C([H])([H])[C@@]([H])(C([H])([H])[H])C([H])([H])/C(C([H])([H])[H])=C(\[H])[C@@]([H])(C([H])([H])C([H])([H])[H])C(=O)C([H])([H])[C@@]([H])(O[H])[C@@]([H])(C([H])([H])[H])[C@@]([H])(/C(=C(\[H])C([H])=C([H])[H])C([H])([H])[H])OC(=O)[C@@]3([H])N(C(=O)C1=O)C([H])([H])C([H])([H])C([H])([H])C3([H])[H])[C@@]([H])(OC([H])([H])[H])C([H])([H])[C@@]2([H])C([H])([H])[H]


 51 53  0  0  0  0  0  0  0  0999 V2000
  -89.4706   25.0347    0.6557 C   0  0  0  0  0  0  0  0  0  0  0  0
  -89.2273   24.9940    2.0964 C   0  0  0  0  0  0  0  0  0  0  0  0
  -88.7135   25.8624    2.9243 C   0  0  0  0  0  0  0  0  0  0  0  0
  -88.6035   25.4792    4.4044 C   0  0  0  0  0  0  0  0  0  0  0  0
  -88.2082   27.2232    2.6272 C   0  0  0  0  0  0  0  0  0  0  0  0
  -86.8395   27.2579    1.9927 C   0  0  0  0  0  0  0  0  0  0  0  0
  -85.7461   26.6698    2.8041 C   0  0  0  0  0  0  0  0  0  0  0  0
  -86.6085   28.6103    1.4306 C   0  0  0  0  0  0  0  0  0  0  0  0
  -85.6842   29.5066    2.1831 C   0  0  0  0  0  0  0  0  0  0  0  0
  -84.7183   30.2329    1.2744 C   0  0  0  0  0  0  0  0  0  0  0  0
  -85.0478   31.5503    1.0620 O   0  0  0  0  0  0  0  0  0  0  0  0
  -84.5341   31.9257   -0.1765 C   0  0  0  0  0  0  0  0  0  0  0  0
  -85.1010   31.0827   -1.1341 O   0  0  0  0  0  0  0  0  0  0  0  0
  -83.0534   31.6226   -0.1608 C   0  0  0  0  0  0  0  0  0  0  0  0
  -82.6012   30.7123   -1.2732 C   0  0  0  0  0  0  0  0  0  0  0  0
  -82.5235   31.2345    1.1920 C   0  0  0  0  0  0  0  0  0  0  0  0
  -83.3399   30.1481    1.8682 C   0  0  0  0  0  0  0  0  0  0  0  0
  -84.8837   33.3185   -0.5365 C   0  0  0  0  0  0  0  0  0  0  0  0
  -83.7727   34.0039   -0.3575 O   0  0  0  0  0  0  0  0  0  0  0  0
  -86.0660   33.9742   -0.9834 C   0  0  0  0  0  0  0  0  0  0  0  0
  -86.3746   34.9930   -0.1755 O   0  0  0  0  0  0  0  0  0  0  0  0
  -87.0413   33.9454   -1.9765 N   0  0  0  0  0  0  0  0  0  0  0  0
  -87.3339   35.1839   -2.8096 C   0  0  0  0  0  0  0  0  0  0  0  0
  -86.8827   34.7836   -4.1829 C   0  0  0  0  0  0  0  0  0  0  0  0
  -87.3135   33.4746   -4.6749 C   0  0  0  0  0  0  0  0  0  0  0  0
  -87.3402   32.3349   -3.6507 C   0  0  0  0  0  0  0  0  0  0  0  0
  -87.9413   32.9031   -2.4223 C   0  0  0  0  0  0  0  0  0  0  0  0
  -88.5665   32.0649   -1.4370 C   0  0  0  0  0  0  0  0  0  0  0  0
  -88.1305   32.1817   -0.2355 O   0  0  0  0  0  0  0  0  0  0  0  0
  -89.5607   31.1528   -1.5513 O   0  0  0  0  0  0  0  0  0  0  0  0
  -90.0622   30.3269   -2.4949 C   0  0  0  0  0  0  0  0  0  0  0  0
  -90.7058   29.0847   -1.8673 C   0  0  0  0  0  0  0  0  0  0  0  0
  -91.8135   29.3967   -0.9279 C   0  0  0  0  0  0  0  0  0  0  0  0
  -89.6256   28.3279   -1.1277 C   0  0  0  0  0  0  0  0  0  0  0  0
  -88.3855   28.7338   -1.6621 O   0  0  0  0  0  0  0  0  0  0  0  0
  -89.7417   26.8544   -1.1726 C   0  0  0  0  0  0  0  0  0  0  0  0
  -90.1601   26.1878    0.0895 C   0  0  0  0  0  0  0  0  0  0  0  0
  -91.1316   26.6508    0.6548 O   0  0  0  0  0  0  0  0  0  0  0  0
  -84.6626   31.2823   -1.9916 H   0  0  0  0  0  0  0  0  0  0  0  0
  -88.2338   28.1790   -2.4573 H   0  0  0  0  0  0  0  0  0  0  0  0
  -91.0661   30.8515   -3.4354 C   0  0  0  0  0  0  0  0  0  0  0  0
  -90.8715   32.2137   -3.9883 C   0  0  0  0  0  0  0  0  0  0  0  0
  -92.1201   30.1663   -3.8140 C   0  0  0  0  0  0  0  0  0  0  0  0
  -93.1328   30.6366   -4.7329 C   0  0  0  0  0  0  0  0  0  0  0  0
  -93.5610   29.8851   -5.7350 C   0  0  0  0  0  0  0  0  0  0  0  0
  -91.5207   23.6401    0.5656 C   0  0  0  0  0  0  0  0  0  0  0  0
  -90.0864   23.7126    0.1606 C   0  0  0  0  0  0  0  0  0  0  0  0
  -86.3852   30.4662    2.9415 O   0  0  0  0  0  0  0  0  0  0  0  0
  -87.5743   30.8599    2.3353 C   0  0  0  0  0  0  0  0  0  0  0  0
  -82.7409   28.9483    1.5850 O   0  0  0  0  0  0  0  0  0  0  0  0
  -81.3891   29.0189    1.3487 C   0  0  0  0  0  0  0  0  0  0  0  0
 46 47  1  0  0  0
 47  1  1  0  0  0
  1  2  1  0  0  0
  2  3  2  0  0  0
  3  4  1  0  0  0
  3  5  1  0  0  0
  5  6  1  0  0  0
  6  7  1  0  0  0
  6  8  1  0  0  0
  8  9  1  0  0  0
  9 48  1  0  0  0
 48 49  1  0  0  0
  9 10  1  0  0  0
 10 11  1  0  0  0
 11 12  1  0  0  0
 12 13  1  0  0  0
 12 14  1  0  0  0
 14 15  1  0  0  0
 14 16  1  0  0  0
 16 17  1  0  0  0
 17 50  1  0  0  0
 50 51  1  0  0  0
 12 18  1  0  0  0
 18 19  2  0  0  0
 18 20  1  0  0  0
 20 21  2  0  0  0
 20 22  1  0  0  0
 22 23  1  0  0  0
 23 24  1  0  0  0
 24 25  1  0  0  0
 25 26  1  0  0  0
 26 27  1  0  0  0
 27 28  1  0  0  0
 28 29  2  0  0  0
 28 30  1  0  0  0
 30 31  1  0  0  0
 31 32  1  0  0  0
 32 33  1  0  0  0
 32 34  1  0  0  0
 34 35  1  0  0  0
 34 36  1  0  0  0
 36 37  1  0  0  0
 37 38  2  0  0  0
 31 41  1  0  0  0
 41 42  1  0  0  0
 41 43  2  0  0  0
 43 44  1  0  0  0
 44 45  2  0  0  0
 37  1  1  0  0  0
 17 10  1  0  0  0
 27 22  1  0  0  0
 13 39  1  0  0  0
 35 40  1  0  0  0
M  END
> <minimizedAffinity>
4.13374

> <CNNscore>
0.3980629444

> <CNNaffinity>
7.3499732018

> <CNN_VS>
2.9257519245

> <CNNaffinity_variance>
0.6601741314

$$$$
[H]O[C@]12O[C@]([H])([C@@]([H])(OC([H])([H])[H])C([H])([H])[C@@]([H])(C([H])([H])[H])C([H])([H])/C(C([H])([H])[H])=C(\[H])[C@@]([H])(C([H])([H])C([H])([H])[H])C(=O)C([H])([H])[C@@]([H])(O[H])[C@@]([H])(C([H])([H])[H])[C@@]([H])(/C(=C(\[H])C([H])=C([H])[H])C([H])([H])[H])OC(=O)[C@@]3([H])N(C(=O)C1=O)C([H])([H])C([H])([H])C([H])([H])C3([H])[H])[C@@]([H])(OC([H])([H])[H])C([H])([H])[C@@]2([H])C([H])([H])[H]


 51 53  0  0  0  0  0  0  0  0999 V2000
  -84.0911   30.0374    0.2443 C   0  0  0  0  0  0  0  0  0  0  0  0
  -84.0735   31.3781    0.8264 C   0  0  0  0  0  0  0  0  0  0  0  0
  -84.9494   32.3457    0.8274 C   0  0  0  0  0  0  0  0  0  0  0  0
  -84.5921   33.6492    1.5503 C   0  0  0  0  0  0  0  0  0  0  0  0
  -86.2969   32.3620    0.2113 C   0  0  0  0  0  0  0  0  0  0  0  0
  -86.2995   32.5761   -1.2825 C   0  0  0  0  0  0  0  0  0  0  0  0
  -85.7105   33.8568   -1.7435 C   0  0  0  0  0  0  0  0  0  0  0  0
  -87.6377   32.2209   -1.8128 C   0  0  0  0  0  0  0  0  0  0  0  0
  -88.5341   33.3489   -2.1976 C   0  0  0  0  0  0  0  0  0  0  0  0
  -89.2290   33.1083   -3.5187 C   0  0  0  0  0  0  0  0  0  0  0  0
  -90.5470   32.7408   -3.3879 O   0  0  0  0  0  0  0  0  0  0  0  0
  -90.8918   31.9799   -4.5018 C   0  0  0  0  0  0  0  0  0  0  0  0
  -90.0397   30.8744   -4.5296 O   0  0  0  0  0  0  0  0  0  0  0  0
  -90.5671   32.8027   -5.7275 C   0  0  0  0  0  0  0  0  0  0  0  0
  -89.6298   32.1235   -6.6923 C   0  0  0  0  0  0  0  0  0  0  0  0
  -90.1964   34.2285   -5.4257 C   0  0  0  0  0  0  0  0  0  0  0  0
  -89.1348   34.3582   -4.3485 C   0  0  0  0  0  0  0  0  0  0  0  0
  -92.2827   31.4771   -4.4363 C   0  0  0  0  0  0  0  0  0  0  0  0
  -92.9547   32.2278   -5.2854 O   0  0  0  0  0  0  0  0  0  0  0  0
  -92.9474   30.4530   -3.7037 C   0  0  0  0  0  0  0  0  0  0  0  0
  -93.9854   30.9544   -3.0276 O   0  0  0  0  0  0  0  0  0  0  0  0
  -92.9146   29.0891   -3.4267 N   0  0  0  0  0  0  0  0  0  0  0  0
  -94.1417   28.2219   -3.6633 C   0  0  0  0  0  0  0  0  0  0  0  0
  -93.7094   27.3197   -4.7809 C   0  0  0  0  0  0  0  0  0  0  0  0
  -92.3980   26.6822   -4.6585 C   0  0  0  0  0  0  0  0  0  0  0  0
  -91.2780   27.5347   -4.0523 C   0  0  0  0  0  0  0  0  0  0  0  0
  -91.8777   28.2323   -2.8919 C   0  0  0  0  0  0  0  0  0  0  0  0
  -91.0672   28.7238   -1.8121 C   0  0  0  0  0  0  0  0  0  0  0  0
  -91.1998   29.9677   -1.5254 O   0  0  0  0  0  0  0  0  0  0  0  0
  -90.1680   28.0927   -1.0205 O   0  0  0  0  0  0  0  0  0  0  0  0
  -89.3322   27.0344   -1.0959 C   0  0  0  0  0  0  0  0  0  0  0  0
  -88.1116   27.2189   -0.1865 C   0  0  0  0  0  0  0  0  0  0  0  0
  -88.4573   27.4001    1.2468 C   0  0  0  0  0  0  0  0  0  0  0  0
  -87.3526   28.4334   -0.6718 C   0  0  0  0  0  0  0  0  0  0  0  0
  -87.7302   28.6586   -2.0116 O   0  0  0  0  0  0  0  0  0  0  0  0
  -85.8804   28.3434   -0.5658 C   0  0  0  0  0  0  0  0  0  0  0  0
  -85.2436   29.1783    0.4877 C   0  0  0  0  0  0  0  0  0  0  0  0
  -85.7313   29.1190    1.5996 O   0  0  0  0  0  0  0  0  0  0  0  0
  -90.2169   30.3932   -5.3688 H   0  0  0  0  0  0  0  0  0  0  0  0
  -87.1586   28.0788   -2.5596 H   0  0  0  0  0  0  0  0  0  0  0  0
  -89.8542   25.6947   -0.7788 C   0  0  0  0  0  0  0  0  0  0  0  0
  -90.9279   25.1347   -1.6347 C   0  0  0  0  0  0  0  0  0  0  0  0
  -89.4071   24.9698    0.2203 C   0  0  0  0  0  0  0  0  0  0  0  0
  -89.8864   23.6516    0.5723 C   0  0  0  0  0  0  0  0  0  0  0  0
  -90.0235   22.6993   -0.3368 C   0  0  0  0  0  0  0  0  0  0  0  0
  -82.4247   29.4000    1.9684 C   0  0  0  0  0  0  0  0  0  0  0  0
  -82.7694   29.2966    0.5203 C   0  0  0  0  0  0  0  0  0  0  0  0
  -89.5177   33.5953   -1.2182 O   0  0  0  0  0  0  0  0  0  0  0  0
  -89.5655   32.5988   -0.2480 C   0  0  0  0  0  0  0  0  0  0  0  0
  -87.9213   34.4564   -4.9779 O   0  0  0  0  0  0  0  0  0  0  0  0
  -87.5932   35.7201   -5.4064 C   0  0  0  0  0  0  0  0  0  0  0  0
 46 47  1  0  0  0
 47  1  1  0  0  0
  1  2  1  0  0  0
  2  3  2  0  0  0
  3  4  1  0  0  0
  3  5  1  0  0  0
  5  6  1  0  0  0
  6  7  1  0  0  0
  6  8  1  0  0  0
  8  9  1  0  0  0
  9 48  1  0  0  0
 48 49  1  0  0  0
  9 10  1  0  0  0
 10 11  1  0  0  0
 11 12  1  0  0  0
 12 13  1  0  0  0
 12 14  1  0  0  0
 14 15  1  0  0  0
 14 16  1  0  0  0
 16 17  1  0  0  0
 17 50  1  0  0  0
 50 51  1  0  0  0
 12 18  1  0  0  0
 18 19  2  0  0  0
 18 20  1  0  0  0
 20 21  2  0  0  0
 20 22  1  0  0  0
 22 23  1  0  0  0
 23 24  1  0  0  0
 24 25  1  0  0  0
 25 26  1  0  0  0
 26 27  1  0  0  0
 27 28  1  0  0  0
 28 29  2  0  0  0
 28 30  1  0  0  0
 30 31  1  0  0  0
 31 32  1  0  0  0
 32 33  1  0  0  0
 32 34  1  0  0  0
 34 35  1  0  0  0
 34 36  1  0  0  0
 36 37  1  0  0  0
 37 38  2  0  0  0
 31 41  1  0  0  0
 41 42  1  0  0  0
 41 43  2  0  0  0
 43 44  1  0  0  0
 44 45  2  0  0  0
 37  1  1  0  0  0
 17 10  1  0  0  0
 27 22  1  0  0  0
 13 39  1  0  0  0
 35 40  1  0  0  0
M  END
> <minimizedAffinity>
-2.91887

> <CNNscore>
0.3964042962

> <CNNaffinity>
7.3298273087

> <CNN_VS>
2.9055750370

> <CNNaffinity_variance>
0.9926536679

$$$$
[H]O[C@]12O[C@]([H])([C@@]([H])(OC([H])([H])[H])C([H])([H])[C@@]([H])(C([H])([H])[H])C([H])([H])/C(C([H])([H])[H])=C(\[H])[C@@]([H])(C([H])([H])C([H])([H])[H])C(=O)C([H])([H])[C@@]([H])(O[H])[C@@]([H])(C([H])([H])[H])[C@@]([H])(/C(=C(\[H])C([H])=C([H])[H])C([H])([H])[H])OC(=O)[C@@]3([H])N(C(=O)C1=O)C([H])([H])C([H])([H])C([H])([H])C3([H])[H])[C@@]([H])(OC([H])([H])[H])C([H])([H])[C@@]2([H])C([H])([H])[H]


 51 53  0  0  0  0  0  0  0  0999 V2000
  -90.5534   22.7982    1.9574 C   0  0  0  0  0  0  0  0  0  0  0  0
  -90.9187   21.8654    0.8930 C   0  0  0  0  0  0  0  0  0  0  0  0
  -91.1149   22.0281   -0.3870 C   0  0  0  0  0  0  0  0  0  0  0  0
  -91.4984   20.8035   -1.2254 C   0  0  0  0  0  0  0  0  0  0  0  0
  -91.0080   23.2761   -1.1786 C   0  0  0  0  0  0  0  0  0  0  0  0
  -92.1880   24.2068   -1.0420 C   0  0  0  0  0  0  0  0  0  0  0  0
  -93.4920   23.6505   -1.4776 C   0  0  0  0  0  0  0  0  0  0  0  0
  -91.8107   25.5369   -1.5775 C   0  0  0  0  0  0  0  0  0  0  0  0
  -92.3639   25.9110   -2.9109 C   0  0  0  0  0  0  0  0  0  0  0  0
  -92.8764   27.3331   -2.9443 C   0  0  0  0  0  0  0  0  0  0  0  0
  -92.0320   28.2070   -3.5867 O   0  0  0  0  0  0  0  0  0  0  0  0
  -92.2424   29.4758   -3.0530 C   0  0  0  0  0  0  0  0  0  0  0  0
  -91.9762   29.4002   -1.6847 O   0  0  0  0  0  0  0  0  0  0  0  0
  -93.7164   29.7822   -3.1871 C   0  0  0  0  0  0  0  0  0  0  0  0
  -94.3938   30.1218   -1.8846 C   0  0  0  0  0  0  0  0  0  0  0  0
  -94.4740   28.7869   -4.0218 C   0  0  0  0  0  0  0  0  0  0  0  0
  -94.2209   27.3462   -3.6163 C   0  0  0  0  0  0  0  0  0  0  0  0
  -91.3367   30.4924   -3.6344 C   0  0  0  0  0  0  0  0  0  0  0  0
  -92.0939   31.1904   -4.4563 O   0  0  0  0  0  0  0  0  0  0  0  0
  -89.9567   30.8106   -3.4866 C   0  0  0  0  0  0  0  0  0  0  0  0
  -89.3403   30.7993   -4.6723 O   0  0  0  0  0  0  0  0  0  0  0  0
  -88.9903   31.1385   -2.5398 N   0  0  0  0  0  0  0  0  0  0  0  0
  -88.1563   32.4016   -2.6909 C   0  0  0  0  0  0  0  0  0  0  0  0
  -88.6067   33.2459   -1.5360 C   0  0  0  0  0  0  0  0  0  0  0  0
  -88.6915   32.5995   -0.2260 C   0  0  0  0  0  0  0  0  0  0  0  0
  -89.2112   31.1579   -0.2081 C   0  0  0  0  0  0  0  0  0  0  0  0
  -88.5443   30.4688   -1.3365 C   0  0  0  0  0  0  0  0  0  0  0  0
  -88.3943   29.0400   -1.3589 C   0  0  0  0  0  0  0  0  0  0  0  0
  -88.8517   28.4388   -2.3965 O   0  0  0  0  0  0  0  0  0  0  0  0
  -87.8397   28.1930   -0.4598 O   0  0  0  0  0  0  0  0  0  0  0  0
  -87.6277   28.1412    0.8731 C   0  0  0  0  0  0  0  0  0  0  0  0
  -87.5902   26.6941    1.3784 C   0  0  0  0  0  0  0  0  0  0  0  0
  -86.5374   25.8652    0.7371 C   0  0  0  0  0  0  0  0  0  0  0  0
  -88.9430   26.0747    1.1087 C   0  0  0  0  0  0  0  0  0  0  0  0
  -89.8665   27.1294    0.9567 O   0  0  0  0  0  0  0  0  0  0  0  0
  -89.4200   25.1243    2.1362 C   0  0  0  0  0  0  0  0  0  0  0  0
  -89.4147   23.6862    1.7565 C   0  0  0  0  0  0  0  0  0  0  0  0
  -88.3931   23.2580    1.2557 O   0  0  0  0  0  0  0  0  0  0  0  0
  -92.2214   30.2686   -1.2935 H   0  0  0  0  0  0  0  0  0  0  0  0
  -90.1559   27.3742    1.8619 H   0  0  0  0  0  0  0  0  0  0  0  0
  -86.4193   28.7767    1.4240 C   0  0  0  0  0  0  0  0  0  0  0  0
  -85.1825   28.7697    0.6058 C   0  0  0  0  0  0  0  0  0  0  0  0
  -86.3884   29.3569    2.6013 C   0  0  0  0  0  0  0  0  0  0  0  0
  -85.2287   29.9931    3.1858 C   0  0  0  0  0  0  0  0  0  0  0  0
  -84.1189   30.1828    2.4897 C   0  0  0  0  0  0  0  0  0  0  0  0
  -89.7461   22.9385    4.2994 C   0  0  0  0  0  0  0  0  0  0  0  0
  -90.4741   22.0816    3.3185 C   0  0  0  0  0  0  0  0  0  0  0  0
  -91.4084   25.7605   -3.9366 O   0  0  0  0  0  0  0  0  0  0  0  0
  -90.7404   24.5416   -3.8683 C   0  0  0  0  0  0  0  0  0  0  0  0
  -95.2207   26.9812   -2.7529 O   0  0  0  0  0  0  0  0  0  0  0  0
  -94.8228   26.8042   -1.4496 C   0  0  0  0  0  0  0  0  0  0  0  0
 46 47  1  0  0  0
 47  1  1  0  0  0
  1  2  1  0  0  0
  2  3  2  0  0  0
  3  4  1  0  0  0
  3  5  1  0  0  0
  5  6  1  0  0  0
  6  7  1  0  0  0
  6  8  1  0  0  0
  8  9  1  0  0  0
  9 48  1  0  0  0
 48 49  1  0  0  0
  9 10  1  0  0  0
 10 11  1  0  0  0
 11 12  1  0  0  0
 12 13  1  0  0  0
 12 14  1  0  0  0
 14 15  1  0  0  0
 14 16  1  0  0  0
 16 17  1  0  0  0
 17 50  1  0  0  0
 50 51  1  0  0  0
 12 18  1  0  0  0
 18 19  2  0  0  0
 18 20  1  0  0  0
 20 21  2  0  0  0
 20 22  1  0  0  0
 22 23  1  0  0  0
 23 24  1  0  0  0
 24 25  1  0  0  0
 25 26  1  0  0  0
 26 27  1  0  0  0
 27 28  1  0  0  0
 28 29  2  0  0  0
 28 30  1  0  0  0
 30 31  1  0  0  0
 31 32  1  0  0  0
 32 33  1  0  0  0
 32 34  1  0  0  0
 34 35  1  0  0  0
 34 36  1  0  0  0
 36 37  1  0  0  0
 37 38  2  0  0  0
 31 41  1  0  0  0
 41 42  1  0  0  0
 41 43  2  0  0  0
 43 44  1  0  0  0
 44 45  2  0  0  0
 37  1  1  0  0  0
 17 10  1  0  0  0
 27 22  1  0  0  0
 13 39  1  0  0  0
 35 40  1  0  0  0
M  END
> <minimizedAffinity>
0.31064

> <CNNscore>
0.3940012455

> <CNNaffinity>
6.8532533646

> <CNN_VS>
2.7001903057

> <CNNaffinity_variance>
1.3486739397

$$$$
[H]O[C@]12O[C@]([H])([C@@]([H])(OC([H])([H])[H])C([H])([H])[C@@]([H])(C([H])([H])[H])C([H])([H])/C(C([H])([H])[H])=C(\[H])[C@@]([H])(C([H])([H])C([H])([H])[H])C(=O)C([H])([H])[C@@]([H])(O[H])[C@@]([H])(C([H])([H])[H])[C@@]([H])(/C(=C(\[H])C([H])=C([H])[H])C([H])([H])[H])OC(=O)[C@@]3([H])N(C(=O)C1=O)C([H])([H])C([H])([H])C([H])([H])C3([H])[H])[C@@]([H])(OC([H])([H])[H])C([H])([H])[C@@]2([H])C([H])([H])[H]


 51 53  0  0  0  0  0  0  0  0999 V2000
  -86.5788   30.1299    1.3385 C   0  0  0  0  0  0  0  0  0  0  0  0
  -85.7608   28.9340    1.5316 C   0  0  0  0  0  0  0  0  0  0  0  0
  -85.8751   27.7119    1.0879 C   0  0  0  0  0  0  0  0  0  0  0  0
  -84.8132   26.6863    1.5003 C   0  0  0  0  0  0  0  0  0  0  0  0
  -86.9225   27.1538    0.2007 C   0  0  0  0  0  0  0  0  0  0  0  0
  -88.2321   26.8562    0.8888 C   0  0  0  0  0  0  0  0  0  0  0  0
  -88.1636   25.8602    1.9856 C   0  0  0  0  0  0  0  0  0  0  0  0
  -89.2770   26.6511   -0.1429 C   0  0  0  0  0  0  0  0  0  0  0  0
  -89.7145   25.2475   -0.3927 C   0  0  0  0  0  0  0  0  0  0  0  0
  -91.2169   25.1240   -0.5099 C   0  0  0  0  0  0  0  0  0  0  0  0
  -91.6578   24.9813   -1.8039 O   0  0  0  0  0  0  0  0  0  0  0  0
  -92.9546   25.4836   -1.8722 C   0  0  0  0  0  0  0  0  0  0  0  0
  -92.9025   26.8227   -1.4809 O   0  0  0  0  0  0  0  0  0  0  0  0
  -93.7728   24.7624   -0.8257 C   0  0  0  0  0  0  0  0  0  0  0  0
  -94.4486   25.6770    0.1630 C   0  0  0  0  0  0  0  0  0  0  0  0
  -93.0618   23.6009   -0.1878 C   0  0  0  0  0  0  0  0  0  0  0  0
  -91.6700   23.9476    0.3090 C   0  0  0  0  0  0  0  0  0  0  0  0
  -93.5099   25.4346   -3.2437 C   0  0  0  0  0  0  0  0  0  0  0  0
  -94.3662   24.4333   -3.2270 O   0  0  0  0  0  0  0  0  0  0  0  0
  -93.3055   26.1829   -4.4377 C   0  0  0  0  0  0  0  0  0  0  0  0
  -92.9658   25.3764   -5.4476 O   0  0  0  0  0  0  0  0  0  0  0  0
  -93.3313   27.4757   -4.9534 N   0  0  0  0  0  0  0  0  0  0  0  0
  -94.1777   27.8052   -6.1735 C   0  0  0  0  0  0  0  0  0  0  0  0
  -95.2238   28.7278   -5.6219 C   0  0  0  0  0  0  0  0  0  0  0  0
  -94.7687   29.8149   -4.7546 C   0  0  0  0  0  0  0  0  0  0  0  0
  -93.6294   29.4834   -3.7846 C   0  0  0  0  0  0  0  0  0  0  0  0
  -92.6490   28.6906   -4.5611 C   0  0  0  0  0  0  0  0  0  0  0  0
  -91.2700   28.6091   -4.1660 C   0  0  0  0  0  0  0  0  0  0  0  0
  -90.7951   27.4272   -4.0082 O   0  0  0  0  0  0  0  0  0  0  0  0
  -90.3575   29.5806   -3.9274 O   0  0  0  0  0  0  0  0  0  0  0  0
  -90.3445   30.8668   -3.5153 C   0  0  0  0  0  0  0  0  0  0  0  0
  -89.0351   31.2111   -2.7957 C   0  0  0  0  0  0  0  0  0  0  0  0
  -87.8238   31.0089   -3.6316 C   0  0  0  0  0  0  0  0  0  0  0  0
  -88.9405   30.3380   -1.5647 C   0  0  0  0  0  0  0  0  0  0  0  0
  -90.2453   29.9006   -1.2572 O   0  0  0  0  0  0  0  0  0  0  0  0
  -88.3256   30.9772   -0.3815 C   0  0  0  0  0  0  0  0  0  0  0  0
  -86.9612   30.5114   -0.0157 C   0  0  0  0  0  0  0  0  0  0  0  0
  -86.1440   30.4577   -0.9141 O   0  0  0  0  0  0  0  0  0  0  0  0
  -93.8298   27.1468   -1.4330 H   0  0  0  0  0  0  0  0  0  0  0  0
  -90.6559   30.6142   -0.7230 H   0  0  0  0  0  0  0  0  0  0  0  0
  -90.5314   31.9329   -4.5133 C   0  0  0  0  0  0  0  0  0  0  0  0
  -91.8136   31.9874   -5.2564 C   0  0  0  0  0  0  0  0  0  0  0  0
  -89.6198   32.8424   -4.7693 C   0  0  0  0  0  0  0  0  0  0  0  0
  -89.7551   33.9072   -5.7384 C   0  0  0  0  0  0  0  0  0  0  0  0
  -89.0555   35.0265   -5.6391 C   0  0  0  0  0  0  0  0  0  0  0  0
  -85.3065   30.8424    3.3459 C   0  0  0  0  0  0  0  0  0  0  0  0
  -86.0024   31.3267    2.1181 C   0  0  0  0  0  0  0  0  0  0  0  0
  -89.1341   24.7172   -1.5629 O   0  0  0  0  0  0  0  0  0  0  0  0
  -89.4531   23.3765   -1.7560 C   0  0  0  0  0  0  0  0  0  0  0  0
  -91.7763   24.2678    1.6374 O   0  0  0  0  0  0  0  0  0  0  0  0
  -91.5555   25.5916    1.9322 C   0  0  0  0  0  0  0  0  0  0  0  0
 46 47  1  0  0  0
 47  1  1  0  0  0
  1  2  1  0  0  0
  2  3  2  0  0  0
  3  4  1  0  0  0
  3  5  1  0  0  0
  5  6  1  0  0  0
  6  7  1  0  0  0
  6  8  1  0  0  0
  8  9  1  0  0  0
  9 48  1  0  0  0
 48 49  1  0  0  0
  9 10  1  0  0  0
 10 11  1  0  0  0
 11 12  1  0  0  0
 12 13  1  0  0  0
 12 14  1  0  0  0
 14 15  1  0  0  0
 14 16  1  0  0  0
 16 17  1  0  0  0
 17 50  1  0  0  0
 50 51  1  0  0  0
 12 18  1  0  0  0
 18 19  2  0  0  0
 18 20  1  0  0  0
 20 21  2  0  0  0
 20 22  1  0  0  0
 22 23  1  0  0  0
 23 24  1  0  0  0
 24 25  1  0  0  0
 25 26  1  0  0  0
 26 27  1  0  0  0
 27 28  1  0  0  0
 28 29  2  0  0  0
 28 30  1  0  0  0
 30 31  1  0  0  0
 31 32  1  0  0  0
 32 33  1  0  0  0
 32 34  1  0  0  0
 34 35  1  0  0  0
 34 36  1  0  0  0
 36 37  1  0  0  0
 37 38  2  0  0  0
 31 41  1  0  0  0
 41 42  1  0  0  0
 41 43  2  0  0  0
 43 44  1  0  0  0
 44 45  2  0  0  0
 37  1  1  0  0  0
 17 10  1  0  0  0
 27 22  1  0  0  0
 13 39  1  0  0  0
 35 40  1  0  0  0
M  END
> <minimizedAffinity>
-3.50815

> <CNNscore>
0.3866997957

> <CNNaffinity>
6.8505759239

> <CNN_VS>
2.6491162777

> <CNNaffinity_variance>
0.8381050229

$$$$
[H]O[C@]12O[C@]([H])([C@@]([H])(OC([H])([H])[H])C([H])([H])[C@@]([H])(C([H])([H])[H])C([H])([H])/C(C([H])([H])[H])=C(\[H])[C@@]([H])(C([H])([H])C([H])([H])[H])C(=O)C([H])([H])[C@@]([H])(O[H])[C@@]([H])(C([H])([H])[H])[C@@]([H])(/C(=C(\[H])C([H])=C([H])[H])C([H])([H])[H])OC(=O)[C@@]3([H])N(C(=O)C1=O)C([H])([H])C([H])([H])C([H])([H])C3([H])[H])[C@@]([H])(OC([H])([H])[H])C([H])([H])[C@@]2([H])C([H])([H])[H]


 51 53  0  0  0  0  0  0  0  0999 V2000
  -94.0305   22.9613    0.0116 C   0  0  0  0  0  0  0  0  0  0  0  0
  -93.8979   22.5583   -1.3871 C   0  0  0  0  0  0  0  0  0  0  0  0
  -93.0594   22.9065   -2.3248 C   0  0  0  0  0  0  0  0  0  0  0  0
  -93.2158   22.2734   -3.7119 C   0  0  0  0  0  0  0  0  0  0  0  0
  -91.9279   23.8590   -2.2341 C   0  0  0  0  0  0  0  0  0  0  0  0
  -92.3291   25.3131   -2.2747 C   0  0  0  0  0  0  0  0  0  0  0  0
  -93.0276   25.7472   -3.5090 C   0  0  0  0  0  0  0  0  0  0  0  0
  -91.1814   26.1372   -1.8252 C   0  0  0  0  0  0  0  0  0  0  0  0
  -90.4281   26.8787   -2.8771 C   0  0  0  0  0  0  0  0  0  0  0  0
  -90.1136   28.2998   -2.4676 C   0  0  0  0  0  0  0  0  0  0  0  0
  -88.8071   28.4849   -2.0826 O   0  0  0  0  0  0  0  0  0  0  0  0
  -88.7712   29.5526   -1.1896 C   0  0  0  0  0  0  0  0  0  0  0  0
  -89.5932   29.2200   -0.1113 O   0  0  0  0  0  0  0  0  0  0  0  0
  -89.4186   30.7345   -1.8741 C   0  0  0  0  0  0  0  0  0  0  0  0
  -90.5776   31.3253   -1.1135 C   0  0  0  0  0  0  0  0  0  0  0  0
  -89.7021   30.5148   -3.3345 C   0  0  0  0  0  0  0  0  0  0  0  0
  -90.4347   29.2155   -3.6157 C   0  0  0  0  0  0  0  0  0  0  0  0
  -87.4114   29.8036   -0.6609 C   0  0  0  0  0  0  0  0  0  0  0  0
  -86.9971   30.8843   -1.2906 O   0  0  0  0  0  0  0  0  0  0  0  0
  -86.5683   29.1605    0.2894 C   0  0  0  0  0  0  0  0  0  0  0  0
  -85.3892   28.8518   -0.2587 O   0  0  0  0  0  0  0  0  0  0  0  0
  -86.5178   28.7259    1.6110 N   0  0  0  0  0  0  0  0  0  0  0  0
  -85.3952   29.1789    2.5321 C   0  0  0  0  0  0  0  0  0  0  0  0
  -86.1077   30.0249    3.5451 C   0  0  0  0  0  0  0  0  0  0  0  0
  -87.3342   29.4809    4.1291 C   0  0  0  0  0  0  0  0  0  0  0  0
  -88.2540   28.7015    3.1830 C   0  0  0  0  0  0  0  0  0  0  0  0
  -87.3676   27.8353    2.3725 C   0  0  0  0  0  0  0  0  0  0  0  0
  -87.8597   26.6435    1.7386 C   0  0  0  0  0  0  0  0  0  0  0  0
  -87.6615   26.5518    0.4739 O   0  0  0  0  0  0  0  0  0  0  0  0
  -88.5089   25.5710    2.2502 O   0  0  0  0  0  0  0  0  0  0  0  0
  -89.3283   25.2939    3.2875 C   0  0  0  0  0  0  0  0  0  0  0  0
  -90.2597   24.1188    2.9671 C   0  0  0  0  0  0  0  0  0  0  0  0
  -89.5415   22.8625    2.6313 C   0  0  0  0  0  0  0  0  0  0  0  0
  -91.1279   24.5226    1.7968 C   0  0  0  0  0  0  0  0  0  0  0  0
  -91.1265   25.9314    1.7375 O   0  0  0  0  0  0  0  0  0  0  0  0
  -92.5166   24.0158    1.8347 C   0  0  0  0  0  0  0  0  0  0  0  0
  -92.8505   22.9363    0.8674 C   0  0  0  0  0  0  0  0  0  0  0  0
  -92.0808   21.9970    0.8112 O   0  0  0  0  0  0  0  0  0  0  0  0
  -89.6462   30.0131    0.4679 H   0  0  0  0  0  0  0  0  0  0  0  0
  -91.8215   26.2336    2.3611 H   0  0  0  0  0  0  0  0  0  0  0  0
  -88.7329   24.9726    4.5951 C   0  0  0  0  0  0  0  0  0  0  0  0
  -88.9521   25.9127    5.7208 C   0  0  0  0  0  0  0  0  0  0  0  0
  -88.0250   23.8885    4.8130 C   0  0  0  0  0  0  0  0  0  0  0  0
  -87.4201   23.5291    6.0764 C   0  0  0  0  0  0  0  0  0  0  0  0
  -87.7789   24.1159    7.2074 C   0  0  0  0  0  0  0  0  0  0  0  0
  -95.1997   20.7997    0.3532 C   0  0  0  0  0  0  0  0  0  0  0  0
  -95.2249   22.2554    0.6803 C   0  0  0  0  0  0  0  0  0  0  0  0
  -89.2182   26.2353   -3.2083 O   0  0  0  0  0  0  0  0  0  0  0  0
  -88.7706   25.3889   -2.1985 C   0  0  0  0  0  0  0  0  0  0  0  0
  -91.7735   29.5033   -3.6730 O   0  0  0  0  0  0  0  0  0  0  0  0
  -92.1073   30.5337   -4.5187 C   0  0  0  0  0  0  0  0  0  0  0  0
 46 47  1  0  0  0
 47  1  1  0  0  0
  1  2  1  0  0  0
  2  3  2  0  0  0
  3  4  1  0  0  0
  3  5  1  0  0  0
  5  6  1  0  0  0
  6  7  1  0  0  0
  6  8  1  0  0  0
  8  9  1  0  0  0
  9 48  1  0  0  0
 48 49  1  0  0  0
  9 10  1  0  0  0
 10 11  1  0  0  0
 11 12  1  0  0  0
 12 13  1  0  0  0
 12 14  1  0  0  0
 14 15  1  0  0  0
 14 16  1  0  0  0
 16 17  1  0  0  0
 17 50  1  0  0  0
 50 51  1  0  0  0
 12 18  1  0  0  0
 18 19  2  0  0  0
 18 20  1  0  0  0
 20 21  2  0  0  0
 20 22  1  0  0  0
 22 23  1  0  0  0
 23 24  1  0  0  0
 24 25  1  0  0  0
 25 26  1  0  0  0
 26 27  1  0  0  0
 27 28  1  0  0  0
 28 29  2  0  0  0
 28 30  1  0  0  0
 30 31  1  0  0  0
 31 32  1  0  0  0
 32 33  1  0  0  0
 32 34  1  0  0  0
 34 35  1  0  0  0
 34 36  1  0  0  0
 36 37  1  0  0  0
 37 38  2  0  0  0
 31 41  1  0  0  0
 41 42  1  0  0  0
 41 43  2  0  0  0
 43 44  1  0  0  0
 44 45  2  0  0  0
 37  1  1  0  0  0
 17 10  1  0  0  0
 27 22  1  0  0  0
 13 39  1  0  0  0
 35 40  1  0  0  0
M  END
> <minimizedAffinity>
-0.05343

> <CNNscore>
0.3580782413

> <CNNaffinity>
6.5697860718

> <CNN_VS>
2.3524973392

> <CNNaffinity_variance>
0.4761240482

$$$$
[H]O[C@]12O[C@]([H])([C@@]([H])(OC([H])([H])[H])C([H])([H])[C@@]([H])(C([H])([H])[H])C([H])([H])/C(C([H])([H])[H])=C(\[H])[C@@]([H])(C([H])([H])C([H])([H])[H])C(=O)C([H])([H])[C@@]([H])(O[H])[C@@]([H])(C([H])([H])[H])[C@@]([H])(/C(=C(\[H])C([H])=C([H])[H])C([H])([H])[H])OC(=O)[C@@]3([H])N(C(=O)C1=O)C([H])([H])C([H])([H])C([H])([H])C3([H])[H])[C@@]([H])(OC([H])([H])[H])C([H])([H])[C@@]2([H])C([H])([H])[H]


 51 53  0  0  0  0  0  0  0  0999 V2000
  -89.6815   30.5194   -2.0949 C   0  0  0  0  0  0  0  0  0  0  0  0
  -90.9017   31.1392   -2.6083 C   0  0  0  0  0  0  0  0  0  0  0  0
  -92.1277   30.7050   -2.7167 C   0  0  0  0  0  0  0  0  0  0  0  0
  -93.1808   31.6424   -3.3182 C   0  0  0  0  0  0  0  0  0  0  0  0
  -92.6704   29.3850   -2.3183 C   0  0  0  0  0  0  0  0  0  0  0  0
  -92.3581   28.2641   -3.2792 C   0  0  0  0  0  0  0  0  0  0  0  0
  -92.8874   28.4372   -4.6538 C   0  0  0  0  0  0  0  0  0  0  0  0
  -92.6344   26.9706   -2.6091 C   0  0  0  0  0  0  0  0  0  0  0  0
  -93.8722   26.2471   -3.0195 C   0  0  0  0  0  0  0  0  0  0  0  0
  -93.6358   24.7669   -3.2181 C   0  0  0  0  0  0  0  0  0  0  0  0
  -94.1042   23.9917   -2.1843 O   0  0  0  0  0  0  0  0  0  0  0  0
  -93.3407   22.8281   -2.1419 C   0  0  0  0  0  0  0  0  0  0  0  0
  -92.0117   23.2102   -1.9500 O   0  0  0  0  0  0  0  0  0  0  0  0
  -93.4110   22.1928   -3.5116 C   0  0  0  0  0  0  0  0  0  0  0  0
  -92.0662   21.9619   -4.1510 C   0  0  0  0  0  0  0  0  0  0  0  0
  -94.4164   22.8308   -4.4301 C   0  0  0  0  0  0  0  0  0  0  0  0
  -94.2901   24.3416   -4.5029 C   0  0  0  0  0  0  0  0  0  0  0  0
  -93.7223   21.9404   -1.0203 C   0  0  0  0  0  0  0  0  0  0  0  0
  -94.3962   20.9566   -1.5809 O   0  0  0  0  0  0  0  0  0  0  0  0
  -93.5206   21.9588    0.3891 C   0  0  0  0  0  0  0  0  0  0  0  0
  -94.6887   21.8834    1.0340 O   0  0  0  0  0  0  0  0  0  0  0  0
  -92.5314   22.0265    1.3663 N   0  0  0  0  0  0  0  0  0  0  0  0
  -92.4439   20.9663    2.4535 C   0  0  0  0  0  0  0  0  0  0  0  0
  -91.1496   20.2729    2.1481 C   0  0  0  0  0  0  0  0  0  0  0  0
  -89.9846   21.1163    1.8787 C   0  0  0  0  0  0  0  0  0  0  0  0
  -90.2372   22.3906    1.0657 C   0  0  0  0  0  0  0  0  0  0  0  0
  -91.4768   22.9866    1.6143 C   0  0  0  0  0  0  0  0  0  0  0  0
  -91.7682   24.3850    1.4597 C   0  0  0  0  0  0  0  0  0  0  0  0
  -92.8994   24.6720    0.9255 O   0  0  0  0  0  0  0  0  0  0  0  0
  -91.0461   25.4823    1.7880 O   0  0  0  0  0  0  0  0  0  0  0  0
  -89.7474   25.8234    1.9333 C   0  0  0  0  0  0  0  0  0  0  0  0
  -89.5237   27.3126    1.6448 C   0  0  0  0  0  0  0  0  0  0  0  0
  -90.3122   28.2154    2.5223 C   0  0  0  0  0  0  0  0  0  0  0  0
  -89.9020   27.5662    0.2029 C   0  0  0  0  0  0  0  0  0  0  0  0
  -89.8504   26.3283   -0.4702 O   0  0  0  0  0  0  0  0  0  0  0  0
  -89.0706   28.5649   -0.5030 C   0  0  0  0  0  0  0  0  0  0  0  0
  -89.7144   29.8752   -0.7874 C   0  0  0  0  0  0  0  0  0  0  0  0
  -90.2894   30.4130    0.1390 O   0  0  0  0  0  0  0  0  0  0  0  0
  -91.4634   22.3968   -2.0208 H   0  0  0  0  0  0  0  0  0  0  0  0
  -88.9145   26.1983   -0.7357 H   0  0  0  0  0  0  0  0  0  0  0  0
  -89.0896   25.5750    3.2269 C   0  0  0  0  0  0  0  0  0  0  0  0
  -88.4823   26.7234    3.9420 C   0  0  0  0  0  0  0  0  0  0  0  0
  -89.0237   24.3863    3.7805 C   0  0  0  0  0  0  0  0  0  0  0  0
  -88.3896   24.0914    5.0462 C   0  0  0  0  0  0  0  0  0  0  0  0
  -88.6629   24.7903    6.1367 C   0  0  0  0  0  0  0  0  0  0  0  0
  -88.7203   32.6998   -1.4035 C   0  0  0  0  0  0  0  0  0  0  0  0
  -88.4800   31.4747   -2.2208 C   0  0  0  0  0  0  0  0  0  0  0  0
  -94.9101   26.4075   -2.0791 O   0  0  0  0  0  0  0  0  0  0  0  0
  -94.6395   25.7695   -0.8723 C   0  0  0  0  0  0  0  0  0  0  0  0
  -93.5084   24.6362   -5.5895 O   0  0  0  0  0  0  0  0  0  0  0  0
  -94.0935   25.4676   -6.5139 C   0  0  0  0  0  0  0  0  0  0  0  0
 46 47  1  0  0  0
 47  1  1  0  0  0
  1  2  1  0  0  0
  2  3  2  0  0  0
  3  4  1  0  0  0
  3  5  1  0  0  0
  5  6  1  0  0  0
  6  7  1  0  0  0
  6  8  1  0  0  0
  8  9  1  0  0  0
  9 48  1  0  0  0
 48 49  1  0  0  0
  9 10  1  0  0  0
 10 11  1  0  0  0
 11 12  1  0  0  0
 12 13  1  0  0  0
 12 14  1  0  0  0
 14 15  1  0  0  0
 14 16  1  0  0  0
 16 17  1  0  0  0
 17 50  1  0  0  0
 50 51  1  0  0  0
 12 18  1  0  0  0
 18 19  2  0  0  0
 18 20  1  0  0  0
 20 21  2  0  0  0
 20 22  1  0  0  0
 22 23  1  0  0  0
 23 24  1  0  0  0
 24 25  1  0  0  0
 25 26  1  0  0  0
 26 27  1  0  0  0
 27 28  1  0  0  0
 28 29  2  0  0  0
 28 30  1  0  0  0
 30 31  1  0  0  0
 31 32  1  0  0  0
 32 33  1  0  0  0
 32 34  1  0  0  0
 34 35  1  0  0  0
 34 36  1  0  0  0
 36 37  1  0  0  0
 37 38  2  0  0  0
 31 41  1  0  0  0
 41 42  1  0  0  0
 41 43  2  0  0  0
 43 44  1  0  0  0
 44 45  2  0  0  0
 37  1  1  0  0  0
 17 10  1  0  0  0
 27 22  1  0  0  0
 13 39  1  0  0  0
 35 40  1  0  0  0
M  END
> <minimizedAffinity>
-2.94311

> <CNNscore>
0.3148587644

> <CNNaffinity>
6.4294462204

> <CNN_VS>
2.0243675709

> <CNNaffinity_variance>
0.1488923281

$$$$
[H]O[C@]12O[C@]([H])([C@@]([H])(OC([H])([H])[H])C([H])([H])[C@@]([H])(C([H])([H])[H])C([H])([H])/C(C([H])([H])[H])=C(\[H])[C@@]([H])(C([H])([H])C([H])([H])[H])C(=O)C([H])([H])[C@@]([H])(O[H])[C@@]([H])(C([H])([H])[H])[C@@]([H])(/C(=C(\[H])C([H])=C([H])[H])C([H])([H])[H])OC(=O)[C@@]3([H])N(C(=O)C1=O)C([H])([H])C([H])([H])C([H])([H])C3([H])[H])[C@@]([H])(OC([H])([H])[H])C([H])([H])[C@@]2([H])C([H])([H])[H]


 51 53  0  0  0  0  0  0  0  0999 V2000
  -86.6409   29.8554    1.2355 C   0  0  0  0  0  0  0  0  0  0  0  0
  -86.1959   28.4710    1.0868 C   0  0  0  0  0  0  0  0  0  0  0  0
  -86.5792   27.5064    0.2956 C   0  0  0  0  0  0  0  0  0  0  0  0
  -85.8801   26.1475    0.4141 C   0  0  0  0  0  0  0  0  0  0  0  0
  -87.6305   27.5410   -0.7480 C   0  0  0  0  0  0  0  0  0  0  0  0
  -89.0409   27.4516   -0.2187 C   0  0  0  0  0  0  0  0  0  0  0  0
  -89.3622   26.2137    0.5324 C   0  0  0  0  0  0  0  0  0  0  0  0
  -89.9802   27.8493   -1.2948 C   0  0  0  0  0  0  0  0  0  0  0  0
  -90.7429   26.7568   -1.9647 C   0  0  0  0  0  0  0  0  0  0  0  0
  -92.2013   27.1061   -2.1574 C   0  0  0  0  0  0  0  0  0  0  0  0
  -92.5161   27.4611   -3.4474 O   0  0  0  0  0  0  0  0  0  0  0  0
  -93.6174   28.3118   -3.4006 C   0  0  0  0  0  0  0  0  0  0  0  0
  -93.2567   29.4160   -2.6263 O   0  0  0  0  0  0  0  0  0  0  0  0
  -94.7095   27.5937   -2.6414 C   0  0  0  0  0  0  0  0  0  0  0  0
  -95.2255   28.3508   -1.4452 C   0  0  0  0  0  0  0  0  0  0  0  0
  -94.4078   26.1478   -2.3586 C   0  0  0  0  0  0  0  0  0  0  0  0
  -93.0387   25.9294   -1.7404 C   0  0  0  0  0  0  0  0  0  0  0  0
  -94.0083   28.8070   -4.7399 C   0  0  0  0  0  0  0  0  0  0  0  0
  -95.0954   28.1292   -5.0478 O   0  0  0  0  0  0  0  0  0  0  0  0
  -93.4803   29.7666   -5.6497 C   0  0  0  0  0  0  0  0  0  0  0  0
  -93.2553   29.2106   -6.8440 O   0  0  0  0  0  0  0  0  0  0  0  0
  -93.1048   31.1028   -5.7568 N   0  0  0  0  0  0  0  0  0  0  0  0
  -93.6912   31.9864   -6.8473 C   0  0  0  0  0  0  0  0  0  0  0  0
  -94.5107   32.9783   -6.0764 C   0  0  0  0  0  0  0  0  0  0  0  0
  -93.8842   33.6038   -4.9113 C   0  0  0  0  0  0  0  0  0  0  0  0
  -92.9898   32.7042   -4.0514 C   0  0  0  0  0  0  0  0  0  0  0  0
  -92.1736   31.9125   -5.0001 C   0  0  0  0  0  0  0  0  0  0  0  0
  -90.9188   31.3333   -4.6071 C   0  0  0  0  0  0  0  0  0  0  0  0
  -90.7947   30.0698   -4.7952 O   0  0  0  0  0  0  0  0  0  0  0  0
  -89.8144   31.8968   -4.0628 O   0  0  0  0  0  0  0  0  0  0  0  0
  -89.5075   32.9579   -3.2856 C   0  0  0  0  0  0  0  0  0  0  0  0
  -88.2430   32.6989   -2.4580 C   0  0  0  0  0  0  0  0  0  0  0  0
  -87.0427   32.3993   -3.2802 C   0  0  0  0  0  0  0  0  0  0  0  0
  -88.5219   31.5291   -1.5413 C   0  0  0  0  0  0  0  0  0  0  0  0
  -89.9218   31.4158   -1.4167 O   0  0  0  0  0  0  0  0  0  0  0  0
  -87.8964   31.6103   -0.2038 C   0  0  0  0  0  0  0  0  0  0  0  0
  -86.7541   30.6911    0.0462 C   0  0  0  0  0  0  0  0  0  0  0  0
  -85.8849   30.6577   -0.8030 O   0  0  0  0  0  0  0  0  0  0  0  0
  -94.0644   29.9652   -2.5111 H   0  0  0  0  0  0  0  0  0  0  0  0
  -90.1861   32.0392   -0.7062 H   0  0  0  0  0  0  0  0  0  0  0  0
  -89.2922   34.2665   -3.9251 C   0  0  0  0  0  0  0  0  0  0  0  0
  -89.2554   34.3309   -5.4061 C   0  0  0  0  0  0  0  0  0  0  0  0
  -89.1404   35.3795   -3.2455 C   0  0  0  0  0  0  0  0  0  0  0  0
  -88.9261   36.6866   -3.8258 C   0  0  0  0  0  0  0  0  0  0  0  0
  -87.8318   37.3863   -3.5707 C   0  0  0  0  0  0  0  0  0  0  0  0
  -84.4646   30.0446    2.4118 C   0  0  0  0  0  0  0  0  0  0  0  0
  -85.8595   30.5711    2.3531 C   0  0  0  0  0  0  0  0  0  0  0  0
  -90.1961   26.4298   -3.2223 O   0  0  0  0  0  0  0  0  0  0  0  0
  -89.2340   27.3446   -3.6396 C   0  0  0  0  0  0  0  0  0  0  0  0
  -93.2049   25.8841   -0.3807 O   0  0  0  0  0  0  0  0  0  0  0  0
  -92.8693   24.6862    0.2028 C   0  0  0  0  0  0  0  0  0  0  0  0
 46 47  1  0  0  0
 47  1  1  0  0  0
  1  2  1  0  0  0
  2  3  2  0  0  0
  3  4  1  0  0  0
  3  5  1  0  0  0
  5  6  1  0  0  0
  6  7  1  0  0  0
  6  8  1  0  0  0
  8  9  1  0  0  0
  9 48  1  0  0  0
 48 49  1  0  0  0
  9 10  1  0  0  0
 10 11  1  0  0  0
 11 12  1  0  0  0
 12 13  1  0  0  0
 12 14  1  0  0  0
 14 15  1  0  0  0
 14 16  1  0  0  0
 16 17  1  0  0  0
 17 50  1  0  0  0
 50 51  1  0  0  0
 12 18  1  0  0  0
 18 19  2  0  0  0
 18 20  1  0  0  0
 20 21  2  0  0  0
 20 22  1  0  0  0
 22 23  1  0  0  0
 23 24  1  0  0  0
 24 25  1  0  0  0
 25 26  1  0  0  0
 26 27  1  0  0  0
 27 28  1  0  0  0
 28 29  2  0  0  0
 28 30  1  0  0  0
 30 31  1  0  0  0
 31 32  1  0  0  0
 32 33  1  0  0  0
 32 34  1  0  0  0
 34 35  1  0  0  0
 34 36  1  0  0  0
 36 37  1  0  0  0
 37 38  2  0  0  0
 31 41  1  0  0  0
 41 42  1  0  0  0
 41 43  2  0  0  0
 43 44  1  0  0  0
 44 45  2  0  0  0
 37  1  1  0  0  0
 17 10  1  0  0  0
 27 22  1  0  0  0
 13 39  1  0  0  0
 35 40  1  0  0  0
M  END
> <minimizedAffinity>
-4.95165

> <CNNscore>
0.3118235767

> <CNNaffinity>
6.8144860268

> <CNN_VS>
2.1249175072

> <CNNaffinity_variance>
0.3736395538

$$$$
[H]O[C@]12O[C@]([H])([C@@]([H])(OC([H])([H])[H])C([H])([H])[C@@]([H])(C([H])([H])[H])C([H])([H])/C(C([H])([H])[H])=C(\[H])[C@@]([H])(C([H])([H])C([H])([H])[H])C(=O)C([H])([H])[C@@]([H])(O[H])[C@@]([H])(C([H])([H])[H])[C@@]([H])(/C(=C(\[H])C([H])=C([H])[H])C([H])([H])[H])OC(=O)[C@@]3([H])N(C(=O)C1=O)C([H])([H])C([H])([H])C([H])([H])C3([H])[H])[C@@]([H])(OC([H])([H])[H])C([H])([H])[C@@]2([H])C([H])([H])[H]


 51 53  0  0  0  0  0  0  0  0999 V2000
  -92.8700   34.7882   -4.4502 C   0  0  0  0  0  0  0  0  0  0  0  0
  -91.8565   35.4696   -5.2533 C   0  0  0  0  0  0  0  0  0  0  0  0
  -90.6031   35.1996   -5.4973 C   0  0  0  0  0  0  0  0  0  0  0  0
  -89.8167   36.1538   -6.4031 C   0  0  0  0  0  0  0  0  0  0  0  0
  -89.8016   34.0524   -5.0103 C   0  0  0  0  0  0  0  0  0  0  0  0
  -89.3304   34.1794   -3.5823 C   0  0  0  0  0  0  0  0  0  0  0  0
  -88.4495   35.3395   -3.3030 C   0  0  0  0  0  0  0  0  0  0  0  0
  -88.8646   32.8520   -3.1140 C   0  0  0  0  0  0  0  0  0  0  0  0
  -87.3907   32.6507   -3.0092 C   0  0  0  0  0  0  0  0  0  0  0  0
  -86.9942   31.9482   -1.7303 C   0  0  0  0  0  0  0  0  0  0  0  0
  -86.6766   30.6225   -1.9067 O   0  0  0  0  0  0  0  0  0  0  0  0
  -86.9344   29.9578   -0.7107 C   0  0  0  0  0  0  0  0  0  0  0  0
  -88.2875   30.1382   -0.4185 O   0  0  0  0  0  0  0  0  0  0  0  0
  -86.1621   30.6700    0.3761 C   0  0  0  0  0  0  0  0  0  0  0  0
  -87.0156   31.1521    1.5205 C   0  0  0  0  0  0  0  0  0  0  0  0
  -85.1975   31.7035   -0.1369 C   0  0  0  0  0  0  0  0  0  0  0  0
  -85.8226   32.6705   -1.1259 C   0  0  0  0  0  0  0  0  0  0  0  0
  -86.6825   28.5021   -0.8057 C   0  0  0  0  0  0  0  0  0  0  0  0
  -85.5495   28.3114   -0.1606 O   0  0  0  0  0  0  0  0  0  0  0  0
  -87.3612   27.4019   -1.4026 C   0  0  0  0  0  0  0  0  0  0  0  0
  -86.5525   26.7475   -2.2414 O   0  0  0  0  0  0  0  0  0  0  0  0
  -88.5855   26.7399   -1.4339 N   0  0  0  0  0  0  0  0  0  0  0  0
  -88.6650   25.2467   -1.1551 C   0  0  0  0  0  0  0  0  0  0  0  0
  -89.4271   25.1824    0.1351 C   0  0  0  0  0  0  0  0  0  0  0  0
  -90.6410   25.9930    0.2376 C   0  0  0  0  0  0  0  0  0  0  0  0
  -90.5923   27.3809   -0.4103 C   0  0  0  0  0  0  0  0  0  0  0  0
  -89.9285   27.1971   -1.7213 C   0  0  0  0  0  0  0  0  0  0  0  0
  -90.1234   28.1290   -2.7973 C   0  0  0  0  0  0  0  0  0  0  0  0
  -89.0600   28.6363   -3.3065 O   0  0  0  0  0  0  0  0  0  0  0  0
  -91.2567   28.5770   -3.3874 O   0  0  0  0  0  0  0  0  0  0  0  0
  -92.5526   28.7678   -3.0581 C   0  0  0  0  0  0  0  0  0  0  0  0
  -93.1778   29.9022   -3.8786 C   0  0  0  0  0  0  0  0  0  0  0  0
  -93.1300   29.6740   -5.3457 C   0  0  0  0  0  0  0  0  0  0  0  0
  -92.4325   31.1761   -3.5495 C   0  0  0  0  0  0  0  0  0  0  0  0
  -91.7956   30.9825   -2.3064 O   0  0  0  0  0  0  0  0  0  0  0  0
  -93.2596   32.4014   -3.5126 C   0  0  0  0  0  0  0  0  0  0  0  0
  -93.0725   33.3565   -4.6373 C   0  0  0  0  0  0  0  0  0  0  0  0
  -93.0956   32.8892   -5.7594 O   0  0  0  0  0  0  0  0  0  0  0  0
  -88.4448   29.7551    0.4736 H   0  0  0  0  0  0  0  0  0  0  0  0
  -92.4640   31.1926   -1.6192 H   0  0  0  0  0  0  0  0  0  0  0  0
  -93.4889   27.6381   -3.1802 C   0  0  0  0  0  0  0  0  0  0  0  0
  -93.5238   26.8851   -4.4572 C   0  0  0  0  0  0  0  0  0  0  0  0
  -94.2873   27.2612   -2.2085 C   0  0  0  0  0  0  0  0  0  0  0  0
  -95.2231   26.1611   -2.2793 C   0  0  0  0  0  0  0  0  0  0  0  0
  -95.2167   25.1880   -1.3819 C   0  0  0  0  0  0  0  0  0  0  0  0
  -94.1961   36.6286   -3.4449 C   0  0  0  0  0  0  0  0  0  0  0  0
  -94.2063   35.5535   -4.4796 C   0  0  0  0  0  0  0  0  0  0  0  0
  -86.8834   31.9105   -4.0965 O   0  0  0  0  0  0  0  0  0  0  0  0
  -87.8907   31.3521   -4.8777 C   0  0  0  0  0  0  0  0  0  0  0  0
  -86.2199   33.7775   -0.4224 O   0  0  0  0  0  0  0  0  0  0  0  0
  -85.1969   34.5038    0.1382 C   0  0  0  0  0  0  0  0  0  0  0  0
 46 47  1  0  0  0
 47  1  1  0  0  0
  1  2  1  0  0  0
  2  3  2  0  0  0
  3  4  1  0  0  0
  3  5  1  0  0  0
  5  6  1  0  0  0
  6  7  1  0  0  0
  6  8  1  0  0  0
  8  9  1  0  0  0
  9 48  1  0  0  0
 48 49  1  0  0  0
  9 10  1  0  0  0
 10 11  1  0  0  0
 11 12  1  0  0  0
 12 13  1  0  0  0
 12 14  1  0  0  0
 14 15  1  0  0  0
 14 16  1  0  0  0
 16 17  1  0  0  0
 17 50  1  0  0  0
 50 51  1  0  0  0
 12 18  1  0  0  0
 18 19  2  0  0  0
 18 20  1  0  0  0
 20 21  2  0  0  0
 20 22  1  0  0  0
 22 23  1  0  0  0
 23 24  1  0  0  0
 24 25  1  0  0  0
 25 26  1  0  0  0
 26 27  1  0  0  0
 27 28  1  0  0  0
 28 29  2  0  0  0
 28 30  1  0  0  0
 30 31  1  0  0  0
 31 32  1  0  0  0
 32 33  1  0  0  0
 32 34  1  0  0  0
 34 35  1  0  0  0
 34 36  1  0  0  0
 36 37  1  0  0  0
 37 38  2  0  0  0
 31 41  1  0  0  0
 41 42  1  0  0  0
 41 43  2  0  0  0
 43 44  1  0  0  0
 44 45  2  0  0  0
 37  1  1  0  0  0
 17 10  1  0  0  0
 27 22  1  0  0  0
 13 39  1  0  0  0
 35 40  1  0  0  0
M  END
> <minimizedAffinity>
-3.33746

> <CNNscore>
0.2986239493

> <CNNaffinity>
6.9973649979

> <CNN_VS>
2.0895807743

> <CNNaffinity_variance>
0.3280149996

$$$$
[H]O[C@]12O[C@]([H])([C@@]([H])(OC([H])([H])[H])C([H])([H])[C@@]([H])(C([H])([H])[H])C([H])([H])/C(C([H])([H])[H])=C(\[H])[C@@]([H])(C([H])([H])C([H])([H])[H])C(=O)C([H])([H])[C@@]([H])(O[H])[C@@]([H])(C([H])([H])[H])[C@@]([H])(/C(=C(\[H])C([H])=C([H])[H])C([H])([H])[H])OC(=O)[C@@]3([H])N(C(=O)C1=O)C([H])([H])C([H])([H])C([H])([H])C3([H])[H])[C@@]([H])(OC([H])([H])[H])C([H])([H])[C@@]2([H])C([H])([H])[H]


 51 53  0  0  0  0  0  0  0  0999 V2000
  -88.2445   34.5934   -2.5499 C   0  0  0  0  0  0  0  0  0  0  0  0
  -86.8219   34.2700   -2.4592 C   0  0  0  0  0  0  0  0  0  0  0  0
  -86.1854   33.1363   -2.3449 C   0  0  0  0  0  0  0  0  0  0  0  0
  -84.6546   33.1659   -2.2723 C   0  0  0  0  0  0  0  0  0  0  0  0
  -86.7537   31.7694   -2.2802 C   0  0  0  0  0  0  0  0  0  0  0  0
  -87.3337   31.3956   -0.9382 C   0  0  0  0  0  0  0  0  0  0  0  0
  -86.3774   31.4092    0.1953 C   0  0  0  0  0  0  0  0  0  0  0  0
  -88.1679   30.1807   -1.1009 C   0  0  0  0  0  0  0  0  0  0  0  0
  -87.5971   28.8965   -0.6019 C   0  0  0  0  0  0  0  0  0  0  0  0
  -88.6086   28.0756    0.1658 C   0  0  0  0  0  0  0  0  0  0  0  0
  -89.1131   27.0156   -0.5492 O   0  0  0  0  0  0  0  0  0  0  0  0
  -90.3854   26.7349   -0.0581 C   0  0  0  0  0  0  0  0  0  0  0  0
  -91.1557   27.8884   -0.2170 O   0  0  0  0  0  0  0  0  0  0  0  0
  -90.2540   26.5085    1.4305 C   0  0  0  0  0  0  0  0  0  0  0  0
  -91.1262   27.4079    2.2677 C   0  0  0  0  0  0  0  0  0  0  0  0
  -88.8320   26.4247    1.9126 C   0  0  0  0  0  0  0  0  0  0  0  0
  -87.9641   27.5713    1.4267 C   0  0  0  0  0  0  0  0  0  0  0  0
  -91.0509   25.6409   -0.8010 C   0  0  0  0  0  0  0  0  0  0  0  0
  -90.9874   24.5983    0.0023 O   0  0  0  0  0  0  0  0  0  0  0  0
  -91.6694   25.5248   -2.0782 C   0  0  0  0  0  0  0  0  0  0  0  0
  -91.1130   24.5356   -2.7838 O   0  0  0  0  0  0  0  0  0  0  0  0
  -92.6650   26.0741   -2.8815 N   0  0  0  0  0  0  0  0  0  0  0  0
  -93.7567   25.1941   -3.4711 C   0  0  0  0  0  0  0  0  0  0  0  0
  -94.9941   25.6747   -2.7730 C   0  0  0  0  0  0  0  0  0  0  0  0
  -95.2044   27.1210   -2.7015 C   0  0  0  0  0  0  0  0  0  0  0  0
  -93.9586   27.9815   -2.4643 C   0  0  0  0  0  0  0  0  0  0  0  0
  -92.9041   27.4252   -3.3426 C   0  0  0  0  0  0  0  0  0  0  0  0
  -91.7820   28.2186   -3.7617 C   0  0  0  0  0  0  0  0  0  0  0  0
  -90.6205   27.7311   -3.5158 O   0  0  0  0  0  0  0  0  0  0  0  0
  -91.7292   29.4178   -4.3883 O   0  0  0  0  0  0  0  0  0  0  0  0
  -92.4874   30.5306   -4.4927 C   0  0  0  0  0  0  0  0  0  0  0  0
  -91.6272   31.7713   -4.7605 C   0  0  0  0  0  0  0  0  0  0  0  0
  -90.8161   31.6785   -6.0016 C   0  0  0  0  0  0  0  0  0  0  0  0
  -90.7047   31.9587   -3.5771 C   0  0  0  0  0  0  0  0  0  0  0  0
  -91.2721   31.2673   -2.4870 O   0  0  0  0  0  0  0  0  0  0  0  0
  -90.4325   33.3633   -3.2034 C   0  0  0  0  0  0  0  0  0  0  0  0
  -89.0706   33.8752   -3.5128 C   0  0  0  0  0  0  0  0  0  0  0  0
  -88.6527   33.6694   -4.6357 O   0  0  0  0  0  0  0  0  0  0  0  0
  -92.0207   27.7214    0.2203 H   0  0  0  0  0  0  0  0  0  0  0  0
  -91.9222   31.8802   -2.0809 H   0  0  0  0  0  0  0  0  0  0  0  0
  -93.5529   30.5699   -5.5080 C   0  0  0  0  0  0  0  0  0  0  0  0
  -94.2935   31.8394   -5.7053 C   0  0  0  0  0  0  0  0  0  0  0  0
  -93.8714   29.5364   -6.2525 C   0  0  0  0  0  0  0  0  0  0  0  0
  -94.9082   29.5245   -7.2606 C   0  0  0  0  0  0  0  0  0  0  0  0
  -94.7343   28.9198   -8.4252 C   0  0  0  0  0  0  0  0  0  0  0  0
  -89.5779   36.4069   -3.5934 C   0  0  0  0  0  0  0  0  0  0  0  0
  -88.4612   36.1151   -2.6478 C   0  0  0  0  0  0  0  0  0  0  0  0
  -87.0894   28.1046   -1.6518 O   0  0  0  0  0  0  0  0  0  0  0  0
  -87.6537   28.4256   -2.8827 C   0  0  0  0  0  0  0  0  0  0  0  0
  -87.9595   28.5272    2.4089 O   0  0  0  0  0  0  0  0  0  0  0  0
  -87.9630   28.0369    3.6925 C   0  0  0  0  0  0  0  0  0  0  0  0
 46 47  1  0  0  0
 47  1  1  0  0  0
  1  2  1  0  0  0
  2  3  2  0  0  0
  3  4  1  0  0  0
  3  5  1  0  0  0
  5  6  1  0  0  0
  6  7  1  0  0  0
  6  8  1  0  0  0
  8  9  1  0  0  0
  9 48  1  0  0  0
 48 49  1  0  0  0
  9 10  1  0  0  0
 10 11  1  0  0  0
 11 12  1  0  0  0
 12 13  1  0  0  0
 12 14  1  0  0  0
 14 15  1  0  0  0
 14 16  1  0  0  0
 16 17  1  0  0  0
 17 50  1  0  0  0
 50 51  1  0  0  0
 12 18  1  0  0  0
 18 19  2  0  0  0
 18 20  1  0  0  0
 20 21  2  0  0  0
 20 22  1  0  0  0
 22 23  1  0  0  0
 23 24  1  0  0  0
 24 25  1  0  0  0
 25 26  1  0  0  0
 26 27  1  0  0  0
 27 28  1  0  0  0
 28 29  2  0  0  0
 28 30  1  0  0  0
 30 31  1  0  0  0
 31 32  1  0  0  0
 32 33  1  0  0  0
 32 34  1  0  0  0
 34 35  1  0  0  0
 34 36  1  0  0  0
 36 37  1  0  0  0
 37 38  2  0  0  0
 31 41  1  0  0  0
 41 42  1  0  0  0
 41 43  2  0  0  0
 43 44  1  0  0  0
 44 45  2  0  0  0
 37  1  1  0  0  0
 17 10  1  0  0  0
 27 22  1  0  0  0
 13 39  1  0  0  0
 35 40  1  0  0  0
M  END
> <minimizedAffinity>
-4.31918

> <CNNscore>
0.2949684560

> <CNNaffinity>
6.7428159714

> <CNN_VS>
1.9889180660

> <CNNaffinity_variance>
0.4537604749

$$$$
[H]ON([H])C(=O)C([H])([H])C([H])([H])C([H])([H])C([H])([H])C([H])([H])C([H])([H])C(=O)N([H])c1c([H])c([H])c([H])c(-c2nnn(C([H])([H])c3c([H])c([H])c([H])c([H])c3[H])c2[H])c1[H]


 34 36  0  0  0  0  0  0  0  0999 V2000
  -84.7382   32.2601   -0.2955 C   0  0  0  0  0  0  0  0  0  0  0  0
  -83.4342   32.4361    0.0573 C   0  0  0  0  0  0  0  0  0  0  0  0
  -82.7700   31.4406    0.8053 C   0  0  0  0  0  0  0  0  0  0  0  0
  -83.4511   30.3122    1.1640 C   0  0  0  0  0  0  0  0  0  0  0  0
  -84.7699   30.1002    0.8251 C   0  0  0  0  0  0  0  0  0  0  0  0
  -85.3870   31.0795    0.1016 C   0  0  0  0  0  0  0  0  0  0  0  0
  -85.4274   28.8715    1.2435 C   0  0  0  0  0  0  0  0  0  0  0  0
  -86.6847   28.4171    0.9917 C   0  0  0  0  0  0  0  0  0  0  0  0
  -86.8401   27.2237    1.5926 N   0  0  0  0  0  0  0  0  0  0  0  0
  -85.7088   26.9609    2.1924 N   0  0  0  0  0  0  0  0  0  0  0  0
  -84.8316   27.9140    2.0145 N   0  0  0  0  0  0  0  0  0  0  0  0
  -87.9990   26.3551    1.6105 C   0  0  0  0  0  0  0  0  0  0  0  0
  -88.7669   26.4699    2.8612 C   0  0  0  0  0  0  0  0  0  0  0  0
  -89.2616   27.6796    3.2722 C   0  0  0  0  0  0  0  0  0  0  0  0
  -89.9907   27.7694    4.4649 C   0  0  0  0  0  0  0  0  0  0  0  0
  -90.2251   26.6547    5.2449 C   0  0  0  0  0  0  0  0  0  0  0  0
  -89.7269   25.4467    4.8274 C   0  0  0  0  0  0  0  0  0  0  0  0
  -88.9977   25.3615    3.6330 C   0  0  0  0  0  0  0  0  0  0  0  0
  -86.5541   33.0771   -1.8669 C   0  0  0  0  0  0  0  0  0  0  0  0
  -87.1736   32.0148   -2.1186 O   0  0  0  0  0  0  0  0  0  0  0  0
  -85.4417   33.2223   -1.0412 N   0  0  0  0  0  0  0  0  0  0  0  0
  -85.0670   34.2323   -0.9672 H   0  0  0  0  0  0  0  0  0  0  0  0
  -87.1049   34.3072   -2.5519 C   0  0  0  0  0  0  0  0  0  0  0  0
  -88.4440   33.9231   -3.1469 C   0  0  0  0  0  0  0  0  0  0  0  0
  -88.4268   33.9332   -4.6329 C   0  0  0  0  0  0  0  0  0  0  0  0
  -87.7648   35.1666   -5.1952 C   0  0  0  0  0  0  0  0  0  0  0  0
  -88.7468   36.0391   -5.9161 C   0  0  0  0  0  0  0  0  0  0  0  0
  -90.1307   35.4645   -5.9731 C   0  0  0  0  0  0  0  0  0  0  0  0
  -92.7353   36.3620   -3.4522 O   0  0  0  0  0  0  0  0  0  0  0  0
  -91.8127   35.6434   -4.1098 N   0  0  0  0  0  0  0  0  0  0  0  0
  -91.1526   36.2353   -5.2296 C   0  0  0  0  0  0  0  0  0  0  0  0
  -91.4876   37.4123   -5.5285 O   0  0  0  0  0  0  0  0  0  0  0  0
  -92.9004   36.0414   -2.5258 H   0  0  0  0  0  0  0  0  0  0  0  0
  -91.5470   34.6674   -3.8481 H   0  0  0  0  0  0  0  0  0  0  0  0
 29 30  1  0  0  0
 30 31  1  0  0  0
 31 32  2  0  0  0
 31 28  1  0  0  0
 28 27  1  0  0  0
 27 26  1  0  0  0
 26 25  1  0  0  0
 25 24  1  0  0  0
 24 23  1  0  0  0
 23 19  1  0  0  0
 19 20  2  0  0  0
 19 21  1  0  0  0
 21  1  1  0  0  0
  1  2  2  0  0  0
  2  3  1  0  0  0
  3  4  2  0  0  0
  4  5  1  0  0  0
  5  6  2  0  0  0
  5  7  1  0  0  0
  7  8  2  0  0  0
  8  9  1  0  0  0
  9 12  1  0  0  0
 12 13  1  0  0  0
 13 14  2  0  0  0
 14 15  1  0  0  0
 15 16  2  0  0  0
 16 17  1  0  0  0
 17 18  2  0  0  0
  9 10  1  0  0  0
 10 11  2  0  0  0
  6  1  1  0  0  0
 11  7  1  0  0  0
 18 13  1  0  0  0
 29 33  1  0  0  0
 30 34  1  0  0  0
 21 22  1  0  0  0
M  END
> <minimizedAffinity>
-8.06598

> <CNNscore>
0.6685995460

> <CNNaffinity>
6.7577209473

> <CNN_VS>
4.5182089806

> <CNNaffinity_variance>
0.1274289638

$$$$
[H]ON([H])C(=O)C([H])([H])C([H])([H])C([H])([H])C([H])([H])C([H])([H])C([H])([H])C(=O)N([H])c1c([H])c([H])c([H])c(-c2nnn(C([H])([H])c3c([H])c([H])c([H])c([H])c3[H])c2[H])c1[H]


 34 36  0  0  0  0  0  0  0  0999 V2000
  -84.5554   32.1705   -0.3988 C   0  0  0  0  0  0  0  0  0  0  0  0
  -83.2999   32.4588    0.0442 C   0  0  0  0  0  0  0  0  0  0  0  0
  -82.6521   31.5783    0.9368 C   0  0  0  0  0  0  0  0  0  0  0  0
  -83.3001   30.4464    1.3427 C   0  0  0  0  0  0  0  0  0  0  0  0
  -84.5697   30.1226    0.9157 C   0  0  0  0  0  0  0  0  0  0  0  0
  -85.1720   30.9922    0.0529 C   0  0  0  0  0  0  0  0  0  0  0  0
  -85.1941   28.8978    1.3922 C   0  0  0  0  0  0  0  0  0  0  0  0
  -86.4764   28.4598    1.2717 C   0  0  0  0  0  0  0  0  0  0  0  0
  -86.5818   27.2631    1.8768 N   0  0  0  0  0  0  0  0  0  0  0  0
  -85.3967   26.9824    2.3514 N   0  0  0  0  0  0  0  0  0  0  0  0
  -84.5317   27.9270    2.0887 N   0  0  0  0  0  0  0  0  0  0  0  0
  -87.7428   26.4075    2.0109 C   0  0  0  0  0  0  0  0  0  0  0  0
  -88.9327   27.1441    2.4678 C   0  0  0  0  0  0  0  0  0  0  0  0
  -89.1804   27.3175    3.8040 C   0  0  0  0  0  0  0  0  0  0  0  0
  -90.3175   28.0219    4.2199 C   0  0  0  0  0  0  0  0  0  0  0  0
  -91.2047   28.5516    3.3043 C   0  0  0  0  0  0  0  0  0  0  0  0
  -90.9506   28.3741    1.9680 C   0  0  0  0  0  0  0  0  0  0  0  0
  -89.8113   27.6684    1.5563 C   0  0  0  0  0  0  0  0  0  0  0  0
  -86.5986   33.3142   -1.3745 C   0  0  0  0  0  0  0  0  0  0  0  0
  -87.5164   32.8691   -0.6429 O   0  0  0  0  0  0  0  0  0  0  0  0
  -85.2406   33.0157   -1.2892 N   0  0  0  0  0  0  0  0  0  0  0  0
  -84.6251   33.5137   -2.0236 H   0  0  0  0  0  0  0  0  0  0  0  0
  -87.0566   34.2728   -2.4500 C   0  0  0  0  0  0  0  0  0  0  0  0
  -88.2407   33.6310   -3.1433 C   0  0  0  0  0  0  0  0  0  0  0  0
  -87.8883   33.0924   -4.4830 C   0  0  0  0  0  0  0  0  0  0  0  0
  -87.8057   31.5862   -4.4972 C   0  0  0  0  0  0  0  0  0  0  0  0
  -88.5600   30.9819   -3.3522 C   0  0  0  0  0  0  0  0  0  0  0  0
  -87.7936   29.9188   -2.6235 C   0  0  0  0  0  0  0  0  0  0  0  0
  -88.4710   26.3324   -1.8339 O   0  0  0  0  0  0  0  0  0  0  0  0
  -87.8388   27.5149   -1.8806 N   0  0  0  0  0  0  0  0  0  0  0  0
  -88.4693   28.6034   -2.5570 C   0  0  0  0  0  0  0  0  0  0  0  0
  -89.5957   28.3749   -3.0726 O   0  0  0  0  0  0  0  0  0  0  0  0
  -88.1583   25.7451   -1.0954 H   0  0  0  0  0  0  0  0  0  0  0  0
  -86.9038   27.6868   -1.4472 H   0  0  0  0  0  0  0  0  0  0  0  0
 29 30  1  0  0  0
 30 31  1  0  0  0
 31 32  2  0  0  0
 31 28  1  0  0  0
 28 27  1  0  0  0
 27 26  1  0  0  0
 26 25  1  0  0  0
 25 24  1  0  0  0
 24 23  1  0  0  0
 23 19  1  0  0  0
 19 20  2  0  0  0
 19 21  1  0  0  0
 21  1  1  0  0  0
  1  2  2  0  0  0
  2  3  1  0  0  0
  3  4  2  0  0  0
  4  5  1  0  0  0
  5  6  2  0  0  0
  5  7  1  0  0  0
  7  8  2  0  0  0
  8  9  1  0  0  0
  9 12  1  0  0  0
 12 13  1  0  0  0
 13 14  2  0  0  0
 14 15  1  0  0  0
 15 16  2  0  0  0
 16 17  1  0  0  0
 17 18  2  0  0  0
  9 10  1  0  0  0
 10 11  2  0  0  0
  6  1  1  0  0  0
 11  7  1  0  0  0
 18 13  1  0  0  0
 29 33  1  0  0  0
 30 34  1  0  0  0
 21 22  1  0  0  0
M  END
> <minimizedAffinity>
-8.78599

> <CNNscore>
0.6075811386

> <CNNaffinity>
6.9786529541

> <CNN_VS>
4.2400979996

> <CNNaffinity_variance>
0.1713134348

$$$$
[H]ON([H])C(=O)C([H])([H])C([H])([H])C([H])([H])C([H])([H])C([H])([H])C([H])([H])C(=O)N([H])c1c([H])c([H])c([H])c(-c2nnn(C([H])([H])c3c([H])c([H])c([H])c([H])c3[H])c2[H])c1[H]


 34 36  0  0  0  0  0  0  0  0999 V2000
  -85.3221   32.8011   -0.6944 C   0  0  0  0  0  0  0  0  0  0  0  0
  -84.0217   33.2004   -0.7659 C   0  0  0  0  0  0  0  0  0  0  0  0
  -83.0073   32.3864   -0.2182 C   0  0  0  0  0  0  0  0  0  0  0  0
  -83.3503   31.2058    0.3773 C   0  0  0  0  0  0  0  0  0  0  0  0
  -84.6545   30.7700    0.4680 C   0  0  0  0  0  0  0  0  0  0  0  0
  -85.6146   31.5774   -0.0702 C   0  0  0  0  0  0  0  0  0  0  0  0
  -84.9408   29.4996    1.1169 C   0  0  0  0  0  0  0  0  0  0  0  0
  -86.0159   28.6744    0.9994 C   0  0  0  0  0  0  0  0  0  0  0  0
  -85.8321   27.6100    1.8009 N   0  0  0  0  0  0  0  0  0  0  0  0
  -84.6776   27.7840    2.3888 N   0  0  0  0  0  0  0  0  0  0  0  0
  -84.1046   28.8980    2.0143 N   0  0  0  0  0  0  0  0  0  0  0  0
  -86.6978   26.4688    2.0152 C   0  0  0  0  0  0  0  0  0  0  0  0
  -88.1184   26.7959    1.8099 C   0  0  0  0  0  0  0  0  0  0  0  0
  -88.7521   26.4673    0.6406 C   0  0  0  0  0  0  0  0  0  0  0  0
  -90.1046   26.7861    0.4634 C   0  0  0  0  0  0  0  0  0  0  0  0
  -90.8222   27.4310    1.4510 C   0  0  0  0  0  0  0  0  0  0  0  0
  -90.1814   27.7571    2.6192 C   0  0  0  0  0  0  0  0  0  0  0  0
  -88.8275   27.4361    2.7921 C   0  0  0  0  0  0  0  0  0  0  0  0
  -87.2793   33.2780   -2.2359 C   0  0  0  0  0  0  0  0  0  0  0  0
  -87.3514   32.2133   -2.8970 O   0  0  0  0  0  0  0  0  0  0  0  0
  -86.3671   33.5767   -1.2265 N   0  0  0  0  0  0  0  0  0  0  0  0
  -86.4867   34.5571   -0.7899 H   0  0  0  0  0  0  0  0  0  0  0  0
  -88.3092   34.3215   -2.6045 C   0  0  0  0  0  0  0  0  0  0  0  0
  -87.5694   35.4575   -3.2806 C   0  0  0  0  0  0  0  0  0  0  0  0
  -88.4904   36.4964   -3.8108 C   0  0  0  0  0  0  0  0  0  0  0  0
  -89.8442   35.9384   -4.1734 C   0  0  0  0  0  0  0  0  0  0  0  0
  -90.9342   36.9388   -3.9364 C   0  0  0  0  0  0  0  0  0  0  0  0
  -92.0962   36.7929   -4.8729 C   0  0  0  0  0  0  0  0  0  0  0  0
  -95.0582   36.6039   -2.6068 O   0  0  0  0  0  0  0  0  0  0  0  0
  -93.8565   36.3278   -3.1358 N   0  0  0  0  0  0  0  0  0  0  0  0
  -93.4177   37.0773   -4.2696 C   0  0  0  0  0  0  0  0  0  0  0  0
  -94.2026   37.9621   -4.7031 O   0  0  0  0  0  0  0  0  0  0  0  0
  -95.1541   36.3038   -1.6640 H   0  0  0  0  0  0  0  0  0  0  0  0
  -93.2177   35.5897   -2.7632 H   0  0  0  0  0  0  0  0  0  0  0  0
 29 30  1  0  0  0
 30 31  1  0  0  0
 31 32  2  0  0  0
 31 28  1  0  0  0
 28 27  1  0  0  0
 27 26  1  0  0  0
 26 25  1  0  0  0
 25 24  1  0  0  0
 24 23  1  0  0  0
 23 19  1  0  0  0
 19 20  2  0  0  0
 19 21  1  0  0  0
 21  1  1  0  0  0
  1  2  2  0  0  0
  2  3  1  0  0  0
  3  4  2  0  0  0
  4  5  1  0  0  0
  5  6  2  0  0  0
  5  7  1  0  0  0
  7  8  2  0  0  0
  8  9  1  0  0  0
  9 12  1  0  0  0
 12 13  1  0  0  0
 13 14  2  0  0  0
 14 15  1  0  0  0
 15 16  2  0  0  0
 16 17  1  0  0  0
 17 18  2  0  0  0
  9 10  1  0  0  0
 10 11  2  0  0  0
  6  1  1  0  0  0
 11  7  1  0  0  0
 18 13  1  0  0  0
 29 33  1  0  0  0
 30 34  1  0  0  0
 21 22  1  0  0  0
M  END
> <minimizedAffinity>
-7.31781

> <CNNscore>
0.5017805099

> <CNNaffinity>
6.6085524559

> <CNN_VS>
3.3160429001

> <CNNaffinity_variance>
0.1149958745

$$$$
[H]ON([H])C(=O)C([H])([H])C([H])([H])C([H])([H])C([H])([H])C([H])([H])C([H])([H])C(=O)N([H])c1c([H])c([H])c([H])c(-c2nnn(C([H])([H])c3c([H])c([H])c([H])c([H])c3[H])c2[H])c1[H]


 34 36  0  0  0  0  0  0  0  0999 V2000
  -85.3127   32.5806   -0.5206 C   0  0  0  0  0  0  0  0  0  0  0  0
  -83.9679   32.7772   -0.4288 C   0  0  0  0  0  0  0  0  0  0  0  0
  -83.1513   31.7800    0.1461 C   0  0  0  0  0  0  0  0  0  0  0  0
  -83.7283   30.6291    0.6027 C   0  0  0  0  0  0  0  0  0  0  0  0
  -85.0843   30.3958    0.5265 C   0  0  0  0  0  0  0  0  0  0  0  0
  -85.8495   31.3774   -0.0341 C   0  0  0  0  0  0  0  0  0  0  0  0
  -85.6245   29.1439    1.0343 C   0  0  0  0  0  0  0  0  0  0  0  0
  -86.8195   28.5399    0.7939 C   0  0  0  0  0  0  0  0  0  0  0  0
  -86.8700   27.3911    1.4920 N   0  0  0  0  0  0  0  0  0  0  0  0
  -85.7373   27.3003    2.1380 N   0  0  0  0  0  0  0  0  0  0  0  0
  -84.9579   28.3224    1.8987 N   0  0  0  0  0  0  0  0  0  0  0  0
  -87.9330   26.4096    1.5582 C   0  0  0  0  0  0  0  0  0  0  0  0
  -88.7139   26.5115    2.8020 C   0  0  0  0  0  0  0  0  0  0  0  0
  -89.2334   27.7124    3.2079 C   0  0  0  0  0  0  0  0  0  0  0  0
  -89.9745   27.7900    4.3941 C   0  0  0  0  0  0  0  0  0  0  0  0
  -90.1963   26.6716    5.1726 C   0  0  0  0  0  0  0  0  0  0  0  0
  -89.6732   25.4724    4.7602 C   0  0  0  0  0  0  0  0  0  0  0  0
  -88.9321   25.3995    3.5723 C   0  0  0  0  0  0  0  0  0  0  0  0
  -86.8209   33.5481   -2.3161 C   0  0  0  0  0  0  0  0  0  0  0  0
  -86.7753   32.6563   -3.1984 O   0  0  0  0  0  0  0  0  0  0  0  0
  -86.1667   33.5436   -1.0864 N   0  0  0  0  0  0  0  0  0  0  0  0
  -86.3477   34.4180   -0.4791 H   0  0  0  0  0  0  0  0  0  0  0  0
  -87.6886   34.7364   -2.6632 C   0  0  0  0  0  0  0  0  0  0  0  0
  -87.1096   35.3591   -3.9168 C   0  0  0  0  0  0  0  0  0  0  0  0
  -88.1210   36.1322   -4.6838 C   0  0  0  0  0  0  0  0  0  0  0  0
  -88.1520   35.7545   -6.1440 C   0  0  0  0  0  0  0  0  0  0  0  0
  -87.4065   36.7451   -6.9855 C   0  0  0  0  0  0  0  0  0  0  0  0
  -87.0373   37.9989   -6.2505 C   0  0  0  0  0  0  0  0  0  0  0  0
  -83.5904   38.4102   -4.8740 O   0  0  0  0  0  0  0  0  0  0  0  0
  -84.9084   38.1628   -4.9187 N   0  0  0  0  0  0  0  0  0  0  0  0
  -85.5834   38.2664   -6.1731 C   0  0  0  0  0  0  0  0  0  0  0  0
  -84.8830   38.5884   -7.1694 O   0  0  0  0  0  0  0  0  0  0  0  0
  -83.1386   38.0078   -4.0853 H   0  0  0  0  0  0  0  0  0  0  0  0
  -85.4743   37.8967   -4.0817 H   0  0  0  0  0  0  0  0  0  0  0  0
 29 30  1  0  0  0
 30 31  1  0  0  0
 31 32  2  0  0  0
 31 28  1  0  0  0
 28 27  1  0  0  0
 27 26  1  0  0  0
 26 25  1  0  0  0
 25 24  1  0  0  0
 24 23  1  0  0  0
 23 19  1  0  0  0
 19 20  2  0  0  0
 19 21  1  0  0  0
 21  1  1  0  0  0
  1  2  2  0  0  0
  2  3  1  0  0  0
  3  4  2  0  0  0
  4  5  1  0  0  0
  5  6  2  0  0  0
  5  7  1  0  0  0
  7  8  2  0  0  0
  8  9  1  0  0  0
  9 12  1  0  0  0
 12 13  1  0  0  0
 13 14  2  0  0  0
 14 15  1  0  0  0
 15 16  2  0  0  0
 16 17  1  0  0  0
 17 18  2  0  0  0
  9 10  1  0  0  0
 10 11  2  0  0  0
  6  1  1  0  0  0
 11  7  1  0  0  0
 18 13  1  0  0  0
 29 33  1  0  0  0
 30 34  1  0  0  0
 21 22  1  0  0  0
M  END
> <minimizedAffinity>
-8.31352

> <CNNscore>
0.4567770660

> <CNNaffinity>
6.5787725449

> <CNN_VS>
3.0050325394

> <CNNaffinity_variance>
0.0969183668

$$$$
[H]ON([H])C(=O)C([H])([H])C([H])([H])C([H])([H])C([H])([H])C([H])([H])C([H])([H])C(=O)N([H])c1c([H])c([H])c([H])c(-c2nnn(C([H])([H])c3c([H])c([H])c([H])c([H])c3[H])c2[H])c1[H]


 34 36  0  0  0  0  0  0  0  0999 V2000
  -85.3467   32.8512   -0.7098 C   0  0  0  0  0  0  0  0  0  0  0  0
  -84.0537   33.2729   -0.7876 C   0  0  0  0  0  0  0  0  0  0  0  0
  -83.0234   32.4793   -0.2396 C   0  0  0  0  0  0  0  0  0  0  0  0
  -83.3438   31.2957    0.3624 C   0  0  0  0  0  0  0  0  0  0  0  0
  -84.6398   30.8376    0.4595 C   0  0  0  0  0  0  0  0  0  0  0  0
  -85.6157   31.6256   -0.0791 C   0  0  0  0  0  0  0  0  0  0  0  0
  -84.9016   29.5654    1.1153 C   0  0  0  0  0  0  0  0  0  0  0  0
  -85.9233   28.6830    0.9472 C   0  0  0  0  0  0  0  0  0  0  0  0
  -85.7369   27.6438    1.7806 N   0  0  0  0  0  0  0  0  0  0  0  0
  -84.6329   27.8883    2.4363 N   0  0  0  0  0  0  0  0  0  0  0  0
  -84.0949   29.0241    2.0758 N   0  0  0  0  0  0  0  0  0  0  0  0
  -86.5550   26.4626    1.9633 C   0  0  0  0  0  0  0  0  0  0  0  0
  -87.9912   26.7450    1.8055 C   0  0  0  0  0  0  0  0  0  0  0  0
  -88.6639   26.3517    0.6787 C   0  0  0  0  0  0  0  0  0  0  0  0
  -90.0306   26.6286    0.5464 C   0  0  0  0  0  0  0  0  0  0  0  0
  -90.7237   27.2963    1.5364 C   0  0  0  0  0  0  0  0  0  0  0  0
  -90.0439   27.6873    2.6619 C   0  0  0  0  0  0  0  0  0  0  0  0
  -88.6759   27.4080    2.7900 C   0  0  0  0  0  0  0  0  0  0  0  0
  -87.2969   33.2995   -2.2686 C   0  0  0  0  0  0  0  0  0  0  0  0
  -87.3296   32.2455   -2.9496 O   0  0  0  0  0  0  0  0  0  0  0  0
  -86.4068   33.6060   -1.2419 N   0  0  0  0  0  0  0  0  0  0  0  0
  -86.5605   34.5744   -0.7895 H   0  0  0  0  0  0  0  0  0  0  0  0
  -88.3519   34.3195   -2.6323 C   0  0  0  0  0  0  0  0  0  0  0  0
  -87.6361   35.4912   -3.2722 C   0  0  0  0  0  0  0  0  0  0  0  0
  -88.5789   36.4715   -3.8714 C   0  0  0  0  0  0  0  0  0  0  0  0
  -89.8336   35.8200   -4.3974 C   0  0  0  0  0  0  0  0  0  0  0  0
  -89.8212   35.7273   -5.8929 C   0  0  0  0  0  0  0  0  0  0  0  0
  -90.5149   34.5086   -6.4241 C   0  0  0  0  0  0  0  0  0  0  0  0
  -92.8532   35.8355   -9.0156 O   0  0  0  0  0  0  0  0  0  0  0  0
  -92.2430   35.6775   -7.8312 N   0  0  0  0  0  0  0  0  0  0  0  0
  -91.2045   34.7034   -7.7193 C   0  0  0  0  0  0  0  0  0  0  0  0
  -90.9275   34.0476   -8.7586 O   0  0  0  0  0  0  0  0  0  0  0  0
  -93.3025   36.7166   -9.1151 H   0  0  0  0  0  0  0  0  0  0  0  0
  -92.4858   36.2305   -6.9786 H   0  0  0  0  0  0  0  0  0  0  0  0
 29 30  1  0  0  0
 30 31  1  0  0  0
 31 32  2  0  0  0
 31 28  1  0  0  0
 28 27  1  0  0  0
 27 26  1  0  0  0
 26 25  1  0  0  0
 25 24  1  0  0  0
 24 23  1  0  0  0
 23 19  1  0  0  0
 19 20  2  0  0  0
 19 21  1  0  0  0
 21  1  1  0  0  0
  1  2  2  0  0  0
  2  3  1  0  0  0
  3  4  2  0  0  0
  4  5  1  0  0  0
  5  6  2  0  0  0
  5  7  1  0  0  0
  7  8  2  0  0  0
  8  9  1  0  0  0
  9 12  1  0  0  0
 12 13  1  0  0  0
 13 14  2  0  0  0
 14 15  1  0  0  0
 15 16  2  0  0  0
 16 17  1  0  0  0
 17 18  2  0  0  0
  9 10  1  0  0  0
 10 11  2  0  0  0
  6  1  1  0  0  0
 11  7  1  0  0  0
 18 13  1  0  0  0
 29 33  1  0  0  0
 30 34  1  0  0  0
 21 22  1  0  0  0
M  END
> <minimizedAffinity>
-7.39715

> <CNNscore>
0.4054911137

> <CNNaffinity>
6.4604353905

> <CNN_VS>
2.6196491718

> <CNNaffinity_variance>
0.1104944944

$$$$
[H]ON([H])C(=O)C([H])([H])C([H])([H])C([H])([H])C([H])([H])C([H])([H])C([H])([H])C(=O)N([H])c1c([H])c([H])c([H])c(-c2nnn(C([H])([H])c3c([H])c([H])c([H])c([H])c3[H])c2[H])c1[H]


 34 36  0  0  0  0  0  0  0  0999 V2000
  -89.2523   32.6765   -2.2037 C   0  0  0  0  0  0  0  0  0  0  0  0
  -89.3968   33.7576   -3.0198 C   0  0  0  0  0  0  0  0  0  0  0  0
  -88.3105   34.6364   -3.2180 C   0  0  0  0  0  0  0  0  0  0  0  0
  -87.1271   34.3852   -2.5837 C   0  0  0  0  0  0  0  0  0  0  0  0
  -86.9445   33.3021   -1.7514 C   0  0  0  0  0  0  0  0  0  0  0  0
  -88.0120   32.4692   -1.5783 C   0  0  0  0  0  0  0  0  0  0  0  0
  -85.6532   33.1011   -1.1118 C   0  0  0  0  0  0  0  0  0  0  0  0
  -85.3468   32.5765    0.1054 C   0  0  0  0  0  0  0  0  0  0  0  0
  -84.0107   32.5965    0.2594 N   0  0  0  0  0  0  0  0  0  0  0  0
  -83.5196   33.1187   -0.8337 N   0  0  0  0  0  0  0  0  0  0  0  0
  -84.4595   33.4372   -1.6849 N   0  0  0  0  0  0  0  0  0  0  0  0
  -83.2148   32.1465    1.3828 C   0  0  0  0  0  0  0  0  0  0  0  0
  -83.6330   30.8223    1.8718 C   0  0  0  0  0  0  0  0  0  0  0  0
  -82.8354   29.7234    1.6903 C   0  0  0  0  0  0  0  0  0  0  0  0
  -83.2496   28.4715    2.1631 C   0  0  0  0  0  0  0  0  0  0  0  0
  -84.4566   28.3175    2.8153 C   0  0  0  0  0  0  0  0  0  0  0  0
  -85.2503   29.4221    2.9935 C   0  0  0  0  0  0  0  0  0  0  0  0
  -84.8317   30.6731    2.5186 C   0  0  0  0  0  0  0  0  0  0  0  0
  -90.5528   30.5258   -2.5466 C   0  0  0  0  0  0  0  0  0  0  0  0
  -89.8572   29.9397   -3.4118 O   0  0  0  0  0  0  0  0  0  0  0  0
  -90.3046   31.7722   -1.9764 N   0  0  0  0  0  0  0  0  0  0  0  0
  -91.0377   32.0861   -1.2483 H   0  0  0  0  0  0  0  0  0  0  0  0
  -91.7817   29.7652   -2.1028 C   0  0  0  0  0  0  0  0  0  0  0  0
  -91.4864   29.2072   -0.7258 C   0  0  0  0  0  0  0  0  0  0  0  0
  -91.1613   27.7574   -0.7605 C   0  0  0  0  0  0  0  0  0  0  0  0
  -91.1114   27.1429    0.6163 C   0  0  0  0  0  0  0  0  0  0  0  0
  -89.7022   26.8765    1.0503 C   0  0  0  0  0  0  0  0  0  0  0  0
  -89.3041   27.6242    2.2876 C   0  0  0  0  0  0  0  0  0  0  0  0
  -90.1105   26.9008    5.8612 O   0  0  0  0  0  0  0  0  0  0  0  0
  -89.9240   27.5917    4.7263 N   0  0  0  0  0  0  0  0  0  0  0  0
  -89.5171   26.8862    3.5530 C   0  0  0  0  0  0  0  0  0  0  0  0
  -89.3585   25.6417    3.6657 O   0  0  0  0  0  0  0  0  0  0  0  0
  -90.6940   27.3671    6.5172 H   0  0  0  0  0  0  0  0  0  0  0  0
  -90.0601   28.6248    4.6507 H   0  0  0  0  0  0  0  0  0  0  0  0
 29 30  1  0  0  0
 30 31  1  0  0  0
 31 32  2  0  0  0
 31 28  1  0  0  0
 28 27  1  0  0  0
 27 26  1  0  0  0
 26 25  1  0  0  0
 25 24  1  0  0  0
 24 23  1  0  0  0
 23 19  1  0  0  0
 19 20  2  0  0  0
 19 21  1  0  0  0
 21  1  1  0  0  0
  1  2  2  0  0  0
  2  3  1  0  0  0
  3  4  2  0  0  0
  4  5  1  0  0  0
  5  6  2  0  0  0
  5  7  1  0  0  0
  7  8  2  0  0  0
  8  9  1  0  0  0
  9 12  1  0  0  0
 12 13  1  0  0  0
 13 14  2  0  0  0
 14 15  1  0  0  0
 15 16  2  0  0  0
 16 17  1  0  0  0
 17 18  2  0  0  0
  9 10  1  0  0  0
 10 11  2  0  0  0
  6  1  1  0  0  0
 11  7  1  0  0  0
 18 13  1  0  0  0
 29 33  1  0  0  0
 30 34  1  0  0  0
 21 22  1  0  0  0
M  END
> <minimizedAffinity>
-8.82874

> <CNNscore>
0.3515482843

> <CNNaffinity>
6.8164110184

> <CNN_VS>
2.3962976933

> <CNNaffinity_variance>
0.1491604149

$$$$
[H]ON([H])C(=O)C([H])([H])C([H])([H])C([H])([H])C([H])([H])C([H])([H])C([H])([H])C(=O)N([H])c1c([H])c([H])c([H])c(-c2nnn(C([H])([H])c3c([H])c([H])c([H])c([H])c3[H])c2[H])c1[H]


 34 36  0  0  0  0  0  0  0  0999 V2000
  -89.3288   32.2311   -2.0827 C   0  0  0  0  0  0  0  0  0  0  0  0
  -89.5906   33.3030   -2.8816 C   0  0  0  0  0  0  0  0  0  0  0  0
  -88.5920   34.2764   -3.0982 C   0  0  0  0  0  0  0  0  0  0  0  0
  -87.3738   34.1247   -2.4991 C   0  0  0  0  0  0  0  0  0  0  0  0
  -87.0734   33.0540   -1.6852 C   0  0  0  0  0  0  0  0  0  0  0  0
  -88.0581   32.1283   -1.4934 C   0  0  0  0  0  0  0  0  0  0  0  0
  -85.7521   32.9618   -1.0830 C   0  0  0  0  0  0  0  0  0  0  0  0
  -85.3514   32.3639    0.0714 C   0  0  0  0  0  0  0  0  0  0  0  0
  -84.0258   32.5438    0.2125 N   0  0  0  0  0  0  0  0  0  0  0  0
  -83.6327   33.2317   -0.8272 N   0  0  0  0  0  0  0  0  0  0  0  0
  -84.6259   33.5069   -1.6317 N   0  0  0  0  0  0  0  0  0  0  0  0
  -83.1519   32.0930    1.2759 C   0  0  0  0  0  0  0  0  0  0  0  0
  -83.5729   30.7988    1.8372 C   0  0  0  0  0  0  0  0  0  0  0  0
  -82.8031   29.6779    1.6700 C   0  0  0  0  0  0  0  0  0  0  0  0
  -83.2195   28.4551    2.2119 C   0  0  0  0  0  0  0  0  0  0  0  0
  -84.4010   28.3519    2.9187 C   0  0  0  0  0  0  0  0  0  0  0  0
  -85.1667   29.4782    3.0823 C   0  0  0  0  0  0  0  0  0  0  0  0
  -84.7461   30.6999    2.5381 C   0  0  0  0  0  0  0  0  0  0  0  0
  -90.6202   30.1064   -2.5848 C   0  0  0  0  0  0  0  0  0  0  0  0
  -90.1023   29.7405   -3.6681 O   0  0  0  0  0  0  0  0  0  0  0  0
  -90.2905   31.2352   -1.8381 N   0  0  0  0  0  0  0  0  0  0  0  0
  -90.8666   31.3580   -0.9330 H   0  0  0  0  0  0  0  0  0  0  0  0
  -91.7139   29.1990   -2.0691 C   0  0  0  0  0  0  0  0  0  0  0  0
  -91.0569   27.8950   -1.6657 C   0  0  0  0  0  0  0  0  0  0  0  0
  -90.5589   27.9216   -0.2657 C   0  0  0  0  0  0  0  0  0  0  0  0
  -90.1831   26.5511    0.2405 C   0  0  0  0  0  0  0  0  0  0  0  0
  -91.3936   25.7488    0.6098 C   0  0  0  0  0  0  0  0  0  0  0  0
  -91.3784   24.3533    0.0614 C   0  0  0  0  0  0  0  0  0  0  0  0
  -93.3109   21.3169    1.0566 O   0  0  0  0  0  0  0  0  0  0  0  0
  -92.6790   22.2101    0.2800 N   0  0  0  0  0  0  0  0  0  0  0  0
  -92.0815   23.3523    0.8950 C   0  0  0  0  0  0  0  0  0  0  0  0
  -92.1903   23.4447    2.1466 O   0  0  0  0  0  0  0  0  0  0  0  0
  -93.4009   20.4206    0.6364 H   0  0  0  0  0  0  0  0  0  0  0  0
  -92.5984   22.1177   -0.7576 H   0  0  0  0  0  0  0  0  0  0  0  0
 29 30  1  0  0  0
 30 31  1  0  0  0
 31 32  2  0  0  0
 31 28  1  0  0  0
 28 27  1  0  0  0
 27 26  1  0  0  0
 26 25  1  0  0  0
 25 24  1  0  0  0
 24 23  1  0  0  0
 23 19  1  0  0  0
 19 20  2  0  0  0
 19 21  1  0  0  0
 21  1  1  0  0  0
  1  2  2  0  0  0
  2  3  1  0  0  0
  3  4  2  0  0  0
  4  5  1  0  0  0
  5  6  2  0  0  0
  5  7  1  0  0  0
  7  8  2  0  0  0
  8  9  1  0  0  0
  9 12  1  0  0  0
 12 13  1  0  0  0
 13 14  2  0  0  0
 14 15  1  0  0  0
 15 16  2  0  0  0
 16 17  1  0  0  0
 17 18  2  0  0  0
  9 10  1  0  0  0
 10 11  2  0  0  0
  6  1  1  0  0  0
 11  7  1  0  0  0
 18 13  1  0  0  0
 29 33  1  0  0  0
 30 34  1  0  0  0
 21 22  1  0  0  0
M  END
> <minimizedAffinity>
-8.24030

> <CNNscore>
0.3383700550

> <CNNaffinity>
6.5271501541

> <CNN_VS>
2.2085921764

> <CNNaffinity_variance>
0.0491308048

$$$$
[H]ON([H])C(=O)C([H])([H])C([H])([H])C([H])([H])C([H])([H])C([H])([H])C([H])([H])C(=O)N([H])c1c([H])c([H])c([H])c(-c2nnn(C([H])([H])c3c([H])c([H])c([H])c([H])c3[H])c2[H])c1[H]


 34 36  0  0  0  0  0  0  0  0999 V2000
  -84.7760   32.5446   -0.3239 C   0  0  0  0  0  0  0  0  0  0  0  0
  -83.4297   32.7064   -0.1939 C   0  0  0  0  0  0  0  0  0  0  0  0
  -82.6561   31.6898    0.4060 C   0  0  0  0  0  0  0  0  0  0  0  0
  -83.2757   30.5554    0.8479 C   0  0  0  0  0  0  0  0  0  0  0  0
  -84.6346   30.3572    0.7332 C   0  0  0  0  0  0  0  0  0  0  0  0
  -85.3576   31.3569    0.1491 C   0  0  0  0  0  0  0  0  0  0  0  0
  -85.2215   29.1209    1.2274 C   0  0  0  0  0  0  0  0  0  0  0  0
  -86.4883   28.6396    1.1085 C   0  0  0  0  0  0  0  0  0  0  0  0
  -86.5580   27.4504    1.7331 N   0  0  0  0  0  0  0  0  0  0  0  0
  -85.3669   27.2162    2.2178 N   0  0  0  0  0  0  0  0  0  0  0  0
  -84.5315   28.1839    1.9431 N   0  0  0  0  0  0  0  0  0  0  0  0
  -87.6914   26.5600    1.8762 C   0  0  0  0  0  0  0  0  0  0  0  0
  -88.9122   27.2685    2.2945 C   0  0  0  0  0  0  0  0  0  0  0  0
  -89.7780   27.7828    1.3656 C   0  0  0  0  0  0  0  0  0  0  0  0
  -90.9351   28.4534    1.7824 C   0  0  0  0  0  0  0  0  0  0  0  0
  -91.2267   28.6100    3.1227 C   0  0  0  0  0  0  0  0  0  0  0  0
  -90.3554   28.0926    4.0473 C   0  0  0  0  0  0  0  0  0  0  0  0
  -89.1985   27.4222    3.6256 C   0  0  0  0  0  0  0  0  0  0  0  0
  -86.4807   33.4301   -1.9805 C   0  0  0  0  0  0  0  0  0  0  0  0
  -86.7472   32.4021   -2.6497 O   0  0  0  0  0  0  0  0  0  0  0  0
  -85.5881   33.5280   -0.9156 N   0  0  0  0  0  0  0  0  0  0  0  0
  -85.5132   34.5144   -0.4825 H   0  0  0  0  0  0  0  0  0  0  0  0
  -87.2285   34.6729   -2.4068 C   0  0  0  0  0  0  0  0  0  0  0  0
  -87.4266   34.5808   -3.9058 C   0  0  0  0  0  0  0  0  0  0  0  0
  -88.4580   35.5300   -4.3996 C   0  0  0  0  0  0  0  0  0  0  0  0
  -89.5899   34.8339   -5.1138 C   0  0  0  0  0  0  0  0  0  0  0  0
  -90.2642   33.8292   -4.2301 C   0  0  0  0  0  0  0  0  0  0  0  0
  -90.6449   32.5649   -4.9409 C   0  0  0  0  0  0  0  0  0  0  0  0
  -87.6437   30.3587   -4.6775 O   0  0  0  0  0  0  0  0  0  0  0  0
  -88.3999   31.4283   -4.9676 N   0  0  0  0  0  0  0  0  0  0  0  0
  -89.7878   31.3983   -4.6319 C   0  0  0  0  0  0  0  0  0  0  0  0
  -90.2146   30.3513   -4.0765 O   0  0  0  0  0  0  0  0  0  0  0  0
  -86.6724   30.5634   -4.6235 H   0  0  0  0  0  0  0  0  0  0  0  0
  -88.0290   32.2892   -5.4290 H   0  0  0  0  0  0  0  0  0  0  0  0
 29 30  1  0  0  0
 30 31  1  0  0  0
 31 32  2  0  0  0
 31 28  1  0  0  0
 28 27  1  0  0  0
 27 26  1  0  0  0
 26 25  1  0  0  0
 25 24  1  0  0  0
 24 23  1  0  0  0
 23 19  1  0  0  0
 19 20  2  0  0  0
 19 21  1  0  0  0
 21  1  1  0  0  0
  1  2  2  0  0  0
  2  3  1  0  0  0
  3  4  2  0  0  0
  4  5  1  0  0  0
  5  6  2  0  0  0
  5  7  1  0  0  0
  7  8  2  0  0  0
  8  9  1  0  0  0
  9 12  1  0  0  0
 12 13  1  0  0  0
 13 14  2  0  0  0
 14 15  1  0  0  0
 15 16  2  0  0  0
 16 17  1  0  0  0
 17 18  2  0  0  0
  9 10  1  0  0  0
 10 11  2  0  0  0
  6  1  1  0  0  0
 11  7  1  0  0  0
 18 13  1  0  0  0
 29 33  1  0  0  0
 30 34  1  0  0  0
 21 22  1  0  0  0
M  END
> <minimizedAffinity>
-8.29463

> <CNNscore>
0.3327492476

> <CNNaffinity>
6.6622495651

> <CNN_VS>
2.2168586254

> <CNNaffinity_variance>
0.1268490851

$$$$
[H]ON([H])C(=O)C([H])([H])C([H])([H])C([H])([H])C([H])([H])C([H])([H])C([H])([H])C(=O)N([H])c1c([H])c([H])c([H])c(-c2nnn(C([H])([H])c3c([H])c([H])c([H])c([H])c3[H])c2[H])c1[H]


 34 36  0  0  0  0  0  0  0  0999 V2000
  -89.2464   31.7143   -2.3824 C   0  0  0  0  0  0  0  0  0  0  0  0
  -89.6780   32.8456   -3.0066 C   0  0  0  0  0  0  0  0  0  0  0  0
  -88.8573   33.9935   -3.0235 C   0  0  0  0  0  0  0  0  0  0  0  0
  -87.6377   33.9486   -2.4098 C   0  0  0  0  0  0  0  0  0  0  0  0
  -87.1685   32.8224   -1.7690 C   0  0  0  0  0  0  0  0  0  0  0  0
  -87.9833   31.7272   -1.7684 C   0  0  0  0  0  0  0  0  0  0  0  0
  -85.8575   32.8519   -1.1386 C   0  0  0  0  0  0  0  0  0  0  0  0
  -85.4002   32.2104   -0.0296 C   0  0  0  0  0  0  0  0  0  0  0  0
  -84.1136   32.5508    0.1656 N   0  0  0  0  0  0  0  0  0  0  0  0
  -83.7985   33.3759   -0.7980 N   0  0  0  0  0  0  0  0  0  0  0  0
  -84.8056   33.5888   -1.6043 N   0  0  0  0  0  0  0  0  0  0  0  0
  -83.2056   32.1254    1.2108 C   0  0  0  0  0  0  0  0  0  0  0  0
  -83.5880   30.8281    1.7923 C   0  0  0  0  0  0  0  0  0  0  0  0
  -84.7606   30.6889    2.4870 C   0  0  0  0  0  0  0  0  0  0  0  0
  -85.1081   29.4464    3.0327 C   0  0  0  0  0  0  0  0  0  0  0  0
  -84.2873   28.3462    2.8850 C   0  0  0  0  0  0  0  0  0  0  0  0
  -83.1147   28.4927    2.1883 C   0  0  0  0  0  0  0  0  0  0  0  0
  -82.7709   29.7382    1.6439 C   0  0  0  0  0  0  0  0  0  0  0  0
  -89.6953   29.2347   -2.6733 C   0  0  0  0  0  0  0  0  0  0  0  0
  -88.5876   28.8204   -3.0943 O   0  0  0  0  0  0  0  0  0  0  0  0
  -90.0273   30.5459   -2.3402 N   0  0  0  0  0  0  0  0  0  0  0  0
  -91.0428   30.6780   -1.9977 H   0  0  0  0  0  0  0  0  0  0  0  0
  -90.7549   28.1664   -2.5259 C   0  0  0  0  0  0  0  0  0  0  0  0
  -92.0773   28.7947   -2.9147 C   0  0  0  0  0  0  0  0  0  0  0  0
  -92.4185   28.5579   -4.3417 C   0  0  0  0  0  0  0  0  0  0  0  0
  -93.8060   29.0355   -4.6915 C   0  0  0  0  0  0  0  0  0  0  0  0
  -94.8015   27.9164   -4.6478 C   0  0  0  0  0  0  0  0  0  0  0  0
  -95.0422   27.2754   -5.9819 C   0  0  0  0  0  0  0  0  0  0  0  0
  -94.9825   29.3916   -9.0580 O   0  0  0  0  0  0  0  0  0  0  0  0
  -94.5697   28.5446   -8.1029 N   0  0  0  0  0  0  0  0  0  0  0  0
  -95.4722   28.2074   -7.0485 C   0  0  0  0  0  0  0  0  0  0  0  0
  -96.6143   28.7375   -7.0881 O   0  0  0  0  0  0  0  0  0  0  0  0
  -94.4615   29.3212   -9.9017 H   0  0  0  0  0  0  0  0  0  0  0  0
  -93.6179   28.1139   -8.0855 H   0  0  0  0  0  0  0  0  0  0  0  0
 29 30  1  0  0  0
 30 31  1  0  0  0
 31 32  2  0  0  0
 31 28  1  0  0  0
 28 27  1  0  0  0
 27 26  1  0  0  0
 26 25  1  0  0  0
 25 24  1  0  0  0
 24 23  1  0  0  0
 23 19  1  0  0  0
 19 20  2  0  0  0
 19 21  1  0  0  0
 21  1  1  0  0  0
  1  2  2  0  0  0
  2  3  1  0  0  0
  3  4  2  0  0  0
  4  5  1  0  0  0
  5  6  2  0  0  0
  5  7  1  0  0  0
  7  8  2  0  0  0
  8  9  1  0  0  0
  9 12  1  0  0  0
 12 13  1  0  0  0
 13 14  2  0  0  0
 14 15  1  0  0  0
 15 16  2  0  0  0
 16 17  1  0  0  0
 17 18  2  0  0  0
  9 10  1  0  0  0
 10 11  2  0  0  0
  6  1  1  0  0  0
 11  7  1  0  0  0
 18 13  1  0  0  0
 29 33  1  0  0  0
 30 34  1  0  0  0
 21 22  1  0  0  0
M  END
> <minimizedAffinity>
-8.03187

> <CNNscore>
0.3229010403

> <CNNaffinity>
6.2494878769

> <CNN_VS>
2.0179660320

> <CNNaffinity_variance>
0.0837736353

$$$$
[H]c1c([H])c([H])c(C([H])([H])OC(=O)[C@@]([H])(N([H])C(=O)[C@@]([H])(N([H])C(=O)[C@]2([H])OC(=O)[C@@]2([H])[C@@]([H])(C([H])([H])[H])C([H])([H])C([H])([H])[H])C([H])(C([H])([H])[H])C([H])([H])[H])C([H])(C([H])([H])[H])C([H])([H])[H])c(Cl)c1[H]


 36 37  0  0  0  0  0  0  0  0999 V2000
  -89.8515   28.6243    0.1353 C   0  0  0  0  0  0  0  0  0  0  0  0
  -89.9132   29.6680    0.8855 O   0  0  0  0  0  0  0  0  0  0  0  0
  -89.2626   27.5034    0.7337 N   0  0  0  0  0  0  0  0  0  0  0  0
  -89.1718   26.6130    0.2312 H   0  0  0  0  0  0  0  0  0  0  0  0
  -90.3920   28.6855   -1.2501 C   0  0  0  0  0  0  0  0  0  0  0  0
  -90.6388   30.7866   -2.6134 C   0  0  0  0  0  0  0  0  0  0  0  0
  -91.8698   30.6010   -2.7001 O   0  0  0  0  0  0  0  0  0  0  0  0
  -89.8392   29.8807   -1.9111 N   0  0  0  0  0  0  0  0  0  0  0  0
  -88.8176   30.0614   -1.8533 H   0  0  0  0  0  0  0  0  0  0  0  0
  -88.5547   32.0810   -3.0956 C   0  0  0  0  0  0  0  0  0  0  0  0
  -90.0661   31.9786   -3.2637 C   0  0  0  0  0  0  0  0  0  0  0  0
  -89.9036   31.8549   -4.6701 O   0  0  0  0  0  0  0  0  0  0  0  0
  -88.6159   31.4021   -4.4440 C   0  0  0  0  0  0  0  0  0  0  0  0
  -87.8448   30.6931   -5.1431 O   0  0  0  0  0  0  0  0  0  0  0  0
  -88.0121   33.4736   -3.2732 C   0  0  0  0  0  0  0  0  0  0  0  0
  -88.9959   34.5367   -2.8732 C   0  0  0  0  0  0  0  0  0  0  0  0
  -86.8789   33.1792   -1.0523 C   0  0  0  0  0  0  0  0  0  0  0  0
  -86.7220   33.5907   -2.4971 C   0  0  0  0  0  0  0  0  0  0  0  0
  -90.1364   27.4860   -2.0952 C   0  0  0  0  0  0  0  0  0  0  0  0
  -88.8207   27.7866   -2.8389 C   0  0  0  0  0  0  0  0  0  0  0  0
  -91.1544   27.2372   -3.1509 C   0  0  0  0  0  0  0  0  0  0  0  0
  -88.7672   27.5107    2.1103 C   0  0  0  0  0  0  0  0  0  0  0  0
  -89.3104   26.3900    2.9403 C   0  0  0  0  0  0  0  0  0  0  0  0
  -90.2410   26.8935    4.0349 C   0  0  0  0  0  0  0  0  0  0  0  0
  -90.0287   25.3849    2.0911 C   0  0  0  0  0  0  0  0  0  0  0  0
  -87.2764   27.4850    2.1508 C   0  0  0  0  0  0  0  0  0  0  0  0
  -86.6385   26.4310    2.3550 O   0  0  0  0  0  0  0  0  0  0  0  0
  -86.5641   28.6419    1.9540 O   0  0  0  0  0  0  0  0  0  0  0  0
  -85.4464   29.1102    2.5917 C   0  0  0  0  0  0  0  0  0  0  0  0
  -84.5604   30.0594    1.9251 C   0  0  0  0  0  0  0  0  0  0  0  0
  -84.8568   31.2778    1.3922 C   0  0  0  0  0  0  0  0  0  0  0  0
  -83.9057   32.0901    0.7672 C   0  0  0  0  0  0  0  0  0  0  0  0
  -82.6100   31.6763    0.6690 C   0  0  0  0  0  0  0  0  0  0  0  0
  -82.2694   30.4446    1.1974 C   0  0  0  0  0  0  0  0  0  0  0  0
  -83.2175   29.6582    1.8067 C   0  0  0  0  0  0  0  0  0  0  0  0
  -82.6970   28.1175    2.4457 Cl  0  0  0  0  0  0  0  0  0  0  0  0
 17 18  1  0  0  0
 18 15  1  0  0  0
 15 16  1  0  0  0
 15 10  1  0  0  0
 10 11  1  0  0  0
 11 12  1  0  0  0
 12 13  1  0  0  0
 13 14  2  0  0  0
 11  6  1  0  0  0
  6  7  2  0  0  0
  6  8  1  0  0  0
  8  5  1  0  0  0
  5 19  1  0  0  0
 19 20  1  0  0  0
 19 21  1  0  0  0
  5  1  1  0  0  0
  1  2  2  0  0  0
  1  3  1  0  0  0
  3 22  1  0  0  0
 22 23  1  0  0  0
 23 24  1  0  0  0
 23 25  1  0  0  0
 22 26  1  0  0  0
 26 27  2  0  0  0
 26 28  1  0  0  0
 28 29  1  0  0  0
 29 30  1  0  0  0
 30 31  2  0  0  0
 31 32  1  0  0  0
 32 33  2  0  0  0
 33 34  1  0  0  0
 34 35  2  0  0  0
 35 36  1  0  0  0
 13 10  1  0  0  0
 35 30  1  0  0  0
  8  9  1  0  0  0
  3  4  1  0  0  0
M  END
> <minimizedAffinity>
-8.05022

> <CNNscore>
0.4222361743

> <CNNaffinity>
7.0121431351

> <CNN_VS>
2.9607803822

> <CNNaffinity_variance>
0.1190064102

$$$$
[H]c1c([H])c([H])c(C([H])([H])OC(=O)[C@@]([H])(N([H])C(=O)[C@@]([H])(N([H])C(=O)[C@]2([H])OC(=O)[C@@]2([H])[C@@]([H])(C([H])([H])[H])C([H])([H])C([H])([H])[H])C([H])(C([H])([H])[H])C([H])([H])[H])C([H])(C([H])([H])[H])C([H])([H])[H])c(Cl)c1[H]


 36 37  0  0  0  0  0  0  0  0999 V2000
  -88.6065   29.5590   -2.7141 C   0  0  0  0  0  0  0  0  0  0  0  0
  -87.8286   29.4947   -3.7372 O   0  0  0  0  0  0  0  0  0  0  0  0
  -88.5613   30.7719   -2.0157 N   0  0  0  0  0  0  0  0  0  0  0  0
  -89.1488   30.9375   -1.1904 H   0  0  0  0  0  0  0  0  0  0  0  0
  -89.4611   28.3900   -2.3698 C   0  0  0  0  0  0  0  0  0  0  0  0
  -88.5113   27.5915   -0.1801 C   0  0  0  0  0  0  0  0  0  0  0  0
  -87.5443   27.0725   -0.7743 O   0  0  0  0  0  0  0  0  0  0  0  0
  -89.5023   28.2619   -0.9025 N   0  0  0  0  0  0  0  0  0  0  0  0
  -90.2948   28.6864   -0.3817 H   0  0  0  0  0  0  0  0  0  0  0  0
  -89.9740   27.1987    1.8092 C   0  0  0  0  0  0  0  0  0  0  0  0
  -88.5694   27.4787    1.2880 C   0  0  0  0  0  0  0  0  0  0  0  0
  -88.1291   26.2262    1.7951 O   0  0  0  0  0  0  0  0  0  0  0  0
  -89.4401   25.7868    1.7440 C   0  0  0  0  0  0  0  0  0  0  0  0
  -89.9310   24.6294    1.6705 O   0  0  0  0  0  0  0  0  0  0  0  0
  -90.1788   27.5782    3.2512 C   0  0  0  0  0  0  0  0  0  0  0  0
  -91.1321   28.7274    3.4205 C   0  0  0  0  0  0  0  0  0  0  0  0
  -89.9655   26.2241    5.3544 C   0  0  0  0  0  0  0  0  0  0  0  0
  -90.6409   26.3571    4.0100 C   0  0  0  0  0  0  0  0  0  0  0  0
  -90.8503   28.4272   -2.9055 C   0  0  0  0  0  0  0  0  0  0  0  0
  -91.7213   28.9339   -1.7397 C   0  0  0  0  0  0  0  0  0  0  0  0
  -91.4087   27.1021   -3.2864 C   0  0  0  0  0  0  0  0  0  0  0  0
  -87.7070   31.8875   -2.4230 C   0  0  0  0  0  0  0  0  0  0  0  0
  -88.4587   32.9935   -3.0950 C   0  0  0  0  0  0  0  0  0  0  0  0
  -87.9022   33.2994   -4.4787 C   0  0  0  0  0  0  0  0  0  0  0  0
  -89.9192   32.6714   -3.1993 C   0  0  0  0  0  0  0  0  0  0  0  0
  -86.9412   32.4353   -1.2662 C   0  0  0  0  0  0  0  0  0  0  0  0
  -86.7392   33.6598   -1.1270 O   0  0  0  0  0  0  0  0  0  0  0  0
  -86.4400   31.5864   -0.3107 O   0  0  0  0  0  0  0  0  0  0  0  0
  -85.2657   31.6420    0.3916 C   0  0  0  0  0  0  0  0  0  0  0  0
  -84.7873   30.4724    1.1219 C   0  0  0  0  0  0  0  0  0  0  0  0
  -85.5073   29.4683    1.6960 C   0  0  0  0  0  0  0  0  0  0  0  0
  -84.9185   28.4009    2.3808 C   0  0  0  0  0  0  0  0  0  0  0  0
  -83.5619   28.3280    2.4989 C   0  0  0  0  0  0  0  0  0  0  0  0
  -82.7958   29.3290    1.9301 C   0  0  0  0  0  0  0  0  0  0  0  0
  -83.3913   30.3718    1.2619 C   0  0  0  0  0  0  0  0  0  0  0  0
  -82.3452   31.5910    0.5750 Cl  0  0  0  0  0  0  0  0  0  0  0  0
 17 18  1  0  0  0
 18 15  1  0  0  0
 15 16  1  0  0  0
 15 10  1  0  0  0
 10 11  1  0  0  0
 11 12  1  0  0  0
 12 13  1  0  0  0
 13 14  2  0  0  0
 11  6  1  0  0  0
  6  7  2  0  0  0
  6  8  1  0  0  0
  8  5  1  0  0  0
  5 19  1  0  0  0
 19 20  1  0  0  0
 19 21  1  0  0  0
  5  1  1  0  0  0
  1  2  2  0  0  0
  1  3  1  0  0  0
  3 22  1  0  0  0
 22 23  1  0  0  0
 23 24  1  0  0  0
 23 25  1  0  0  0
 22 26  1  0  0  0
 26 27  2  0  0  0
 26 28  1  0  0  0
 28 29  1  0  0  0
 29 30  1  0  0  0
 30 31  2  0  0  0
 31 32  1  0  0  0
 32 33  2  0  0  0
 33 34  1  0  0  0
 34 35  2  0  0  0
 35 36  1  0  0  0
 13 10  1  0  0  0
 35 30  1  0  0  0
  8  9  1  0  0  0
  3  4  1  0  0  0
M  END
> <minimizedAffinity>
-8.41965

> <CNNscore>
0.2893511951

> <CNNaffinity>
6.7716512680

> <CNN_VS>
1.9593853951

> <CNNaffinity_variance>
0.1139078885

$$$$
[H]c1c([H])c([H])c(C([H])([H])OC(=O)[C@@]([H])(N([H])C(=O)[C@@]([H])(N([H])C(=O)[C@]2([H])OC(=O)[C@@]2([H])[C@@]([H])(C([H])([H])[H])C([H])([H])C([H])([H])[H])C([H])(C([H])([H])[H])C([H])([H])[H])C([H])(C([H])([H])[H])C([H])([H])[H])c(Cl)c1[H]


 36 37  0  0  0  0  0  0  0  0999 V2000
  -88.4588   27.0120    0.0881 C   0  0  0  0  0  0  0  0  0  0  0  0
  -87.7467   26.1798   -0.5873 O   0  0  0  0  0  0  0  0  0  0  0  0
  -89.2098   27.9065   -0.6845 N   0  0  0  0  0  0  0  0  0  0  0  0
  -89.8226   28.6063   -0.2504 H   0  0  0  0  0  0  0  0  0  0  0  0
  -88.4336   26.9584    1.5754 C   0  0  0  0  0  0  0  0  0  0  0  0
  -86.4478   28.5042    1.6128 C   0  0  0  0  0  0  0  0  0  0  0  0
  -87.0235   29.2834    0.8261 O   0  0  0  0  0  0  0  0  0  0  0  0
  -87.0825   27.3311    2.0300 N   0  0  0  0  0  0  0  0  0  0  0  0
  -86.5806   26.7018    2.6871 H   0  0  0  0  0  0  0  0  0  0  0  0
  -84.7828   30.3432    1.9243 C   0  0  0  0  0  0  0  0  0  0  0  0
  -85.0975   28.8604    2.0832 C   0  0  0  0  0  0  0  0  0  0  0  0
  -84.9851   28.9854    3.4944 O   0  0  0  0  0  0  0  0  0  0  0  0
  -85.2565   30.3353    3.3590 C   0  0  0  0  0  0  0  0  0  0  0  0
  -85.7233   31.1790    4.1691 O   0  0  0  0  0  0  0  0  0  0  0  0
  -83.3110   30.6571    1.8967 C   0  0  0  0  0  0  0  0  0  0  0  0
  -82.4693   29.4671    1.5316 C   0  0  0  0  0  0  0  0  0  0  0  0
  -82.9122   31.3572   -0.4811 C   0  0  0  0  0  0  0  0  0  0  0  0
  -83.0820   31.8107    0.9496 C   0  0  0  0  0  0  0  0  0  0  0  0
  -89.4436   27.8060    2.2680 C   0  0  0  0  0  0  0  0  0  0  0  0
  -89.2773   27.4919    3.7674 C   0  0  0  0  0  0  0  0  0  0  0  0
  -90.8587   27.4869    1.9385 C   0  0  0  0  0  0  0  0  0  0  0  0
  -89.1987   27.8901   -2.1474 C   0  0  0  0  0  0  0  0  0  0  0  0
  -90.4505   27.3251   -2.7420 C   0  0  0  0  0  0  0  0  0  0  0  0
  -90.4216   25.8036   -2.7862 C   0  0  0  0  0  0  0  0  0  0  0  0
  -91.6635   27.7844   -1.9901 C   0  0  0  0  0  0  0  0  0  0  0  0
  -88.9521   29.2520   -2.7036 C   0  0  0  0  0  0  0  0  0  0  0  0
  -88.2007   29.4401   -3.6832 O   0  0  0  0  0  0  0  0  0  0  0  0
  -89.5642   30.3445   -2.1414 O   0  0  0  0  0  0  0  0  0  0  0  0
  -89.3423   31.6811   -2.3405 C   0  0  0  0  0  0  0  0  0  0  0  0
  -88.0940   32.2951   -1.8990 C   0  0  0  0  0  0  0  0  0  0  0  0
  -87.5623   32.3473   -0.6456 C   0  0  0  0  0  0  0  0  0  0  0  0
  -86.3507   32.9818   -0.3555 C   0  0  0  0  0  0  0  0  0  0  0  0
  -85.6393   33.5869   -1.3493 C   0  0  0  0  0  0  0  0  0  0  0  0
  -86.1463   33.5562   -2.6356 C   0  0  0  0  0  0  0  0  0  0  0  0
  -87.3398   32.9295   -2.9026 C   0  0  0  0  0  0  0  0  0  0  0  0
  -87.9033   32.9402   -4.5564 Cl  0  0  0  0  0  0  0  0  0  0  0  0
 17 18  1  0  0  0
 18 15  1  0  0  0
 15 16  1  0  0  0
 15 10  1  0  0  0
 10 11  1  0  0  0
 11 12  1  0  0  0
 12 13  1  0  0  0
 13 14  2  0  0  0
 11  6  1  0  0  0
  6  7  2  0  0  0
  6  8  1  0  0  0
  8  5  1  0  0  0
  5 19  1  0  0  0
 19 20  1  0  0  0
 19 21  1  0  0  0
  5  1  1  0  0  0
  1  2  2  0  0  0
  1  3  1  0  0  0
  3 22  1  0  0  0
 22 23  1  0  0  0
 23 24  1  0  0  0
 23 25  1  0  0  0
 22 26  1  0  0  0
 26 27  2  0  0  0
 26 28  1  0  0  0
 28 29  1  0  0  0
 29 30  1  0  0  0
 30 31  2  0  0  0
 31 32  1  0  0  0
 32 33  2  0  0  0
 33 34  1  0  0  0
 34 35  2  0  0  0
 35 36  1  0  0  0
 13 10  1  0  0  0
 35 30  1  0  0  0
  8  9  1  0  0  0
  3  4  1  0  0  0
M  END
> <minimizedAffinity>
-7.56143

> <CNNscore>
0.2734031379

> <CNNaffinity>
6.7992720604

> <CNN_VS>
1.8589422703

> <CNNaffinity_variance>
0.2668523192

$$$$
[H]c1c([H])c([H])c(C([H])([H])OC(=O)[C@@]([H])(N([H])C(=O)[C@@]([H])(N([H])C(=O)[C@]2([H])OC(=O)[C@@]2([H])[C@@]([H])(C([H])([H])[H])C([H])([H])C([H])([H])[H])C([H])(C([H])([H])[H])C([H])([H])[H])C([H])(C([H])([H])[H])C([H])([H])[H])c(Cl)c1[H]


 36 37  0  0  0  0  0  0  0  0999 V2000
  -88.0858   26.2625    0.6362 C   0  0  0  0  0  0  0  0  0  0  0  0
  -87.1088   25.7861   -0.0525 O   0  0  0  0  0  0  0  0  0  0  0  0
  -89.3174   26.2895   -0.0298 N   0  0  0  0  0  0  0  0  0  0  0  0
  -90.1671   26.6384    0.4283 H   0  0  0  0  0  0  0  0  0  0  0  0
  -87.8422   26.7241    2.0301 C   0  0  0  0  0  0  0  0  0  0  0  0
  -86.2853   28.5866    1.3656 C   0  0  0  0  0  0  0  0  0  0  0  0
  -87.1810   29.1032    0.6669 O   0  0  0  0  0  0  0  0  0  0  0  0
  -86.5371   27.4067    2.0711 N   0  0  0  0  0  0  0  0  0  0  0  0
  -85.7736   26.9999    2.6467 H   0  0  0  0  0  0  0  0  0  0  0  0
  -85.0764   30.7751    1.3598 C   0  0  0  0  0  0  0  0  0  0  0  0
  -84.9737   29.2558    1.4240 C   0  0  0  0  0  0  0  0  0  0  0  0
  -84.4220   29.3460    2.7306 O   0  0  0  0  0  0  0  0  0  0  0  0
  -85.0219   30.5862    2.8578 C   0  0  0  0  0  0  0  0  0  0  0  0
  -85.3655   31.2479    3.8728 O   0  0  0  0  0  0  0  0  0  0  0  0
  -83.8127   31.4553    0.9061 C   0  0  0  0  0  0  0  0  0  0  0  0
  -82.8442   30.5089    0.2549 C   0  0  0  0  0  0  0  0  0  0  0  0
  -85.6221   32.5258   -0.4661 C   0  0  0  0  0  0  0  0  0  0  0  0
  -84.1820   32.5931   -0.0155 C   0  0  0  0  0  0  0  0  0  0  0  0
  -88.8881   27.6143    2.6062 C   0  0  0  0  0  0  0  0  0  0  0  0
  -89.5352   26.7980    3.7417 C   0  0  0  0  0  0  0  0  0  0  0  0
  -89.9933   27.9643    1.6740 C   0  0  0  0  0  0  0  0  0  0  0  0
  -89.4869   25.8016   -1.3987 C   0  0  0  0  0  0  0  0  0  0  0  0
  -90.6116   24.8251   -1.5435 C   0  0  0  0  0  0  0  0  0  0  0  0
  -90.2321   23.4419   -1.0329 C   0  0  0  0  0  0  0  0  0  0  0  0
  -91.8413   25.3047   -0.8325 C   0  0  0  0  0  0  0  0  0  0  0  0
  -89.6775   26.9286   -2.3569 C   0  0  0  0  0  0  0  0  0  0  0  0
  -90.1221   26.7483   -3.5100 O   0  0  0  0  0  0  0  0  0  0  0  0
  -89.3676   28.2114   -1.9787 O   0  0  0  0  0  0  0  0  0  0  0  0
  -88.6672   29.1830   -2.6425 C   0  0  0  0  0  0  0  0  0  0  0  0
  -88.7913   30.5823   -2.2463 C   0  0  0  0  0  0  0  0  0  0  0  0
  -89.3035   31.1041   -1.0967 C   0  0  0  0  0  0  0  0  0  0  0  0
  -89.3721   32.4778   -0.8453 C   0  0  0  0  0  0  0  0  0  0  0  0
  -88.9130   33.3672   -1.7716 C   0  0  0  0  0  0  0  0  0  0  0  0
  -88.3862   32.8766   -2.9523 C   0  0  0  0  0  0  0  0  0  0  0  0
  -88.3280   31.5233   -3.1836 C   0  0  0  0  0  0  0  0  0  0  0  0
  -87.6463   30.9939   -4.7028 Cl  0  0  0  0  0  0  0  0  0  0  0  0
 17 18  1  0  0  0
 18 15  1  0  0  0
 15 16  1  0  0  0
 15 10  1  0  0  0
 10 11  1  0  0  0
 11 12  1  0  0  0
 12 13  1  0  0  0
 13 14  2  0  0  0
 11  6  1  0  0  0
  6  7  2  0  0  0
  6  8  1  0  0  0
  8  5  1  0  0  0
  5 19  1  0  0  0
 19 20  1  0  0  0
 19 21  1  0  0  0
  5  1  1  0  0  0
  1  2  2  0  0  0
  1  3  1  0  0  0
  3 22  1  0  0  0
 22 23  1  0  0  0
 23 24  1  0  0  0
 23 25  1  0  0  0
 22 26  1  0  0  0
 26 27  2  0  0  0
 26 28  1  0  0  0
 28 29  1  0  0  0
 29 30  1  0  0  0
 30 31  2  0  0  0
 31 32  1  0  0  0
 32 33  2  0  0  0
 33 34  1  0  0  0
 34 35  2  0  0  0
 35 36  1  0  0  0
 13 10  1  0  0  0
 35 30  1  0  0  0
  8  9  1  0  0  0
  3  4  1  0  0  0
M  END
> <minimizedAffinity>
-7.72026

> <CNNscore>
0.2626588345

> <CNNaffinity>
6.6666779518

> <CNN_VS>
1.7510619164

> <CNNaffinity_variance>
0.1537587941

$$$$
[H]c1c([H])c([H])c(C([H])([H])OC(=O)[C@@]([H])(N([H])C(=O)[C@@]([H])(N([H])C(=O)[C@]2([H])OC(=O)[C@@]2([H])[C@@]([H])(C([H])([H])[H])C([H])([H])C([H])([H])[H])C([H])(C([H])([H])[H])C([H])([H])[H])C([H])(C([H])([H])[H])C([H])([H])[H])c(Cl)c1[H]


 36 37  0  0  0  0  0  0  0  0999 V2000
  -87.0879   28.6426    1.3905 C   0  0  0  0  0  0  0  0  0  0  0  0
  -86.7000   28.1200    2.5007 O   0  0  0  0  0  0  0  0  0  0  0  0
  -88.3872   28.2965    0.9993 N   0  0  0  0  0  0  0  0  0  0  0  0
  -88.8034   28.6651    0.1365 H   0  0  0  0  0  0  0  0  0  0  0  0
  -86.1658   29.5401    0.6424 C   0  0  0  0  0  0  0  0  0  0  0  0
  -87.5033   30.2624   -1.3636 C   0  0  0  0  0  0  0  0  0  0  0  0
  -87.2969   29.1613   -1.9136 O   0  0  0  0  0  0  0  0  0  0  0  0
  -86.9754   30.5249   -0.0965 N   0  0  0  0  0  0  0  0  0  0  0  0
  -87.1649   31.4493    0.3385 H   0  0  0  0  0  0  0  0  0  0  0  0
  -87.4908   32.1294   -3.0266 C   0  0  0  0  0  0  0  0  0  0  0  0
  -88.3143   31.2601   -2.0836 C   0  0  0  0  0  0  0  0  0  0  0  0
  -89.0349   30.7372   -3.1913 O   0  0  0  0  0  0  0  0  0  0  0  0
  -87.9641   31.0750   -3.9997 C   0  0  0  0  0  0  0  0  0  0  0  0
  -87.5860   30.6288   -5.1151 O   0  0  0  0  0  0  0  0  0  0  0  0
  -88.1405   33.4421   -3.3732 C   0  0  0  0  0  0  0  0  0  0  0  0
  -89.0769   33.9281   -2.3033 C   0  0  0  0  0  0  0  0  0  0  0  0
  -87.5832   35.8694   -3.6899 C   0  0  0  0  0  0  0  0  0  0  0  0
  -87.0579   34.4535   -3.6649 C   0  0  0  0  0  0  0  0  0  0  0  0
  -85.1479   30.2497    1.4660 C   0  0  0  0  0  0  0  0  0  0  0  0
  -85.0235   31.6514    0.8382 C   0  0  0  0  0  0  0  0  0  0  0  0
  -83.7836   29.6587    1.4187 C   0  0  0  0  0  0  0  0  0  0  0  0
  -89.2456   27.4196    1.7959 C   0  0  0  0  0  0  0  0  0  0  0  0
  -90.6516   27.9181    1.9159 C   0  0  0  0  0  0  0  0  0  0  0  0
  -90.9496   28.4460    3.3124 C   0  0  0  0  0  0  0  0  0  0  0  0
  -90.9370   28.9853    0.9023 C   0  0  0  0  0  0  0  0  0  0  0  0
  -89.2531   26.0297    1.2547 C   0  0  0  0  0  0  0  0  0  0  0  0
  -89.5408   25.0444    1.9662 O   0  0  0  0  0  0  0  0  0  0  0  0
  -88.9440   25.8045   -0.0638 O   0  0  0  0  0  0  0  0  0  0  0  0
  -89.6415   25.1330   -1.0322 C   0  0  0  0  0  0  0  0  0  0  0  0
  -90.5295   25.8563   -1.9369 C   0  0  0  0  0  0  0  0  0  0  0  0
  -90.5528   27.1864   -2.2313 C   0  0  0  0  0  0  0  0  0  0  0  0
  -91.4715   27.7567   -3.1177 C   0  0  0  0  0  0  0  0  0  0  0  0
  -92.4023   26.9751   -3.7361 C   0  0  0  0  0  0  0  0  0  0  0  0
  -92.4115   25.6195   -3.4628 C   0  0  0  0  0  0  0  0  0  0  0  0
  -91.5022   25.0759   -2.5875 C   0  0  0  0  0  0  0  0  0  0  0  0
  -91.5878   23.3542   -2.3025 Cl  0  0  0  0  0  0  0  0  0  0  0  0
 17 18  1  0  0  0
 18 15  1  0  0  0
 15 16  1  0  0  0
 15 10  1  0  0  0
 10 11  1  0  0  0
 11 12  1  0  0  0
 12 13  1  0  0  0
 13 14  2  0  0  0
 11  6  1  0  0  0
  6  7  2  0  0  0
  6  8  1  0  0  0
  8  5  1  0  0  0
  5 19  1  0  0  0
 19 20  1  0  0  0
 19 21  1  0  0  0
  5  1  1  0  0  0
  1  2  2  0  0  0
  1  3  1  0  0  0
  3 22  1  0  0  0
 22 23  1  0  0  0
 23 24  1  0  0  0
 23 25  1  0  0  0
 22 26  1  0  0  0
 26 27  2  0  0  0
 26 28  1  0  0  0
 28 29  1  0  0  0
 29 30  1  0  0  0
 30 31  2  0  0  0
 31 32  1  0  0  0
 32 33  2  0  0  0
 33 34  1  0  0  0
 34 35  2  0  0  0
 35 36  1  0  0  0
 13 10  1  0  0  0
 35 30  1  0  0  0
  8  9  1  0  0  0
  3  4  1  0  0  0
M  END
> <minimizedAffinity>
-7.37247

> <CNNscore>
0.2569006979

> <CNNaffinity>
6.3155465126

> <CNN_VS>
1.6224683523

> <CNNaffinity_variance>
0.4424969256

$$$$
[H]c1c([H])c([H])c(C([H])([H])OC(=O)[C@@]([H])(N([H])C(=O)[C@@]([H])(N([H])C(=O)[C@]2([H])OC(=O)[C@@]2([H])[C@@]([H])(C([H])([H])[H])C([H])([H])C([H])([H])[H])C([H])(C([H])([H])[H])C([H])([H])[H])C([H])(C([H])([H])[H])C([H])([H])[H])c(Cl)c1[H]


 36 37  0  0  0  0  0  0  0  0999 V2000
  -88.2135   30.8962   -3.5532 C   0  0  0  0  0  0  0  0  0  0  0  0
  -87.5855   31.1163   -4.6546 O   0  0  0  0  0  0  0  0  0  0  0  0
  -87.8456   31.7292   -2.4893 N   0  0  0  0  0  0  0  0  0  0  0  0
  -88.2902   31.6496   -1.5676 H   0  0  0  0  0  0  0  0  0  0  0  0
  -89.2419   29.8216   -3.4991 C   0  0  0  0  0  0  0  0  0  0  0  0
  -89.2802   27.5748   -2.3655 C   0  0  0  0  0  0  0  0  0  0  0  0
  -89.9049   27.0853   -3.3286 O   0  0  0  0  0  0  0  0  0  0  0  0
  -88.9163   28.9241   -2.3767 N   0  0  0  0  0  0  0  0  0  0  0  0
  -88.3948   29.3045   -1.5625 H   0  0  0  0  0  0  0  0  0  0  0  0
  -89.1258   27.3649    0.1211 C   0  0  0  0  0  0  0  0  0  0  0  0
  -88.9406   26.6933   -1.2345 C   0  0  0  0  0  0  0  0  0  0  0  0
  -89.9506   25.7487   -0.9069 O   0  0  0  0  0  0  0  0  0  0  0  0
  -90.4574   26.6612    0.0012 C   0  0  0  0  0  0  0  0  0  0  0  0
  -91.6072   26.7960    0.4968 O   0  0  0  0  0  0  0  0  0  0  0  0
  -88.3346   26.7290    1.2324 C   0  0  0  0  0  0  0  0  0  0  0  0
  -86.9092   26.4512    0.8465 C   0  0  0  0  0  0  0  0  0  0  0  0
  -89.3951   27.0963    3.4781 C   0  0  0  0  0  0  0  0  0  0  0  0
  -88.4169   27.6163    2.4515 C   0  0  0  0  0  0  0  0  0  0  0  0
  -90.6519   30.2847   -3.3735 C   0  0  0  0  0  0  0  0  0  0  0  0
  -90.8011   31.4162   -4.4088 C   0  0  0  0  0  0  0  0  0  0  0  0
  -90.9967   30.8872   -2.0577 C   0  0  0  0  0  0  0  0  0  0  0  0
  -86.8353   32.7793   -2.6201 C   0  0  0  0  0  0  0  0  0  0  0  0
  -87.4201   34.1528   -2.7253 C   0  0  0  0  0  0  0  0  0  0  0  0
  -87.0909   34.8095   -4.0588 C   0  0  0  0  0  0  0  0  0  0  0  0
  -88.9063   34.1261   -2.5301 C   0  0  0  0  0  0  0  0  0  0  0  0
  -85.8594   32.7370   -1.4928 C   0  0  0  0  0  0  0  0  0  0  0  0
  -84.8610   33.4862   -1.4540 O   0  0  0  0  0  0  0  0  0  0  0  0
  -86.0486   31.8605   -0.4534 O   0  0  0  0  0  0  0  0  0  0  0  0
  -85.5639   31.8910    0.8270 C   0  0  0  0  0  0  0  0  0  0  0  0
  -84.8852   30.7263    1.3865 C   0  0  0  0  0  0  0  0  0  0  0  0
  -85.4143   29.6764    2.0752 C   0  0  0  0  0  0  0  0  0  0  0  0
  -84.6428   28.6200    2.5688 C   0  0  0  0  0  0  0  0  0  0  0  0
  -83.2938   28.6057    2.3696 C   0  0  0  0  0  0  0  0  0  0  0  0
  -82.7187   29.6544    1.6754 C   0  0  0  0  0  0  0  0  0  0  0  0
  -83.4918   30.6856    1.1987 C   0  0  0  0  0  0  0  0  0  0  0  0
  -82.6801   31.9679    0.3330 Cl  0  0  0  0  0  0  0  0  0  0  0  0
 17 18  1  0  0  0
 18 15  1  0  0  0
 15 16  1  0  0  0
 15 10  1  0  0  0
 10 11  1  0  0  0
 11 12  1  0  0  0
 12 13  1  0  0  0
 13 14  2  0  0  0
 11  6  1  0  0  0
  6  7  2  0  0  0
  6  8  1  0  0  0
  8  5  1  0  0  0
  5 19  1  0  0  0
 19 20  1  0  0  0
 19 21  1  0  0  0
  5  1  1  0  0  0
  1  2  2  0  0  0
  1  3  1  0  0  0
  3 22  1  0  0  0
 22 23  1  0  0  0
 23 24  1  0  0  0
 23 25  1  0  0  0
 22 26  1  0  0  0
 26 27  2  0  0  0
 26 28  1  0  0  0
 28 29  1  0  0  0
 29 30  1  0  0  0
 30 31  2  0  0  0
 31 32  1  0  0  0
 32 33  2  0  0  0
 33 34  1  0  0  0
 34 35  2  0  0  0
 35 36  1  0  0  0
 13 10  1  0  0  0
 35 30  1  0  0  0
  8  9  1  0  0  0
  3  4  1  0  0  0
M  END
> <minimizedAffinity>
-8.26172

> <CNNscore>
0.2212705016

> <CNNaffinity>
6.5078763962

> <CNN_VS>
1.4400011301

> <CNNaffinity_variance>
0.3709530234

$$$$
[H]c1c([H])c([H])c(C([H])([H])OC(=O)[C@@]([H])(N([H])C(=O)[C@@]([H])(N([H])C(=O)[C@]2([H])OC(=O)[C@@]2([H])[C@@]([H])(C([H])([H])[H])C([H])([H])C([H])([H])[H])C([H])(C([H])([H])[H])C([H])([H])[H])C([H])(C([H])([H])[H])C([H])([H])[H])c(Cl)c1[H]


 36 37  0  0  0  0  0  0  0  0999 V2000
  -91.5537   28.7726   -2.5868 C   0  0  0  0  0  0  0  0  0  0  0  0
  -92.2618   28.6743   -1.5168 O   0  0  0  0  0  0  0  0  0  0  0  0
  -90.2262   28.3467   -2.4553 N   0  0  0  0  0  0  0  0  0  0  0  0
  -89.5748   28.3698   -3.2483 H   0  0  0  0  0  0  0  0  0  0  0  0
  -92.1758   29.3049   -3.8298 C   0  0  0  0  0  0  0  0  0  0  0  0
  -90.8398   31.4196   -3.5518 C   0  0  0  0  0  0  0  0  0  0  0  0
  -91.1385   31.4642   -2.3409 O   0  0  0  0  0  0  0  0  0  0  0  0
  -91.3159   30.3799   -4.3552 N   0  0  0  0  0  0  0  0  0  0  0  0
  -91.0495   30.3666   -5.3594 H   0  0  0  0  0  0  0  0  0  0  0  0
  -88.6069   32.5380   -3.4309 C   0  0  0  0  0  0  0  0  0  0  0  0
  -89.9770   32.4828   -4.0965 C   0  0  0  0  0  0  0  0  0  0  0  0
  -89.3638   32.1588   -5.3369 O   0  0  0  0  0  0  0  0  0  0  0  0
  -88.2732   31.6829   -4.6310 C   0  0  0  0  0  0  0  0  0  0  0  0
  -87.3795   30.8496   -4.9360 O   0  0  0  0  0  0  0  0  0  0  0  0
  -87.9128   33.8664   -3.5684 C   0  0  0  0  0  0  0  0  0  0  0  0
  -88.8095   35.0277   -3.2441 C   0  0  0  0  0  0  0  0  0  0  0  0
  -86.9409   33.2684   -1.3322 C   0  0  0  0  0  0  0  0  0  0  0  0
  -86.6788   33.8577   -2.6980 C   0  0  0  0  0  0  0  0  0  0  0  0
  -92.4322   28.3034   -4.9020 C   0  0  0  0  0  0  0  0  0  0  0  0
  -93.4761   28.9579   -5.8274 C   0  0  0  0  0  0  0  0  0  0  0  0
  -93.0425   27.0299   -4.4344 C   0  0  0  0  0  0  0  0  0  0  0  0
  -89.6861   27.8169   -1.2031 C   0  0  0  0  0  0  0  0  0  0  0  0
  -88.9778   26.5093   -1.3707 C   0  0  0  0  0  0  0  0  0  0  0  0
  -88.5510   25.9192   -0.0338 C   0  0  0  0  0  0  0  0  0  0  0  0
  -89.8304   25.5212   -2.1085 C   0  0  0  0  0  0  0  0  0  0  0  0
  -88.7743   28.7983   -0.5471 C   0  0  0  0  0  0  0  0  0  0  0  0
  -89.1475   29.5124    0.4071 O   0  0  0  0  0  0  0  0  0  0  0  0
  -87.4802   28.9324   -0.9852 O   0  0  0  0  0  0  0  0  0  0  0  0
  -86.4414   29.6559   -0.4628 C   0  0  0  0  0  0  0  0  0  0  0  0
  -85.5862   29.0785    0.5694 C   0  0  0  0  0  0  0  0  0  0  0  0
  -85.7431   27.9131    1.2577 C   0  0  0  0  0  0  0  0  0  0  0  0
  -84.8456   27.4776    2.2373 C   0  0  0  0  0  0  0  0  0  0  0  0
  -83.7493   28.2285    2.5440 C   0  0  0  0  0  0  0  0  0  0  0  0
  -83.5552   29.4188    1.8676 C   0  0  0  0  0  0  0  0  0  0  0  0
  -84.4485   29.8326    0.9088 C   0  0  0  0  0  0  0  0  0  0  0  0
  -84.1231   31.3496    0.1053 Cl  0  0  0  0  0  0  0  0  0  0  0  0
 17 18  1  0  0  0
 18 15  1  0  0  0
 15 16  1  0  0  0
 15 10  1  0  0  0
 10 11  1  0  0  0
 11 12  1  0  0  0
 12 13  1  0  0  0
 13 14  2  0  0  0
 11  6  1  0  0  0
  6  7  2  0  0  0
  6  8  1  0  0  0
  8  5  1  0  0  0
  5 19  1  0  0  0
 19 20  1  0  0  0
 19 21  1  0  0  0
  5  1  1  0  0  0
  1  2  2  0  0  0
  1  3  1  0  0  0
  3 22  1  0  0  0
 22 23  1  0  0  0
 23 24  1  0  0  0
 23 25  1  0  0  0
 22 26  1  0  0  0
 26 27  2  0  0  0
 26 28  1  0  0  0
 28 29  1  0  0  0
 29 30  1  0  0  0
 30 31  2  0  0  0
 31 32  1  0  0  0
 32 33  2  0  0  0
 33 34  1  0  0  0
 34 35  2  0  0  0
 35 36  1  0  0  0
 13 10  1  0  0  0
 35 30  1  0  0  0
  8  9  1  0  0  0
  3  4  1  0  0  0
M  END
> <minimizedAffinity>
-7.38498

> <CNNscore>
0.2121768445

> <CNNaffinity>
6.4508161545

> <CNN_VS>
1.3687138557

> <CNNaffinity_variance>
0.1830428839

$$$$
[H]c1c([H])c([H])c(C([H])([H])OC(=O)[C@@]([H])(N([H])C(=O)[C@@]([H])(N([H])C(=O)[C@]2([H])OC(=O)[C@@]2([H])[C@@]([H])(C([H])([H])[H])C([H])([H])C([H])([H])[H])C([H])(C([H])([H])[H])C([H])([H])[H])C([H])(C([H])([H])[H])C([H])([H])[H])c(Cl)c1[H]


 36 37  0  0  0  0  0  0  0  0999 V2000
  -86.6631   27.6117    1.9221 C   0  0  0  0  0  0  0  0  0  0  0  0
  -86.1261   26.4916    2.2582 O   0  0  0  0  0  0  0  0  0  0  0  0
  -88.0361   27.7072    2.1806 N   0  0  0  0  0  0  0  0  0  0  0  0
  -88.5644   28.5600    1.9635 H   0  0  0  0  0  0  0  0  0  0  0  0
  -85.8178   28.6755    1.3145 C   0  0  0  0  0  0  0  0  0  0  0  0
  -87.2692   29.5054   -0.5668 C   0  0  0  0  0  0  0  0  0  0  0  0
  -87.0291   28.4724   -1.2247 O   0  0  0  0  0  0  0  0  0  0  0  0
  -86.7053   29.6786    0.7001 N   0  0  0  0  0  0  0  0  0  0  0  0
  -86.9242   30.5473    1.2264 H   0  0  0  0  0  0  0  0  0  0  0  0
  -87.4369   31.4513   -2.1277 C   0  0  0  0  0  0  0  0  0  0  0  0
  -88.1581   30.5194   -1.1611 C   0  0  0  0  0  0  0  0  0  0  0  0
  -88.9654   30.0359   -2.2261 O   0  0  0  0  0  0  0  0  0  0  0  0
  -87.9768   30.4358   -3.1075 C   0  0  0  0  0  0  0  0  0  0  0  0
  -87.6919   30.0531   -4.2730 O   0  0  0  0  0  0  0  0  0  0  0  0
  -88.1373   32.7651   -2.3489 C   0  0  0  0  0  0  0  0  0  0  0  0
  -89.1989   33.0385   -1.3212 C   0  0  0  0  0  0  0  0  0  0  0  0
  -85.9771   33.6264   -1.4030 C   0  0  0  0  0  0  0  0  0  0  0  0
  -87.1016   33.8635   -2.3831 C   0  0  0  0  0  0  0  0  0  0  0  0
  -84.8681   29.3519    2.2411 C   0  0  0  0  0  0  0  0  0  0  0  0
  -84.8191   30.8189    1.7723 C   0  0  0  0  0  0  0  0  0  0  0  0
  -83.4677   28.8545    2.1729 C   0  0  0  0  0  0  0  0  0  0  0  0
  -88.8016   26.6241    2.7980 C   0  0  0  0  0  0  0  0  0  0  0  0
  -89.6874   27.0864    3.9122 C   0  0  0  0  0  0  0  0  0  0  0  0
  -90.7957   28.0033    3.4134 C   0  0  0  0  0  0  0  0  0  0  0  0
  -90.2868   25.9247    4.6463 C   0  0  0  0  0  0  0  0  0  0  0  0
  -89.6143   25.8887    1.7863 C   0  0  0  0  0  0  0  0  0  0  0  0
  -90.0002   24.7158    1.9739 O   0  0  0  0  0  0  0  0  0  0  0  0
  -89.9652   26.5025    0.6097 O   0  0  0  0  0  0  0  0  0  0  0  0
  -89.6494   26.1799   -0.6832 C   0  0  0  0  0  0  0  0  0  0  0  0
  -90.5283   25.3140   -1.4629 C   0  0  0  0  0  0  0  0  0  0  0  0
  -90.5553   23.9531   -1.5232 C   0  0  0  0  0  0  0  0  0  0  0  0
  -91.4516   23.2415   -2.3264 C   0  0  0  0  0  0  0  0  0  0  0  0
  -92.3566   23.9079   -3.0988 C   0  0  0  0  0  0  0  0  0  0  0  0
  -92.3604   25.2904   -3.0658 C   0  0  0  0  0  0  0  0  0  0  0  0
  -91.4711   25.9738   -2.2717 C   0  0  0  0  0  0  0  0  0  0  0  0
  -91.5482   27.7192   -2.2930 Cl  0  0  0  0  0  0  0  0  0  0  0  0
 17 18  1  0  0  0
 18 15  1  0  0  0
 15 16  1  0  0  0
 15 10  1  0  0  0
 10 11  1  0  0  0
 11 12  1  0  0  0
 12 13  1  0  0  0
 13 14  2  0  0  0
 11  6  1  0  0  0
  6  7  2  0  0  0
  6  8  1  0  0  0
  8  5  1  0  0  0
  5 19  1  0  0  0
 19 20  1  0  0  0
 19 21  1  0  0  0
  5  1  1  0  0  0
  1  2  2  0  0  0
  1  3  1  0  0  0
  3 22  1  0  0  0
 22 23  1  0  0  0
 23 24  1  0  0  0
 23 25  1  0  0  0
 22 26  1  0  0  0
 26 27  2  0  0  0
 26 28  1  0  0  0
 28 29  1  0  0  0
 29 30  1  0  0  0
 30 31  2  0  0  0
 31 32  1  0  0  0
 32 33  2  0  0  0
 33 34  1  0  0  0
 34 35  2  0  0  0
 35 36  1  0  0  0
 13 10  1  0  0  0
 35 30  1  0  0  0
  8  9  1  0  0  0
  3  4  1  0  0  0
M  END
> <minimizedAffinity>
-7.79679

> <CNNscore>
0.1781800538

> <CNNaffinity>
6.4531707764

> <CNN_VS>
1.1498262882

> <CNNaffinity_variance>
0.4167382717

$$$$
[H]c1c([H])c([H])c(C([H])([H])OC(=O)[C@@]([H])(N([H])C(=O)[C@@]([H])(N([H])C(=O)[C@]2([H])OC(=O)[C@@]2([H])[C@@]([H])(C([H])([H])[H])C([H])([H])C([H])([H])[H])C([H])(C([H])([H])[H])C([H])([H])[H])C([H])(C([H])([H])[H])C([H])([H])[H])c(Cl)c1[H]


 36 37  0  0  0  0  0  0  0  0999 V2000
  -91.2016   29.1381   -1.1222 C   0  0  0  0  0  0  0  0  0  0  0  0
  -91.6144   28.8197    0.0543 O   0  0  0  0  0  0  0  0  0  0  0  0
  -89.9389   28.6349   -1.4591 N   0  0  0  0  0  0  0  0  0  0  0  0
  -89.5167   28.8170   -2.3768 H   0  0  0  0  0  0  0  0  0  0  0  0
  -92.0640   29.9772   -1.9983 C   0  0  0  0  0  0  0  0  0  0  0  0
  -90.2319   31.6822   -2.2648 C   0  0  0  0  0  0  0  0  0  0  0  0
  -90.0836   31.7351   -1.0268 O   0  0  0  0  0  0  0  0  0  0  0  0
  -91.1934   30.8346   -2.8218 N   0  0  0  0  0  0  0  0  0  0  0  0
  -91.2936   30.8092   -3.8557 H   0  0  0  0  0  0  0  0  0  0  0  0
  -87.8838   32.2369   -2.9206 C   0  0  0  0  0  0  0  0  0  0  0  0
  -89.3682   32.5285   -3.1071 C   0  0  0  0  0  0  0  0  0  0  0  0
  -89.2826   32.1089   -4.4622 O   0  0  0  0  0  0  0  0  0  0  0  0
  -88.1656   31.3664   -4.1229 C   0  0  0  0  0  0  0  0  0  0  0  0
  -87.6396   30.3558   -4.6596 O   0  0  0  0  0  0  0  0  0  0  0  0
  -86.9811   33.3674   -3.3359 C   0  0  0  0  0  0  0  0  0  0  0  0
  -87.7235   34.6563   -3.5493 C   0  0  0  0  0  0  0  0  0  0  0  0
  -86.4420   33.7447   -0.9131 C   0  0  0  0  0  0  0  0  0  0  0  0
  -85.8915   33.5190   -2.3014 C   0  0  0  0  0  0  0  0  0  0  0  0
  -93.0064   29.2325   -2.8790 C   0  0  0  0  0  0  0  0  0  0  0  0
  -92.3325   29.2068   -4.2645 C   0  0  0  0  0  0  0  0  0  0  0  0
  -94.3260   29.8895   -3.0789 C   0  0  0  0  0  0  0  0  0  0  0  0
  -89.1526   27.7996   -0.5512 C   0  0  0  0  0  0  0  0  0  0  0  0
  -88.1770   26.9126   -1.2591 C   0  0  0  0  0  0  0  0  0  0  0  0
  -87.2461   27.7036   -2.1676 C   0  0  0  0  0  0  0  0  0  0  0  0
  -87.3681   26.1097   -0.2850 C   0  0  0  0  0  0  0  0  0  0  0  0
  -88.4330   28.6262    0.4606 C   0  0  0  0  0  0  0  0  0  0  0  0
  -88.7473   28.6136    1.6693 O   0  0  0  0  0  0  0  0  0  0  0  0
  -87.3869   29.4270    0.0747 O   0  0  0  0  0  0  0  0  0  0  0  0
  -86.7495   30.4336    0.7498 C   0  0  0  0  0  0  0  0  0  0  0  0
  -85.2926   30.4577    0.8340 C   0  0  0  0  0  0  0  0  0  0  0  0
  -84.4042   31.1765    0.0922 C   0  0  0  0  0  0  0  0  0  0  0  0
  -83.0197   31.0984    0.2714 C   0  0  0  0  0  0  0  0  0  0  0  0
  -82.4980   30.2750    1.2251 C   0  0  0  0  0  0  0  0  0  0  0  0
  -83.3675   29.5280    1.9986 C   0  0  0  0  0  0  0  0  0  0  0  0
  -84.7256   29.6158    1.8078 C   0  0  0  0  0  0  0  0  0  0  0  0
  -85.7481   28.6357    2.8308 Cl  0  0  0  0  0  0  0  0  0  0  0  0
 17 18  1  0  0  0
 18 15  1  0  0  0
 15 16  1  0  0  0
 15 10  1  0  0  0
 10 11  1  0  0  0
 11 12  1  0  0  0
 12 13  1  0  0  0
 13 14  2  0  0  0
 11  6  1  0  0  0
  6  7  2  0  0  0
  6  8  1  0  0  0
  8  5  1  0  0  0
  5 19  1  0  0  0
 19 20  1  0  0  0
 19 21  1  0  0  0
  5  1  1  0  0  0
  1  2  2  0  0  0
  1  3  1  0  0  0
  3 22  1  0  0  0
 22 23  1  0  0  0
 23 24  1  0  0  0
 23 25  1  0  0  0
 22 26  1  0  0  0
 26 27  2  0  0  0
 26 28  1  0  0  0
 28 29  1  0  0  0
 29 30  1  0  0  0
 30 31  2  0  0  0
 31 32  1  0  0  0
 32 33  2  0  0  0
 33 34  1  0  0  0
 34 35  2  0  0  0
 35 36  1  0  0  0
 13 10  1  0  0  0
 35 30  1  0  0  0
  8  9  1  0  0  0
  3  4  1  0  0  0
M  END
> <minimizedAffinity>
-6.92351

> <CNNscore>
0.1690139621

> <CNNaffinity>
6.5066008568

> <CNN_VS>
1.0997064114

> <CNNaffinity_variance>
0.0913852081

$$$$
[H]N=C(N([H])[H])N([H])C([H])([H])C([H])([H])C([H])([H])[C@@]1([H])C(=O)N2C([H])([H])C([H])([H])C([H])([H])[C@@]2([H])C(=O)N([H])[C@@]([H])(C([H])([H])c2c([H])c([H])c([H])c([H])c2[H])C(=O)N2C([H])([H])C([H])([H])C([H])([H])[C@@]2([H])C(=O)N([H])C([H])([H])C(=O)N([H])[C@]([H])(C([H])([H])c2c([H])c([H])c([H])c([H])c2[H])C(=O)N1[H]


 59 63  0  0  0  0  0  0  0  0999 V2000
  -87.1743   33.3685   -1.2953 C   0  0  0  0  0  0  0  0  0  0  0  0
  -87.8871   32.2299   -0.8012 N   0  0  0  0  0  0  0  0  0  0  0  0
  -87.4374   30.9463   -0.4286 C   0  0  0  0  0  0  0  0  0  0  0  0
  -87.6565   30.5681    0.7877 O   0  0  0  0  0  0  0  0  0  0  0  0
  -86.7378   29.9743   -1.2877 C   0  0  0  0  0  0  0  0  0  0  0  0
  -87.5567   29.5240   -2.4079 N   0  0  0  0  0  0  0  0  0  0  0  0
  -88.2252   28.3352   -2.6160 C   0  0  0  0  0  0  0  0  0  0  0  0
  -87.8891   27.6300   -3.6459 O   0  0  0  0  0  0  0  0  0  0  0  0
  -89.3104   27.6948   -1.8360 C   0  0  0  0  0  0  0  0  0  0  0  0
  -90.0074   28.5392   -0.9318 N   0  0  0  0  0  0  0  0  0  0  0  0
  -91.1958   29.2792   -1.1385 C   0  0  0  0  0  0  0  0  0  0  0  0
  -91.1048   30.5368   -0.9027 O   0  0  0  0  0  0  0  0  0  0  0  0
  -92.4971   28.7991   -1.5760 C   0  0  0  0  0  0  0  0  0  0  0  0
  -92.7682   27.3802   -1.0621 C   0  0  0  0  0  0  0  0  0  0  0  0
  -93.3539   26.7138   -2.2626 C   0  0  0  0  0  0  0  0  0  0  0  0
  -93.9471   27.8391   -3.0463 C   0  0  0  0  0  0  0  0  0  0  0  0
  -92.8004   28.8151   -2.9770 N   0  0  0  0  0  0  0  0  0  0  0  0
  -92.1896   29.5437   -4.0114 C   0  0  0  0  0  0  0  0  0  0  0  0
  -91.8434   28.8396   -5.0349 O   0  0  0  0  0  0  0  0  0  0  0  0
  -91.8732   30.9688   -4.1355 C   0  0  0  0  0  0  0  0  0  0  0  0
  -90.4381   31.1356   -4.3369 N   0  0  0  0  0  0  0  0  0  0  0  0
  -89.6827   32.2737   -4.4753 C   0  0  0  0  0  0  0  0  0  0  0  0
  -88.9259   32.3339   -5.5271 O   0  0  0  0  0  0  0  0  0  0  0  0
  -89.5598   33.4829   -3.6273 C   0  0  0  0  0  0  0  0  0  0  0  0
  -90.3576   34.5667   -4.3151 C   0  0  0  0  0  0  0  0  0  0  0  0
  -89.4333   35.7208   -4.4612 C   0  0  0  0  0  0  0  0  0  0  0  0
  -88.1108   34.9980   -4.6571 C   0  0  0  0  0  0  0  0  0  0  0  0
  -88.1525   33.9630   -3.6303 N   0  0  0  0  0  0  0  0  0  0  0  0
  -87.1609   33.4427   -2.7821 C   0  0  0  0  0  0  0  0  0  0  0  0
  -86.1080   32.9683   -3.3426 O   0  0  0  0  0  0  0  0  0  0  0  0
  -88.9427   32.3851   -0.6836 H   0  0  0  0  0  0  0  0  0  0  0  0
  -87.6334   30.2605   -3.1892 H   0  0  0  0  0  0  0  0  0  0  0  0
  -89.5461   28.6060    0.0405 H   0  0  0  0  0  0  0  0  0  0  0  0
  -89.8886   30.2149   -4.3974 H   0  0  0  0  0  0  0  0  0  0  0  0
  -85.7861   33.5393   -0.7351 C   0  0  0  0  0  0  0  0  0  0  0  0
  -85.8762   33.7644    0.7512 C   0  0  0  0  0  0  0  0  0  0  0  0
  -84.8286   32.9605    1.5030 C   0  0  0  0  0  0  0  0  0  0  0  0
  -85.5149   31.8851    2.1721 N   0  0  0  0  0  0  0  0  0  0  0  0
  -86.2403   31.3583    1.6392 H   0  0  0  0  0  0  0  0  0  0  0  0
  -85.4608   30.1888    4.0104 N   0  0  0  0  0  0  0  0  0  0  0  0
  -85.2610   31.5038    3.5089 C   0  0  0  0  0  0  0  0  0  0  0  0
  -84.8220   32.3973    4.3265 N   0  0  0  0  0  0  0  0  0  0  0  0
  -84.8807   29.3899    3.6556 H   0  0  0  0  0  0  0  0  0  0  0  0
  -86.1773   29.9892    4.7315 H   0  0  0  0  0  0  0  0  0  0  0  0
  -84.6171   32.1764    5.3228 H   0  0  0  0  0  0  0  0  0  0  0  0
  -86.0187   28.8865   -0.6053 C   0  0  0  0  0  0  0  0  0  0  0  0
  -84.8118   29.2686    0.0957 C   0  0  0  0  0  0  0  0  0  0  0  0
  -84.3552   28.7501    1.2714 C   0  0  0  0  0  0  0  0  0  0  0  0
  -83.1976   29.1833    1.9174 C   0  0  0  0  0  0  0  0  0  0  0  0
  -82.4575   30.1819    1.3643 C   0  0  0  0  0  0  0  0  0  0  0  0
  -82.8746   30.7400    0.1753 C   0  0  0  0  0  0  0  0  0  0  0  0
  -84.0200   30.2978   -0.4447 C   0  0  0  0  0  0  0  0  0  0  0  0
  -92.6234   31.5108   -5.3558 C   0  0  0  0  0  0  0  0  0  0  0  0
  -93.4826   32.6533   -5.0025 C   0  0  0  0  0  0  0  0  0  0  0  0
  -94.3113   32.6851   -3.8866 C   0  0  0  0  0  0  0  0  0  0  0  0
  -95.1061   33.7582   -3.5635 C   0  0  0  0  0  0  0  0  0  0  0  0
  -95.1227   34.8876   -4.3505 C   0  0  0  0  0  0  0  0  0  0  0  0
  -94.3102   34.8919   -5.4702 C   0  0  0  0  0  0  0  0  0  0  0  0
  -93.5245   33.8113   -5.7752 C   0  0  0  0  0  0  0  0  0  0  0  0
 40 41  1  0  0  0
 41 42  2  0  0  0
 41 38  1  0  0  0
 38 37  1  0  0  0
 37 36  1  0  0  0
 36 35  1  0  0  0
 35  1  1  0  0  0
  1  2  1  0  0  0
  2  3  1  0  0  0
  3  4  2  0  0  0
  3  5  1  0  0  0
  5 46  1  0  0  0
 46 47  1  0  0  0
 47 48  2  0  0  0
 48 49  1  0  0  0
 49 50  2  0  0  0
 50 51  1  0  0  0
 51 52  2  0  0  0
  5  6  1  0  0  0
  6  7  1  0  0  0
  7  8  2  0  0  0
  7  9  1  0  0  0
  9 10  1  0  0  0
 10 11  1  0  0  0
 11 12  2  0  0  0
 11 13  1  0  0  0
 13 14  1  0  0  0
 14 15  1  0  0  0
 15 16  1  0  0  0
 16 17  1  0  0  0
 17 18  1  0  0  0
 18 19  2  0  0  0
 18 20  1  0  0  0
 20 53  1  0  0  0
 53 54  1  0  0  0
 54 55  2  0  0  0
 55 56  1  0  0  0
 56 57  2  0  0  0
 57 58  1  0  0  0
 58 59  2  0  0  0
 20 21  1  0  0  0
 21 22  1  0  0  0
 22 23  2  0  0  0
 22 24  1  0  0  0
 24 25  1  0  0  0
 25 26  1  0  0  0
 26 27  1  0  0  0
 27 28  1  0  0  0
 28 29  1  0  0  0
 29 30  2  0  0  0
 29  1  1  0  0  0
 52 47  1  0  0  0
 17 13  1  0  0  0
 59 54  1  0  0  0
 28 24  1  0  0  0
 40 43  1  0  0  0
 40 44  1  0  0  0
 42 45  1  0  0  0
 38 39  1  0  0  0
  2 31  1  0  0  0
  6 32  1  0  0  0
 10 33  1  0  0  0
 21 34  1  0  0  0
M  END
> <minimizedAffinity>
-4.66929

> <CNNscore>
0.3464099467

> <CNNaffinity>
6.9833550453

> <CNN_VS>
2.4191036224

> <CNNaffinity_variance>
0.5179222822

$$$$
[H]N=C(N([H])[H])N([H])C([H])([H])C([H])([H])C([H])([H])[C@@]1([H])C(=O)N2C([H])([H])C([H])([H])C([H])([H])[C@@]2([H])C(=O)N([H])[C@@]([H])(C([H])([H])c2c([H])c([H])c([H])c([H])c2[H])C(=O)N2C([H])([H])C([H])([H])C([H])([H])[C@@]2([H])C(=O)N([H])C([H])([H])C(=O)N([H])[C@]([H])(C([H])([H])c2c([H])c([H])c([H])c([H])c2[H])C(=O)N1[H]


 59 63  0  0  0  0  0  0  0  0999 V2000
  -88.7643   27.4591   -1.7939 C   0  0  0  0  0  0  0  0  0  0  0  0
  -89.2452   26.1134   -1.8734 N   0  0  0  0  0  0  0  0  0  0  0  0
  -90.3887   25.5743   -2.4983 C   0  0  0  0  0  0  0  0  0  0  0  0
  -90.2023   24.6789   -3.4116 O   0  0  0  0  0  0  0  0  0  0  0  0
  -91.7929   25.9231   -2.2175 C   0  0  0  0  0  0  0  0  0  0  0  0
  -92.1944   25.5828   -0.8570 N   0  0  0  0  0  0  0  0  0  0  0  0
  -92.9726   24.5491   -0.3779 C   0  0  0  0  0  0  0  0  0  0  0  0
  -94.0542   24.8577    0.2590 O   0  0  0  0  0  0  0  0  0  0  0  0
  -92.7798   23.0824   -0.4650 C   0  0  0  0  0  0  0  0  0  0  0  0
  -91.4684   22.6463   -0.7915 N   0  0  0  0  0  0  0  0  0  0  0  0
  -90.4067   22.2883    0.0729 C   0  0  0  0  0  0  0  0  0  0  0  0
  -89.3130   22.9338   -0.1081 O   0  0  0  0  0  0  0  0  0  0  0  0
  -90.3960   21.2874    1.1279 C   0  0  0  0  0  0  0  0  0  0  0  0
  -91.2952   20.0968    0.7745 C   0  0  0  0  0  0  0  0  0  0  0  0
  -92.0051   19.8411    2.0626 C   0  0  0  0  0  0  0  0  0  0  0  0
  -91.0707   20.3715    3.1008 C   0  0  0  0  0  0  0  0  0  0  0  0
  -90.7232   21.6927    2.4635 N   0  0  0  0  0  0  0  0  0  0  0  0
  -90.7235   22.9792    3.0280 C   0  0  0  0  0  0  0  0  0  0  0  0
  -91.8064   23.2927    3.6542 O   0  0  0  0  0  0  0  0  0  0  0  0
  -89.7076   24.0348    3.0320 C   0  0  0  0  0  0  0  0  0  0  0  0
  -90.2531   25.2411    2.4196 N   0  0  0  0  0  0  0  0  0  0  0  0
  -89.6713   26.4612    2.1790 C   0  0  0  0  0  0  0  0  0  0  0  0
  -90.3002   27.4966    2.6429 O   0  0  0  0  0  0  0  0  0  0  0  0
  -88.4261   26.8351    1.4677 C   0  0  0  0  0  0  0  0  0  0  0  0
  -87.4061   27.1544    2.5363 C   0  0  0  0  0  0  0  0  0  0  0  0
  -86.8862   28.5076    2.2102 C   0  0  0  0  0  0  0  0  0  0  0  0
  -88.1266   29.1472    1.6086 C   0  0  0  0  0  0  0  0  0  0  0  0
  -88.6304   28.1049    0.7215 N   0  0  0  0  0  0  0  0  0  0  0  0
  -89.2078   28.1604   -0.5580 C   0  0  0  0  0  0  0  0  0  0  0  0
  -90.2468   28.9019   -0.6943 O   0  0  0  0  0  0  0  0  0  0  0  0
  -88.6214   25.3904   -1.3830 H   0  0  0  0  0  0  0  0  0  0  0  0
  -91.8071   26.2705   -0.1250 H   0  0  0  0  0  0  0  0  0  0  0  0
  -91.2841   22.5868   -1.8522 H   0  0  0  0  0  0  0  0  0  0  0  0
  -91.2811   25.1606    2.1198 H   0  0  0  0  0  0  0  0  0  0  0  0
  -89.0301   28.3003   -3.0153 C   0  0  0  0  0  0  0  0  0  0  0  0
  -87.8986   29.2766   -3.2000 C   0  0  0  0  0  0  0  0  0  0  0  0
  -88.2877   30.6751   -2.7509 C   0  0  0  0  0  0  0  0  0  0  0  0
  -87.5398   31.6057   -3.5570 N   0  0  0  0  0  0  0  0  0  0  0  0
  -86.5120   31.6797   -3.3963 H   0  0  0  0  0  0  0  0  0  0  0  0
  -89.1581   31.9967   -5.4247 N   0  0  0  0  0  0  0  0  0  0  0  0
  -88.1198   32.4238   -4.5527 C   0  0  0  0  0  0  0  0  0  0  0  0
  -87.6854   33.6295   -4.6826 N   0  0  0  0  0  0  0  0  0  0  0  0
  -90.1068   31.7580   -5.0458 H   0  0  0  0  0  0  0  0  0  0  0  0
  -89.0048   31.9117   -6.4457 H   0  0  0  0  0  0  0  0  0  0  0  0
  -88.0732   34.2787   -5.3979 H   0  0  0  0  0  0  0  0  0  0  0  0
  -92.7841   25.5476   -3.2385 C   0  0  0  0  0  0  0  0  0  0  0  0
  -92.9857   26.5039   -4.3058 C   0  0  0  0  0  0  0  0  0  0  0  0
  -93.4834   26.2430   -5.5484 C   0  0  0  0  0  0  0  0  0  0  0  0
  -93.6246   27.2039   -6.5494 C   0  0  0  0  0  0  0  0  0  0  0  0
  -93.2526   28.4885   -6.2998 C   0  0  0  0  0  0  0  0  0  0  0  0
  -92.7443   28.8058   -5.0588 C   0  0  0  0  0  0  0  0  0  0  0  0
  -92.6131   27.8421   -4.0861 C   0  0  0  0  0  0  0  0  0  0  0  0
  -89.3411   24.3270    4.4901 C   0  0  0  0  0  0  0  0  0  0  0  0
  -88.6625   23.1819    5.1200 C   0  0  0  0  0  0  0  0  0  0  0  0
  -88.7808   21.8697    4.6760 C   0  0  0  0  0  0  0  0  0  0  0  0
  -88.1396   20.8087    5.2686 C   0  0  0  0  0  0  0  0  0  0  0  0
  -87.3252   20.9967    6.3624 C   0  0  0  0  0  0  0  0  0  0  0  0
  -87.1837   22.2901    6.8326 C   0  0  0  0  0  0  0  0  0  0  0  0
  -87.8317   23.3350    6.2273 C   0  0  0  0  0  0  0  0  0  0  0  0
 40 41  1  0  0  0
 41 42  2  0  0  0
 41 38  1  0  0  0
 38 37  1  0  0  0
 37 36  1  0  0  0
 36 35  1  0  0  0
 35  1  1  0  0  0
  1  2  1  0  0  0
  2  3  1  0  0  0
  3  4  2  0  0  0
  3  5  1  0  0  0
  5 46  1  0  0  0
 46 47  1  0  0  0
 47 48  2  0  0  0
 48 49  1  0  0  0
 49 50  2  0  0  0
 50 51  1  0  0  0
 51 52  2  0  0  0
  5  6  1  0  0  0
  6  7  1  0  0  0
  7  8  2  0  0  0
  7  9  1  0  0  0
  9 10  1  0  0  0
 10 11  1  0  0  0
 11 12  2  0  0  0
 11 13  1  0  0  0
 13 14  1  0  0  0
 14 15  1  0  0  0
 15 16  1  0  0  0
 16 17  1  0  0  0
 17 18  1  0  0  0
 18 19  2  0  0  0
 18 20  1  0  0  0
 20 53  1  0  0  0
 53 54  1  0  0  0
 54 55  2  0  0  0
 55 56  1  0  0  0
 56 57  2  0  0  0
 57 58  1  0  0  0
 58 59  2  0  0  0
 20 21  1  0  0  0
 21 22  1  0  0  0
 22 23  2  0  0  0
 22 24  1  0  0  0
 24 25  1  0  0  0
 25 26  1  0  0  0
 26 27  1  0  0  0
 27 28  1  0  0  0
 28 29  1  0  0  0
 29 30  2  0  0  0
 29  1  1  0  0  0
 52 47  1  0  0  0
 17 13  1  0  0  0
 59 54  1  0  0  0
 28 24  1  0  0  0
 40 43  1  0  0  0
 40 44  1  0  0  0
 42 45  1  0  0  0
 38 39  1  0  0  0
  2 31  1  0  0  0
  6 32  1  0  0  0
 10 33  1  0  0  0
 21 34  1  0  0  0
M  END
> <minimizedAffinity>
-7.47292

> <CNNscore>
0.3460492492

> <CNNaffinity>
6.9067091942

> <CNN_VS>
2.3900616169

> <CNNaffinity_variance>
0.8044606447

$$$$
[H]N=C(N([H])[H])N([H])C([H])([H])C([H])([H])C([H])([H])[C@@]1([H])C(=O)N2C([H])([H])C([H])([H])C([H])([H])[C@@]2([H])C(=O)N([H])[C@@]([H])(C([H])([H])c2c([H])c([H])c([H])c([H])c2[H])C(=O)N2C([H])([H])C([H])([H])C([H])([H])[C@@]2([H])C(=O)N([H])C([H])([H])C(=O)N([H])[C@]([H])(C([H])([H])c2c([H])c([H])c([H])c([H])c2[H])C(=O)N1[H]


 59 63  0  0  0  0  0  0  0  0999 V2000
  -86.9855   27.3647   -0.1678 C   0  0  0  0  0  0  0  0  0  0  0  0
  -87.3914   28.2504   -1.2162 N   0  0  0  0  0  0  0  0  0  0  0  0
  -87.1471   29.6252   -1.4132 C   0  0  0  0  0  0  0  0  0  0  0  0
  -86.5276   29.9715   -2.4934 O   0  0  0  0  0  0  0  0  0  0  0  0
  -87.5290   30.7260   -0.5105 C   0  0  0  0  0  0  0  0  0  0  0  0
  -88.9746   30.8533   -0.3610 N   0  0  0  0  0  0  0  0  0  0  0  0
  -89.8592   31.7692   -0.8922 C   0  0  0  0  0  0  0  0  0  0  0  0
  -90.5371   32.4971   -0.0666 O   0  0  0  0  0  0  0  0  0  0  0  0
  -90.1874   32.0797   -2.3035 C   0  0  0  0  0  0  0  0  0  0  0  0
  -89.8034   31.1031   -3.2602 N   0  0  0  0  0  0  0  0  0  0  0  0
  -90.5556   30.0259   -3.7860 C   0  0  0  0  0  0  0  0  0  0  0  0
  -90.0180   28.8686   -3.6555 O   0  0  0  0  0  0  0  0  0  0  0  0
  -91.8470   30.0638   -4.4539 C   0  0  0  0  0  0  0  0  0  0  0  0
  -92.0150   31.3525   -5.2675 C   0  0  0  0  0  0  0  0  0  0  0  0
  -93.4158   31.7532   -4.9428 C   0  0  0  0  0  0  0  0  0  0  0  0
  -94.0846   30.4666   -4.5827 C   0  0  0  0  0  0  0  0  0  0  0  0
  -93.0331   29.8935   -3.6671 N   0  0  0  0  0  0  0  0  0  0  0  0
  -93.1775   29.3423   -2.3829 C   0  0  0  0  0  0  0  0  0  0  0  0
  -93.8440   30.0725   -1.5548 O   0  0  0  0  0  0  0  0  0  0  0  0
  -92.7029   28.0790   -1.8128 C   0  0  0  0  0  0  0  0  0  0  0  0
  -91.8510   28.3517   -0.6605 N   0  0  0  0  0  0  0  0  0  0  0  0
  -91.1658   27.4952    0.1653 C   0  0  0  0  0  0  0  0  0  0  0  0
  -91.3907   27.6235    1.4365 O   0  0  0  0  0  0  0  0  0  0  0  0
  -90.1869   26.4208   -0.1242 C   0  0  0  0  0  0  0  0  0  0  0  0
  -90.9342   25.1152    0.0208 C   0  0  0  0  0  0  0  0  0  0  0  0
  -90.1384   24.2950    0.9704 C   0  0  0  0  0  0  0  0  0  0  0  0
  -89.5772   25.3791    1.8755 C   0  0  0  0  0  0  0  0  0  0  0  0
  -89.1360   26.3959    0.9274 N   0  0  0  0  0  0  0  0  0  0  0  0
  -88.0075   27.2324    0.9065 C   0  0  0  0  0  0  0  0  0  0  0  0
  -87.8212   27.9815    1.9321 O   0  0  0  0  0  0  0  0  0  0  0  0
  -87.9710   27.7843   -1.9902 H   0  0  0  0  0  0  0  0  0  0  0  0
  -89.3949   30.0949    0.2768 H   0  0  0  0  0  0  0  0  0  0  0  0
  -88.7945   31.2243   -3.6207 H   0  0  0  0  0  0  0  0  0  0  0  0
  -91.7562   29.3929   -0.4152 H   0  0  0  0  0  0  0  0  0  0  0  0
  -85.6262   27.6529    0.4146 C   0  0  0  0  0  0  0  0  0  0  0  0
  -85.5535   27.0847    1.8073 C   0  0  0  0  0  0  0  0  0  0  0  0
  -84.7529   27.9819    2.7363 C   0  0  0  0  0  0  0  0  0  0  0  0
  -84.9483   29.3384    2.2925 N   0  0  0  0  0  0  0  0  0  0  0  0
  -84.9848   29.5192    1.2660 H   0  0  0  0  0  0  0  0  0  0  0  0
  -84.4168   31.6770    3.0057 N   0  0  0  0  0  0  0  0  0  0  0  0
  -85.0932   30.4374    3.1690 C   0  0  0  0  0  0  0  0  0  0  0  0
  -85.8843   30.3142    4.1782 N   0  0  0  0  0  0  0  0  0  0  0  0
  -84.6202   32.2894    2.1787 H   0  0  0  0  0  0  0  0  0  0  0  0
  -83.7132   32.0026    3.6929 H   0  0  0  0  0  0  0  0  0  0  0  0
  -86.0316   31.0885    4.8581 H   0  0  0  0  0  0  0  0  0  0  0  0
  -86.8388   32.0110   -0.7061 C   0  0  0  0  0  0  0  0  0  0  0  0
  -85.4048   31.9943   -0.5127 C   0  0  0  0  0  0  0  0  0  0  0  0
  -84.6344   30.9044   -0.2328 C   0  0  0  0  0  0  0  0  0  0  0  0
  -83.2563   30.9563   -0.0244 C   0  0  0  0  0  0  0  0  0  0  0  0
  -82.6137   32.1530   -0.0997 C   0  0  0  0  0  0  0  0  0  0  0  0
  -83.3460   33.2860   -0.3812 C   0  0  0  0  0  0  0  0  0  0  0  0
  -84.7047   33.2121   -0.5827 C   0  0  0  0  0  0  0  0  0  0  0  0
  -93.9283   27.2795   -1.3601 C   0  0  0  0  0  0  0  0  0  0  0  0
  -93.9026   25.9029   -1.8824 C   0  0  0  0  0  0  0  0  0  0  0  0
  -93.3929   25.5551   -3.1283 C   0  0  0  0  0  0  0  0  0  0  0  0
  -93.3697   24.2665   -3.6045 C   0  0  0  0  0  0  0  0  0  0  0  0
  -93.8641   23.2258   -2.8511 C   0  0  0  0  0  0  0  0  0  0  0  0
  -94.3799   23.5343   -1.6050 C   0  0  0  0  0  0  0  0  0  0  0  0
  -94.3937   24.8262   -1.1481 C   0  0  0  0  0  0  0  0  0  0  0  0
 40 41  1  0  0  0
 41 42  2  0  0  0
 41 38  1  0  0  0
 38 37  1  0  0  0
 37 36  1  0  0  0
 36 35  1  0  0  0
 35  1  1  0  0  0
  1  2  1  0  0  0
  2  3  1  0  0  0
  3  4  2  0  0  0
  3  5  1  0  0  0
  5 46  1  0  0  0
 46 47  1  0  0  0
 47 48  2  0  0  0
 48 49  1  0  0  0
 49 50  2  0  0  0
 50 51  1  0  0  0
 51 52  2  0  0  0
  5  6  1  0  0  0
  6  7  1  0  0  0
  7  8  2  0  0  0
  7  9  1  0  0  0
  9 10  1  0  0  0
 10 11  1  0  0  0
 11 12  2  0  0  0
 11 13  1  0  0  0
 13 14  1  0  0  0
 14 15  1  0  0  0
 15 16  1  0  0  0
 16 17  1  0  0  0
 17 18  1  0  0  0
 18 19  2  0  0  0
 18 20  1  0  0  0
 20 53  1  0  0  0
 53 54  1  0  0  0
 54 55  2  0  0  0
 55 56  1  0  0  0
 56 57  2  0  0  0
 57 58  1  0  0  0
 58 59  2  0  0  0
 20 21  1  0  0  0
 21 22  1  0  0  0
 22 23  2  0  0  0
 22 24  1  0  0  0
 24 25  1  0  0  0
 25 26  1  0  0  0
 26 27  1  0  0  0
 27 28  1  0  0  0
 28 29  1  0  0  0
 29 30  2  0  0  0
 29  1  1  0  0  0
 52 47  1  0  0  0
 17 13  1  0  0  0
 59 54  1  0  0  0
 28 24  1  0  0  0
 40 43  1  0  0  0
 40 44  1  0  0  0
 42 45  1  0  0  0
 38 39  1  0  0  0
  2 31  1  0  0  0
  6 32  1  0  0  0
 10 33  1  0  0  0
 21 34  1  0  0  0
M  END
> <minimizedAffinity>
-4.94048

> <CNNscore>
0.3206859827

> <CNNaffinity>
7.0655570030

> <CNN_VS>
2.2658250332

> <CNNaffinity_variance>
0.5046927333

$$$$
[H]N=C(N([H])[H])N([H])C([H])([H])C([H])([H])C([H])([H])[C@@]1([H])C(=O)N2C([H])([H])C([H])([H])C([H])([H])[C@@]2([H])C(=O)N([H])[C@@]([H])(C([H])([H])c2c([H])c([H])c([H])c([H])c2[H])C(=O)N2C([H])([H])C([H])([H])C([H])([H])[C@@]2([H])C(=O)N([H])C([H])([H])C(=O)N([H])[C@]([H])(C([H])([H])c2c([H])c([H])c([H])c([H])c2[H])C(=O)N1[H]


 59 63  0  0  0  0  0  0  0  0999 V2000
  -91.1276   27.2836   -0.0673 C   0  0  0  0  0  0  0  0  0  0  0  0
  -91.4206   28.6121   -0.5121 N   0  0  0  0  0  0  0  0  0  0  0  0
  -92.2618   29.0787   -1.5433 C   0  0  0  0  0  0  0  0  0  0  0  0
  -93.2277   29.8709   -1.2116 O   0  0  0  0  0  0  0  0  0  0  0  0
  -92.1565   28.7596   -2.9783 C   0  0  0  0  0  0  0  0  0  0  0  0
  -90.9145   29.2437   -3.5712 N   0  0  0  0  0  0  0  0  0  0  0  0
  -90.6690   30.3215   -4.3967 C   0  0  0  0  0  0  0  0  0  0  0  0
  -90.1700   30.0814   -5.5647 O   0  0  0  0  0  0  0  0  0  0  0  0
  -90.8827   31.7707   -4.1724 C   0  0  0  0  0  0  0  0  0  0  0  0
  -91.0560   32.1715   -2.8212 N   0  0  0  0  0  0  0  0  0  0  0  0
  -90.0871   32.6223   -1.8935 C   0  0  0  0  0  0  0  0  0  0  0  0
  -90.0342   31.9631   -0.7943 O   0  0  0  0  0  0  0  0  0  0  0  0
  -89.1550   33.7310   -2.0242 C   0  0  0  0  0  0  0  0  0  0  0  0
  -89.7627   34.8750   -2.8446 C   0  0  0  0  0  0  0  0  0  0  0  0
  -88.6287   35.2666   -3.7329 C   0  0  0  0  0  0  0  0  0  0  0  0
  -87.4130   34.8527   -2.9693 C   0  0  0  0  0  0  0  0  0  0  0  0
  -87.8471   33.4712   -2.5504 N   0  0  0  0  0  0  0  0  0  0  0  0
  -87.1548   32.2529   -2.6522 C   0  0  0  0  0  0  0  0  0  0  0  0
  -86.6660   32.0067   -3.8199 O   0  0  0  0  0  0  0  0  0  0  0  0
  -86.8878   31.2057   -1.6630 C   0  0  0  0  0  0  0  0  0  0  0  0
  -87.4420   29.9395   -2.1294 N   0  0  0  0  0  0  0  0  0  0  0  0
  -87.4622   28.7016   -1.5358 C   0  0  0  0  0  0  0  0  0  0  0  0
  -86.9887   27.7211   -2.2408 O   0  0  0  0  0  0  0  0  0  0  0  0
  -87.9373   28.2556   -0.2048 C   0  0  0  0  0  0  0  0  0  0  0  0
  -86.7016   28.0550    0.6419 C   0  0  0  0  0  0  0  0  0  0  0  0
  -86.8008   26.6755    1.1850 C   0  0  0  0  0  0  0  0  0  0  0  0
  -87.5077   25.9726    0.0379 C   0  0  0  0  0  0  0  0  0  0  0  0
  -88.5657   26.9125   -0.3149 N   0  0  0  0  0  0  0  0  0  0  0  0
  -89.9033   26.7186   -0.6981 C   0  0  0  0  0  0  0  0  0  0  0  0
  -90.1121   25.9649   -1.7160 O   0  0  0  0  0  0  0  0  0  0  0  0
  -90.9232   29.3847    0.0427 H   0  0  0  0  0  0  0  0  0  0  0  0
  -90.0641   28.6394   -3.3058 H   0  0  0  0  0  0  0  0  0  0  0  0
  -92.0779   32.1168   -2.4817 H   0  0  0  0  0  0  0  0  0  0  0  0
  -87.8976   29.9855   -3.1007 H   0  0  0  0  0  0  0  0  0  0  0  0
  -92.2781   26.3154   -0.1621 C   0  0  0  0  0  0  0  0  0  0  0  0
  -92.0275   25.1562    0.7659 C   0  0  0  0  0  0  0  0  0  0  0  0
  -92.7359   23.8979    0.2929 C   0  0  0  0  0  0  0  0  0  0  0  0
  -92.8221   23.9710   -1.1432 N   0  0  0  0  0  0  0  0  0  0  0  0
  -93.1295   24.8707   -1.5719 H   0  0  0  0  0  0  0  0  0  0  0  0
  -92.2240   23.0404   -3.3874 N   0  0  0  0  0  0  0  0  0  0  0  0
  -92.5139   22.8931   -2.0036 C   0  0  0  0  0  0  0  0  0  0  0  0
  -92.4931   21.7035   -1.5097 N   0  0  0  0  0  0  0  0  0  0  0  0
  -91.3651   23.5557   -3.6993 H   0  0  0  0  0  0  0  0  0  0  0  0
  -92.8478   22.6462   -4.1146 H   0  0  0  0  0  0  0  0  0  0  0  0
  -92.2731   20.8704   -2.0936 H   0  0  0  0  0  0  0  0  0  0  0  0
  -93.3472   29.0213   -3.8028 C   0  0  0  0  0  0  0  0  0  0  0  0
  -93.7460   27.9534   -4.6943 C   0  0  0  0  0  0  0  0  0  0  0  0
  -93.2101   26.7008   -4.7540 C   0  0  0  0  0  0  0  0  0  0  0  0
  -93.6162   25.7213   -5.6600 C   0  0  0  0  0  0  0  0  0  0  0  0
  -94.6058   26.0031   -6.5499 C   0  0  0  0  0  0  0  0  0  0  0  0
  -95.1821   27.2548   -6.5310 C   0  0  0  0  0  0  0  0  0  0  0  0
  -94.7659   28.2062   -5.6292 C   0  0  0  0  0  0  0  0  0  0  0  0
  -85.3688   31.0728   -1.5196 C   0  0  0  0  0  0  0  0  0  0  0  0
  -84.9399   31.2219   -0.1188 C   0  0  0  0  0  0  0  0  0  0  0  0
  -85.7979   31.1202    0.9705 C   0  0  0  0  0  0  0  0  0  0  0  0
  -85.3865   31.2568    2.2743 C   0  0  0  0  0  0  0  0  0  0  0  0
  -84.0673   31.5084    2.5763 C   0  0  0  0  0  0  0  0  0  0  0  0
  -83.1839   31.6162    1.5170 C   0  0  0  0  0  0  0  0  0  0  0  0
  -83.6141   31.4766    0.2234 C   0  0  0  0  0  0  0  0  0  0  0  0
 40 41  1  0  0  0
 41 42  2  0  0  0
 41 38  1  0  0  0
 38 37  1  0  0  0
 37 36  1  0  0  0
 36 35  1  0  0  0
 35  1  1  0  0  0
  1  2  1  0  0  0
  2  3  1  0  0  0
  3  4  2  0  0  0
  3  5  1  0  0  0
  5 46  1  0  0  0
 46 47  1  0  0  0
 47 48  2  0  0  0
 48 49  1  0  0  0
 49 50  2  0  0  0
 50 51  1  0  0  0
 51 52  2  0  0  0
  5  6  1  0  0  0
  6  7  1  0  0  0
  7  8  2  0  0  0
  7  9  1  0  0  0
  9 10  1  0  0  0
 10 11  1  0  0  0
 11 12  2  0  0  0
 11 13  1  0  0  0
 13 14  1  0  0  0
 14 15  1  0  0  0
 15 16  1  0  0  0
 16 17  1  0  0  0
 17 18  1  0  0  0
 18 19  2  0  0  0
 18 20  1  0  0  0
 20 53  1  0  0  0
 53 54  1  0  0  0
 54 55  2  0  0  0
 55 56  1  0  0  0
 56 57  2  0  0  0
 57 58  1  0  0  0
 58 59  2  0  0  0
 20 21  1  0  0  0
 21 22  1  0  0  0
 22 23  2  0  0  0
 22 24  1  0  0  0
 24 25  1  0  0  0
 25 26  1  0  0  0
 26 27  1  0  0  0
 27 28  1  0  0  0
 28 29  1  0  0  0
 29 30  2  0  0  0
 29  1  1  0  0  0
 52 47  1  0  0  0
 17 13  1  0  0  0
 59 54  1  0  0  0
 28 24  1  0  0  0
 40 43  1  0  0  0
 40 44  1  0  0  0
 42 45  1  0  0  0
 38 39  1  0  0  0
  2 31  1  0  0  0
  6 32  1  0  0  0
 10 33  1  0  0  0
 21 34  1  0  0  0
M  END
> <minimizedAffinity>
-5.46411

> <CNNscore>
0.2545739710

> <CNNaffinity>
6.8248176575

> <CNN_VS>
1.7374209166

> <CNNaffinity_variance>
1.2159115076

$$$$
[H]N=C(N([H])[H])N([H])C([H])([H])C([H])([H])C([H])([H])[C@@]1([H])C(=O)N2C([H])([H])C([H])([H])C([H])([H])[C@@]2([H])C(=O)N([H])[C@@]([H])(C([H])([H])c2c([H])c([H])c([H])c([H])c2[H])C(=O)N2C([H])([H])C([H])([H])C([H])([H])[C@@]2([H])C(=O)N([H])C([H])([H])C(=O)N([H])[C@]([H])(C([H])([H])c2c([H])c([H])c([H])c([H])c2[H])C(=O)N1[H]


 59 63  0  0  0  0  0  0  0  0999 V2000
  -89.8266   30.6300   -0.9020 C   0  0  0  0  0  0  0  0  0  0  0  0
  -89.7875   29.5975    0.0884 N   0  0  0  0  0  0  0  0  0  0  0  0
  -88.7147   29.0769    0.8412 C   0  0  0  0  0  0  0  0  0  0  0  0
  -88.7953   29.1583    2.1286 O   0  0  0  0  0  0  0  0  0  0  0  0
  -87.4959   28.4383    0.3128 C   0  0  0  0  0  0  0  0  0  0  0  0
  -87.7782   27.2051   -0.4136 N   0  0  0  0  0  0  0  0  0  0  0  0
  -87.6022   25.8851   -0.0527 C   0  0  0  0  0  0  0  0  0  0  0  0
  -86.8146   25.1639   -0.7808 O   0  0  0  0  0  0  0  0  0  0  0  0
  -88.1831   25.1112    1.0697 C   0  0  0  0  0  0  0  0  0  0  0  0
  -89.3300   25.6771    1.6869 N   0  0  0  0  0  0  0  0  0  0  0  0
  -90.6980   25.4496    1.4051 C   0  0  0  0  0  0  0  0  0  0  0  0
  -91.3824   26.5000    1.1337 O   0  0  0  0  0  0  0  0  0  0  0  0
  -91.4217   24.1882    1.3888 C   0  0  0  0  0  0  0  0  0  0  0  0
  -90.8652   23.2139    2.4338 C   0  0  0  0  0  0  0  0  0  0  0  0
  -90.8254   21.9266    1.6789 C   0  0  0  0  0  0  0  0  0  0  0  0
  -91.8794   22.0894    0.6326 C   0  0  0  0  0  0  0  0  0  0  0  0
  -91.5318   23.4747    0.1503 N   0  0  0  0  0  0  0  0  0  0  0  0
  -91.3585   23.9410   -1.1636 C   0  0  0  0  0  0  0  0  0  0  0  0
  -90.5640   23.2287   -1.8879 O   0  0  0  0  0  0  0  0  0  0  0  0
  -91.9221   25.0990   -1.8620 C   0  0  0  0  0  0  0  0  0  0  0  0
  -90.8423   25.9597   -2.3324 N   0  0  0  0  0  0  0  0  0  0  0  0
  -90.8833   27.1563   -3.0043 C   0  0  0  0  0  0  0  0  0  0  0  0
  -90.2007   27.2180   -4.1057 O   0  0  0  0  0  0  0  0  0  0  0  0
  -91.5764   28.4312   -2.7034 C   0  0  0  0  0  0  0  0  0  0  0  0
  -92.7810   28.4850   -3.6147 C   0  0  0  0  0  0  0  0  0  0  0  0
  -92.6943   29.7866   -4.3260 C   0  0  0  0  0  0  0  0  0  0  0  0
  -91.1870   29.9446   -4.4394 C   0  0  0  0  0  0  0  0  0  0  0  0
  -90.7222   29.5798   -3.1059 N   0  0  0  0  0  0  0  0  0  0  0  0
  -89.7066   30.1057   -2.2901 C   0  0  0  0  0  0  0  0  0  0  0  0
  -88.5241   30.1449   -2.7879 O   0  0  0  0  0  0  0  0  0  0  0  0
  -90.7406   29.1524    0.3021 H   0  0  0  0  0  0  0  0  0  0  0  0
  -88.1896   27.3840   -1.3921 H   0  0  0  0  0  0  0  0  0  0  0  0
  -89.0969   26.3716    2.4781 H   0  0  0  0  0  0  0  0  0  0  0  0
  -89.8563   25.5870   -2.1272 H   0  0  0  0  0  0  0  0  0  0  0  0
  -88.8651   31.7667   -0.6707 C   0  0  0  0  0  0  0  0  0  0  0  0
  -89.3479   32.9831   -1.4159 C   0  0  0  0  0  0  0  0  0  0  0  0
  -88.2353   33.6150   -2.2354 C   0  0  0  0  0  0  0  0  0  0  0  0
  -87.0326   32.8676   -1.9702 N   0  0  0  0  0  0  0  0  0  0  0  0
  -87.0040   31.8651   -2.2561 H   0  0  0  0  0  0  0  0  0  0  0  0
  -84.6064   33.4784   -1.9521 N   0  0  0  0  0  0  0  0  0  0  0  0
  -85.8901   33.4158   -1.3448 C   0  0  0  0  0  0  0  0  0  0  0  0
  -86.0134   33.8885   -0.1527 N   0  0  0  0  0  0  0  0  0  0  0  0
  -84.4475   34.0745   -2.8006 H   0  0  0  0  0  0  0  0  0  0  0  0
  -83.8042   32.9420   -1.5753 H   0  0  0  0  0  0  0  0  0  0  0  0
  -85.2080   34.3045    0.3588 H   0  0  0  0  0  0  0  0  0  0  0  0
  -86.3519   28.3346    1.2329 C   0  0  0  0  0  0  0  0  0  0  0  0
  -85.4365   29.4553    1.2324 C   0  0  0  0  0  0  0  0  0  0  0  0
  -84.5908   29.8143    0.2246 C   0  0  0  0  0  0  0  0  0  0  0  0
  -83.7054   30.8896    0.2955 C   0  0  0  0  0  0  0  0  0  0  0  0
  -83.6610   31.6453    1.4259 C   0  0  0  0  0  0  0  0  0  0  0  0
  -84.4963   31.3256    2.4743 C   0  0  0  0  0  0  0  0  0  0  0  0
  -85.3616   30.2603    2.3833 C   0  0  0  0  0  0  0  0  0  0  0  0
  -92.7175   24.5802   -3.0635 C   0  0  0  0  0  0  0  0  0  0  0  0
  -93.4968   23.3783   -2.7216 C   0  0  0  0  0  0  0  0  0  0  0  0
  -93.3231   22.1413   -3.3321 C   0  0  0  0  0  0  0  0  0  0  0  0
  -94.0528   21.0247   -3.0024 C   0  0  0  0  0  0  0  0  0  0  0  0
  -95.0197   21.0759   -2.0239 C   0  0  0  0  0  0  0  0  0  0  0  0
  -95.2206   22.2913   -1.3942 C   0  0  0  0  0  0  0  0  0  0  0  0
  -94.4822   23.3935   -1.7375 C   0  0  0  0  0  0  0  0  0  0  0  0
 40 41  1  0  0  0
 41 42  2  0  0  0
 41 38  1  0  0  0
 38 37  1  0  0  0
 37 36  1  0  0  0
 36 35  1  0  0  0
 35  1  1  0  0  0
  1  2  1  0  0  0
  2  3  1  0  0  0
  3  4  2  0  0  0
  3  5  1  0  0  0
  5 46  1  0  0  0
 46 47  1  0  0  0
 47 48  2  0  0  0
 48 49  1  0  0  0
 49 50  2  0  0  0
 50 51  1  0  0  0
 51 52  2  0  0  0
  5  6  1  0  0  0
  6  7  1  0  0  0
  7  8  2  0  0  0
  7  9  1  0  0  0
  9 10  1  0  0  0
 10 11  1  0  0  0
 11 12  2  0  0  0
 11 13  1  0  0  0
 13 14  1  0  0  0
 14 15  1  0  0  0
 15 16  1  0  0  0
 16 17  1  0  0  0
 17 18  1  0  0  0
 18 19  2  0  0  0
 18 20  1  0  0  0
 20 53  1  0  0  0
 53 54  1  0  0  0
 54 55  2  0  0  0
 55 56  1  0  0  0
 56 57  2  0  0  0
 57 58  1  0  0  0
 58 59  2  0  0  0
 20 21  1  0  0  0
 21 22  1  0  0  0
 22 23  2  0  0  0
 22 24  1  0  0  0
 24 25  1  0  0  0
 25 26  1  0  0  0
 26 27  1  0  0  0
 27 28  1  0  0  0
 28 29  1  0  0  0
 29 30  2  0  0  0
 29  1  1  0  0  0
 52 47  1  0  0  0
 17 13  1  0  0  0
 59 54  1  0  0  0
 28 24  1  0  0  0
 40 43  1  0  0  0
 40 44  1  0  0  0
 42 45  1  0  0  0
 38 39  1  0  0  0
  2 31  1  0  0  0
  6 32  1  0  0  0
 10 33  1  0  0  0
 21 34  1  0  0  0
M  END
> <minimizedAffinity>
-6.86613

> <CNNscore>
0.2042448819

> <CNNaffinity>
6.8795623779

> <CNN_VS>
1.4051153660

> <CNNaffinity_variance>
0.8756230474

$$$$
[H]N=C(N([H])[H])N([H])C([H])([H])C([H])([H])C([H])([H])[C@@]1([H])C(=O)N2C([H])([H])C([H])([H])C([H])([H])[C@@]2([H])C(=O)N([H])[C@@]([H])(C([H])([H])c2c([H])c([H])c([H])c([H])c2[H])C(=O)N2C([H])([H])C([H])([H])C([H])([H])[C@@]2([H])C(=O)N([H])C([H])([H])C(=O)N([H])[C@]([H])(C([H])([H])c2c([H])c([H])c([H])c([H])c2[H])C(=O)N1[H]


 59 63  0  0  0  0  0  0  0  0999 V2000
  -93.3038   32.2180   -4.3826 C   0  0  0  0  0  0  0  0  0  0  0  0
  -92.1385   32.8292   -3.8197 N   0  0  0  0  0  0  0  0  0  0  0  0
  -91.0866   33.5482   -4.4240 C   0  0  0  0  0  0  0  0  0  0  0  0
  -90.8945   34.7649   -4.0325 O   0  0  0  0  0  0  0  0  0  0  0  0
  -90.1675   33.0558   -5.4658 C   0  0  0  0  0  0  0  0  0  0  0  0
  -89.3413   31.9449   -5.0058 N   0  0  0  0  0  0  0  0  0  0  0  0
  -88.0110   31.9001   -4.6429 C   0  0  0  0  0  0  0  0  0  0  0  0
  -87.2301   31.1238   -5.3200 O   0  0  0  0  0  0  0  0  0  0  0  0
  -87.2854   32.6131   -3.5653 C   0  0  0  0  0  0  0  0  0  0  0  0
  -88.0914   33.1778   -2.5416 N   0  0  0  0  0  0  0  0  0  0  0  0
  -88.4802   32.6175   -1.3016 C   0  0  0  0  0  0  0  0  0  0  0  0
  -89.7451   32.5781   -1.0921 O   0  0  0  0  0  0  0  0  0  0  0  0
  -87.6357   32.0895   -0.2418 C   0  0  0  0  0  0  0  0  0  0  0  0
  -86.3103   32.8552   -0.1529 C   0  0  0  0  0  0  0  0  0  0  0  0
  -85.3182   31.7541    0.0246 C   0  0  0  0  0  0  0  0  0  0  0  0
  -86.1105   30.6519    0.6488 C   0  0  0  0  0  0  0  0  0  0  0  0
  -87.3252   30.6899   -0.2431 N   0  0  0  0  0  0  0  0  0  0  0  0
  -87.9771   29.6345   -0.9026 C   0  0  0  0  0  0  0  0  0  0  0  0
  -87.2008   28.8658   -1.5878 O   0  0  0  0  0  0  0  0  0  0  0  0
  -89.3897   29.2492   -0.9517 C   0  0  0  0  0  0  0  0  0  0  0  0
  -89.8506   29.2556   -2.3357 N   0  0  0  0  0  0  0  0  0  0  0  0
  -91.0902   28.9933   -2.8647 C   0  0  0  0  0  0  0  0  0  0  0  0
  -91.1352   28.0946   -3.7990 O   0  0  0  0  0  0  0  0  0  0  0  0
  -92.4275   29.5580   -2.5664 C   0  0  0  0  0  0  0  0  0  0  0  0
  -93.1494   28.5233   -1.7342 C   0  0  0  0  0  0  0  0  0  0  0  0
  -94.4426   28.2779   -2.4234 C   0  0  0  0  0  0  0  0  0  0  0  0
  -94.0288   28.4698   -3.8731 C   0  0  0  0  0  0  0  0  0  0  0  0
  -93.2171   29.6805   -3.8204 N   0  0  0  0  0  0  0  0  0  0  0  0
  -93.1080   30.7754   -4.6938 C   0  0  0  0  0  0  0  0  0  0  0  0
  -92.8016   30.5170   -5.9132 O   0  0  0  0  0  0  0  0  0  0  0  0
  -92.0591   32.7330   -2.7535 H   0  0  0  0  0  0  0  0  0  0  0  0
  -89.8846   31.0172   -4.9520 H   0  0  0  0  0  0  0  0  0  0  0  0
  -88.4402   34.1732   -2.7656 H   0  0  0  0  0  0  0  0  0  0  0  0
  -89.0903   29.4940   -3.0556 H   0  0  0  0  0  0  0  0  0  0  0  0
  -93.8958   32.9475   -5.5605 C   0  0  0  0  0  0  0  0  0  0  0  0
  -94.0396   34.4068   -5.2178 C   0  0  0  0  0  0  0  0  0  0  0  0
  -95.2211   35.0362   -5.9368 C   0  0  0  0  0  0  0  0  0  0  0  0
  -94.6945   35.7829   -7.0505 N   0  0  0  0  0  0  0  0  0  0  0  0
  -94.0565   35.2920   -7.7136 H   0  0  0  0  0  0  0  0  0  0  0  0
  -95.2253   38.1004   -6.2710 N   0  0  0  0  0  0  0  0  0  0  0  0
  -94.9933   37.1423   -7.2952 C   0  0  0  0  0  0  0  0  0  0  0  0
  -95.0609   37.5427   -8.5177 N   0  0  0  0  0  0  0  0  0  0  0  0
  -94.4556   38.3717   -5.6118 H   0  0  0  0  0  0  0  0  0  0  0  0
  -96.1511   38.5496   -6.1517 H   0  0  0  0  0  0  0  0  0  0  0  0
  -95.2773   38.5315   -8.7602 H   0  0  0  0  0  0  0  0  0  0  0  0
  -89.4223   34.0731   -6.2245 C   0  0  0  0  0  0  0  0  0  0  0  0
  -90.1782   34.7950   -7.2253 C   0  0  0  0  0  0  0  0  0  0  0  0
  -90.1336   36.1363   -7.4677 C   0  0  0  0  0  0  0  0  0  0  0  0
  -90.9127   36.7816   -8.4277 C   0  0  0  0  0  0  0  0  0  0  0  0
  -91.7783   36.0546   -9.1847 C   0  0  0  0  0  0  0  0  0  0  0  0
  -91.8614   34.6942   -8.9805 C   0  0  0  0  0  0  0  0  0  0  0  0
  -91.0840   34.0782   -8.0276 C   0  0  0  0  0  0  0  0  0  0  0  0
  -89.5088   27.8318   -0.3837 C   0  0  0  0  0  0  0  0  0  0  0  0
  -89.9152   27.8458    1.0316 C   0  0  0  0  0  0  0  0  0  0  0  0
  -89.3826   27.0025    2.0002 C   0  0  0  0  0  0  0  0  0  0  0  0
  -89.7659   27.0266    3.3194 C   0  0  0  0  0  0  0  0  0  0  0  0
  -90.7234   27.9116    3.7610 C   0  0  0  0  0  0  0  0  0  0  0  0
  -91.2763   28.7668    2.8245 C   0  0  0  0  0  0  0  0  0  0  0  0
  -90.8802   28.7270    1.5132 C   0  0  0  0  0  0  0  0  0  0  0  0
 40 41  1  0  0  0
 41 42  2  0  0  0
 41 38  1  0  0  0
 38 37  1  0  0  0
 37 36  1  0  0  0
 36 35  1  0  0  0
 35  1  1  0  0  0
  1  2  1  0  0  0
  2  3  1  0  0  0
  3  4  2  0  0  0
  3  5  1  0  0  0
  5 46  1  0  0  0
 46 47  1  0  0  0
 47 48  2  0  0  0
 48 49  1  0  0  0
 49 50  2  0  0  0
 50 51  1  0  0  0
 51 52  2  0  0  0
  5  6  1  0  0  0
  6  7  1  0  0  0
  7  8  2  0  0  0
  7  9  1  0  0  0
  9 10  1  0  0  0
 10 11  1  0  0  0
 11 12  2  0  0  0
 11 13  1  0  0  0
 13 14  1  0  0  0
 14 15  1  0  0  0
 15 16  1  0  0  0
 16 17  1  0  0  0
 17 18  1  0  0  0
 18 19  2  0  0  0
 18 20  1  0  0  0
 20 53  1  0  0  0
 53 54  1  0  0  0
 54 55  2  0  0  0
 55 56  1  0  0  0
 56 57  2  0  0  0
 57 58  1  0  0  0
 58 59  2  0  0  0
 20 21  1  0  0  0
 21 22  1  0  0  0
 22 23  2  0  0  0
 22 24  1  0  0  0
 24 25  1  0  0  0
 25 26  1  0  0  0
 26 27  1  0  0  0
 27 28  1  0  0  0
 28 29  1  0  0  0
 29 30  2  0  0  0
 29  1  1  0  0  0
 52 47  1  0  0  0
 17 13  1  0  0  0
 59 54  1  0  0  0
 28 24  1  0  0  0
 40 43  1  0  0  0
 40 44  1  0  0  0
 42 45  1  0  0  0
 38 39  1  0  0  0
  2 31  1  0  0  0
  6 32  1  0  0  0
 10 33  1  0  0  0
 21 34  1  0  0  0
M  END
> <minimizedAffinity>
-7.92474

> <CNNscore>
0.1976789832

> <CNNaffinity>
6.9047346115

> <CNN_VS>
1.3649209738

> <CNNaffinity_variance>
0.5101420283

$$$$
[H]N=C(N([H])[H])N([H])C([H])([H])C([H])([H])C([H])([H])[C@@]1([H])C(=O)N2C([H])([H])C([H])([H])C([H])([H])[C@@]2([H])C(=O)N([H])[C@@]([H])(C([H])([H])c2c([H])c([H])c([H])c([H])c2[H])C(=O)N2C([H])([H])C([H])([H])C([H])([H])[C@@]2([H])C(=O)N([H])C([H])([H])C(=O)N([H])[C@]([H])(C([H])([H])c2c([H])c([H])c([H])c([H])c2[H])C(=O)N1[H]


 59 63  0  0  0  0  0  0  0  0999 V2000
  -88.0658   27.0952   -0.4514 C   0  0  0  0  0  0  0  0  0  0  0  0
  -88.6017   27.5121   -1.7113 N   0  0  0  0  0  0  0  0  0  0  0  0
  -88.7695   28.7976   -2.2663 C   0  0  0  0  0  0  0  0  0  0  0  0
  -88.1676   29.0479   -3.3824 O   0  0  0  0  0  0  0  0  0  0  0  0
  -89.5699   29.9013   -1.7064 C   0  0  0  0  0  0  0  0  0  0  0  0
  -90.9922   29.5841   -1.6371 N   0  0  0  0  0  0  0  0  0  0  0  0
  -92.0485   30.0008   -2.4207 C   0  0  0  0  0  0  0  0  0  0  0  0
  -93.0057   30.6488   -1.8422 O   0  0  0  0  0  0  0  0  0  0  0  0
  -92.2938   29.8281   -3.8719 C   0  0  0  0  0  0  0  0  0  0  0  0
  -91.5234   28.8251   -4.5175 N   0  0  0  0  0  0  0  0  0  0  0  0
  -91.8448   27.4671   -4.7525 C   0  0  0  0  0  0  0  0  0  0  0  0
  -90.9971   26.6181   -4.2987 O   0  0  0  0  0  0  0  0  0  0  0  0
  -93.0013   26.9163   -5.4412 C   0  0  0  0  0  0  0  0  0  0  0  0
  -93.4624   27.8364   -6.5777 C   0  0  0  0  0  0  0  0  0  0  0  0
  -94.9460   27.8267   -6.4126 C   0  0  0  0  0  0  0  0  0  0  0  0
  -95.2250   26.5240   -5.7362 C   0  0  0  0  0  0  0  0  0  0  0  0
  -94.1595   26.5696   -4.6709 N   0  0  0  0  0  0  0  0  0  0  0  0
  -94.2728   26.3374   -3.2899 C   0  0  0  0  0  0  0  0  0  0  0  0
  -95.2202   26.9919   -2.7093 O   0  0  0  0  0  0  0  0  0  0  0  0
  -93.5020   25.4799   -2.3861 C   0  0  0  0  0  0  0  0  0  0  0  0
  -92.9109   26.2911   -1.3276 N   0  0  0  0  0  0  0  0  0  0  0  0
  -92.0946   25.9367   -0.2820 C   0  0  0  0  0  0  0  0  0  0  0  0
  -92.4906   26.2952    0.9001 O   0  0  0  0  0  0  0  0  0  0  0  0
  -90.8076   25.2030   -0.2426 C   0  0  0  0  0  0  0  0  0  0  0  0
  -91.1306   23.8042    0.2298 C   0  0  0  0  0  0  0  0  0  0  0  0
  -90.2348   23.5495    1.3876 C   0  0  0  0  0  0  0  0  0  0  0  0
  -90.1390   24.9455    1.9805 C   0  0  0  0  0  0  0  0  0  0  0  0
  -89.9258   25.7824    0.8052 N   0  0  0  0  0  0  0  0  0  0  0  0
  -89.1130   26.9078    0.5899 C   0  0  0  0  0  0  0  0  0  0  0  0
  -89.2826   27.9059    1.3790 O   0  0  0  0  0  0  0  0  0  0  0  0
  -88.9191   26.7066   -2.3460 H   0  0  0  0  0  0  0  0  0  0  0  0
  -91.2295   28.9130   -0.8296 H   0  0  0  0  0  0  0  0  0  0  0  0
  -90.5660   29.1747   -4.8692 H   0  0  0  0  0  0  0  0  0  0  0  0
  -93.1680   27.3328   -1.3709 H   0  0  0  0  0  0  0  0  0  0  0  0
  -86.9352   27.9447    0.0686 C   0  0  0  0  0  0  0  0  0  0  0  0
  -86.3307   27.2790    1.2765 C   0  0  0  0  0  0  0  0  0  0  0  0
  -86.3231   28.2057    2.4807 C   0  0  0  0  0  0  0  0  0  0  0  0
  -85.0564   28.8917    2.4832 N   0  0  0  0  0  0  0  0  0  0  0  0
  -85.0613   29.9330    2.4248 H   0  0  0  0  0  0  0  0  0  0  0  0
  -82.5675   28.8450    2.2313 N   0  0  0  0  0  0  0  0  0  0  0  0
  -83.8081   28.2339    2.5604 C   0  0  0  0  0  0  0  0  0  0  0  0
  -83.7871   27.0067    2.9518 N   0  0  0  0  0  0  0  0  0  0  0  0
  -82.1997   29.6441    2.8028 H   0  0  0  0  0  0  0  0  0  0  0  0
  -82.0020   28.5192    1.4268 H   0  0  0  0  0  0  0  0  0  0  0  0
  -82.8985   26.4701    3.0285 H   0  0  0  0  0  0  0  0  0  0  0  0
  -89.2889   31.2502   -2.2234 C   0  0  0  0  0  0  0  0  0  0  0  0
  -88.1104   31.8989   -1.6901 C   0  0  0  0  0  0  0  0  0  0  0  0
  -87.3645   31.4840   -0.6265 C   0  0  0  0  0  0  0  0  0  0  0  0
  -86.2540   32.1714   -0.1372 C   0  0  0  0  0  0  0  0  0  0  0  0
  -85.8667   33.3290   -0.7379 C   0  0  0  0  0  0  0  0  0  0  0  0
  -86.5860   33.7920   -1.8183 C   0  0  0  0  0  0  0  0  0  0  0  0
  -87.6786   33.0984   -2.2841 C   0  0  0  0  0  0  0  0  0  0  0  0
  -94.4667   24.4636   -1.7679 C   0  0  0  0  0  0  0  0  0  0  0  0
  -94.1784   23.0933   -2.2239 C   0  0  0  0  0  0  0  0  0  0  0  0
  -93.8781   22.7605   -3.5400 C   0  0  0  0  0  0  0  0  0  0  0  0
  -93.6063   21.4790   -3.9542 C   0  0  0  0  0  0  0  0  0  0  0  0
  -93.6181   20.4306   -3.0622 C   0  0  0  0  0  0  0  0  0  0  0  0
  -93.9133   20.7241   -1.7428 C   0  0  0  0  0  0  0  0  0  0  0  0
  -94.1815   22.0092   -1.3496 C   0  0  0  0  0  0  0  0  0  0  0  0
 40 41  1  0  0  0
 41 42  2  0  0  0
 41 38  1  0  0  0
 38 37  1  0  0  0
 37 36  1  0  0  0
 36 35  1  0  0  0
 35  1  1  0  0  0
  1  2  1  0  0  0
  2  3  1  0  0  0
  3  4  2  0  0  0
  3  5  1  0  0  0
  5 46  1  0  0  0
 46 47  1  0  0  0
 47 48  2  0  0  0
 48 49  1  0  0  0
 49 50  2  0  0  0
 50 51  1  0  0  0
 51 52  2  0  0  0
  5  6  1  0  0  0
  6  7  1  0  0  0
  7  8  2  0  0  0
  7  9  1  0  0  0
  9 10  1  0  0  0
 10 11  1  0  0  0
 11 12  2  0  0  0
 11 13  1  0  0  0
 13 14  1  0  0  0
 14 15  1  0  0  0
 15 16  1  0  0  0
 16 17  1  0  0  0
 17 18  1  0  0  0
 18 19  2  0  0  0
 18 20  1  0  0  0
 20 53  1  0  0  0
 53 54  1  0  0  0
 54 55  2  0  0  0
 55 56  1  0  0  0
 56 57  2  0  0  0
 57 58  1  0  0  0
 58 59  2  0  0  0
 20 21  1  0  0  0
 21 22  1  0  0  0
 22 23  2  0  0  0
 22 24  1  0  0  0
 24 25  1  0  0  0
 25 26  1  0  0  0
 26 27  1  0  0  0
 27 28  1  0  0  0
 28 29  1  0  0  0
 29 30  2  0  0  0
 29  1  1  0  0  0
 52 47  1  0  0  0
 17 13  1  0  0  0
 59 54  1  0  0  0
 28 24  1  0  0  0
 40 43  1  0  0  0
 40 44  1  0  0  0
 42 45  1  0  0  0
 38 39  1  0  0  0
  2 31  1  0  0  0
  6 32  1  0  0  0
 10 33  1  0  0  0
 21 34  1  0  0  0
M  END
> <minimizedAffinity>
-8.08900

> <CNNscore>
0.1831399351

> <CNNaffinity>
7.0335798264

> <CNN_VS>
1.2881293297

> <CNNaffinity_variance>
0.7124217749

$$$$
[H]N=C(N([H])[H])N([H])C([H])([H])C([H])([H])C([H])([H])[C@@]1([H])C(=O)N2C([H])([H])C([H])([H])C([H])([H])[C@@]2([H])C(=O)N([H])[C@@]([H])(C([H])([H])c2c([H])c([H])c([H])c([H])c2[H])C(=O)N2C([H])([H])C([H])([H])C([H])([H])[C@@]2([H])C(=O)N([H])C([H])([H])C(=O)N([H])[C@]([H])(C([H])([H])c2c([H])c([H])c([H])c([H])c2[H])C(=O)N1[H]


 59 63  0  0  0  0  0  0  0  0999 V2000
  -89.2352   26.1751    2.0453 C   0  0  0  0  0  0  0  0  0  0  0  0
  -90.4081   25.5958    1.4645 N   0  0  0  0  0  0  0  0  0  0  0  0
  -90.7227   24.2567    1.1539 C   0  0  0  0  0  0  0  0  0  0  0  0
  -91.7628   23.7417    1.7226 O   0  0  0  0  0  0  0  0  0  0  0  0
  -89.9863   23.3689    0.2363 C   0  0  0  0  0  0  0  0  0  0  0  0
  -90.0031   23.8475   -1.1417 N   0  0  0  0  0  0  0  0  0  0  0  0
  -90.7176   23.4127   -2.2390 C   0  0  0  0  0  0  0  0  0  0  0  0
  -90.0491   22.9907   -3.2616 O   0  0  0  0  0  0  0  0  0  0  0  0
  -92.1805   23.3425   -2.4655 C   0  0  0  0  0  0  0  0  0  0  0  0
  -92.9831   24.1197   -1.5891 N   0  0  0  0  0  0  0  0  0  0  0  0
  -93.4678   25.4385   -1.7576 C   0  0  0  0  0  0  0  0  0  0  0  0
  -93.1601   26.2581   -0.8200 O   0  0  0  0  0  0  0  0  0  0  0  0
  -94.2672   25.9774   -2.8465 C   0  0  0  0  0  0  0  0  0  0  0  0
  -95.2256   24.9209   -3.4089 C   0  0  0  0  0  0  0  0  0  0  0  0
  -95.0933   25.1234   -4.8819 C   0  0  0  0  0  0  0  0  0  0  0  0
  -94.6710   26.5505   -5.0132 C   0  0  0  0  0  0  0  0  0  0  0  0
  -93.5951   26.5842   -3.9579 N   0  0  0  0  0  0  0  0  0  0  0  0
  -92.2820   27.0765   -4.0427 C   0  0  0  0  0  0  0  0  0  0  0  0
  -91.6100   26.6474   -5.0563 O   0  0  0  0  0  0  0  0  0  0  0  0
  -91.5350   27.9952   -3.1800 C   0  0  0  0  0  0  0  0  0  0  0  0
  -90.3353   27.3317   -2.6814 N   0  0  0  0  0  0  0  0  0  0  0  0
  -89.3565   27.7799   -1.8293 C   0  0  0  0  0  0  0  0  0  0  0  0
  -88.1366   27.6897   -2.2611 O   0  0  0  0  0  0  0  0  0  0  0  0
  -89.4269   28.3627   -0.4685 C   0  0  0  0  0  0  0  0  0  0  0  0
  -89.2235   29.8513   -0.6331 C   0  0  0  0  0  0  0  0  0  0  0  0
  -88.1146   30.2139    0.2870 C   0  0  0  0  0  0  0  0  0  0  0  0
  -87.2756   28.9481    0.2276 C   0  0  0  0  0  0  0  0  0  0  0  0
  -88.2745   27.8919    0.3446 N   0  0  0  0  0  0  0  0  0  0  0  0
  -88.2657   26.6638    1.0268 C   0  0  0  0  0  0  0  0  0  0  0  0
  -87.3112   25.8519    0.7482 O   0  0  0  0  0  0  0  0  0  0  0  0
  -91.1847   26.3013    1.2379 H   0  0  0  0  0  0  0  0  0  0  0  0
  -89.3361   24.6770   -1.3018 H   0  0  0  0  0  0  0  0  0  0  0  0
  -93.2469   23.6086   -0.6771 H   0  0  0  0  0  0  0  0  0  0  0  0
  -90.1930   26.3343   -3.0529 H   0  0  0  0  0  0  0  0  0  0  0  0
  -88.5477   25.3164    3.0749 C   0  0  0  0  0  0  0  0  0  0  0  0
  -89.4209   25.2143    4.2975 C   0  0  0  0  0  0  0  0  0  0  0  0
  -90.8443   25.6597    4.0068 C   0  0  0  0  0  0  0  0  0  0  0  0
  -91.1781   26.6776    4.9699 N   0  0  0  0  0  0  0  0  0  0  0  0
  -92.1718   26.7572    5.2764 H   0  0  0  0  0  0  0  0  0  0  0  0
  -89.6811   27.4388    6.8245 N   0  0  0  0  0  0  0  0  0  0  0  0
  -90.2357   27.5739    5.5226 C   0  0  0  0  0  0  0  0  0  0  0  0
  -89.8528   28.5754    4.8085 N   0  0  0  0  0  0  0  0  0  0  0  0
  -89.0656   26.6222    7.0587 H   0  0  0  0  0  0  0  0  0  0  0  0
  -89.8695   28.1367    7.5666 H   0  0  0  0  0  0  0  0  0  0  0  0
  -89.1615   29.2689    5.1614 H   0  0  0  0  0  0  0  0  0  0  0  0
  -90.2435   21.9255    0.3647 C   0  0  0  0  0  0  0  0  0  0  0  0
  -89.6283   21.2722    1.5000 C   0  0  0  0  0  0  0  0  0  0  0  0
  -88.5815   20.3989    1.4670 C   0  0  0  0  0  0  0  0  0  0  0  0
  -88.0511   19.7743    2.5956 C   0  0  0  0  0  0  0  0  0  0  0  0
  -88.5896   20.0335    3.8178 C   0  0  0  0  0  0  0  0  0  0  0  0
  -89.6491   20.9101    3.9067 C   0  0  0  0  0  0  0  0  0  0  0  0
  -90.1570   21.5147    2.7805 C   0  0  0  0  0  0  0  0  0  0  0  0
  -91.1308   29.2071   -4.0247 C   0  0  0  0  0  0  0  0  0  0  0  0
  -92.2083   30.2089   -4.0886 C   0  0  0  0  0  0  0  0  0  0  0  0
  -92.6014   30.8522   -5.2568 C   0  0  0  0  0  0  0  0  0  0  0  0
  -93.6113   31.7825   -5.3064 C   0  0  0  0  0  0  0  0  0  0  0  0
  -94.3040   32.1346   -4.1700 C   0  0  0  0  0  0  0  0  0  0  0  0
  -93.9400   31.5147   -2.9880 C   0  0  0  0  0  0  0  0  0  0  0  0
  -92.9298   30.5890   -2.9596 C   0  0  0  0  0  0  0  0  0  0  0  0
 40 41  1  0  0  0
 41 42  2  0  0  0
 41 38  1  0  0  0
 38 37  1  0  0  0
 37 36  1  0  0  0
 36 35  1  0  0  0
 35  1  1  0  0  0
  1  2  1  0  0  0
  2  3  1  0  0  0
  3  4  2  0  0  0
  3  5  1  0  0  0
  5 46  1  0  0  0
 46 47  1  0  0  0
 47 48  2  0  0  0
 48 49  1  0  0  0
 49 50  2  0  0  0
 50 51  1  0  0  0
 51 52  2  0  0  0
  5  6  1  0  0  0
  6  7  1  0  0  0
  7  8  2  0  0  0
  7  9  1  0  0  0
  9 10  1  0  0  0
 10 11  1  0  0  0
 11 12  2  0  0  0
 11 13  1  0  0  0
 13 14  1  0  0  0
 14 15  1  0  0  0
 15 16  1  0  0  0
 16 17  1  0  0  0
 17 18  1  0  0  0
 18 19  2  0  0  0
 18 20  1  0  0  0
 20 53  1  0  0  0
 53 54  1  0  0  0
 54 55  2  0  0  0
 55 56  1  0  0  0
 56 57  2  0  0  0
 57 58  1  0  0  0
 58 59  2  0  0  0
 20 21  1  0  0  0
 21 22  1  0  0  0
 22 23  2  0  0  0
 22 24  1  0  0  0
 24 25  1  0  0  0
 25 26  1  0  0  0
 26 27  1  0  0  0
 27 28  1  0  0  0
 28 29  1  0  0  0
 29 30  2  0  0  0
 29  1  1  0  0  0
 52 47  1  0  0  0
 17 13  1  0  0  0
 59 54  1  0  0  0
 28 24  1  0  0  0
 40 43  1  0  0  0
 40 44  1  0  0  0
 42 45  1  0  0  0
 38 39  1  0  0  0
  2 31  1  0  0  0
  6 32  1  0  0  0
 10 33  1  0  0  0
 21 34  1  0  0  0
M  END
> <minimizedAffinity>
-5.90995

> <CNNscore>
0.1777067631

> <CNNaffinity>
6.1596937180

> <CNN_VS>
1.0946192741

> <CNNaffinity_variance>
1.0397773981

$$$$
[H]N=C(N([H])[H])N([H])C([H])([H])C([H])([H])C([H])([H])[C@@]1([H])C(=O)N2C([H])([H])C([H])([H])C([H])([H])[C@@]2([H])C(=O)N([H])[C@@]([H])(C([H])([H])c2c([H])c([H])c([H])c([H])c2[H])C(=O)N2C([H])([H])C([H])([H])C([H])([H])[C@@]2([H])C(=O)N([H])C([H])([H])C(=O)N([H])[C@]([H])(C([H])([H])c2c([H])c([H])c([H])c([H])c2[H])C(=O)N1[H]


 59 63  0  0  0  0  0  0  0  0999 V2000
  -87.3476   27.6159    1.5555 C   0  0  0  0  0  0  0  0  0  0  0  0
  -87.8070   27.1142    0.2962 N   0  0  0  0  0  0  0  0  0  0  0  0
  -88.3192   27.7821   -0.8352 C   0  0  0  0  0  0  0  0  0  0  0  0
  -87.6846   27.6355   -1.9516 O   0  0  0  0  0  0  0  0  0  0  0  0
  -89.5177   28.6385   -0.8850 C   0  0  0  0  0  0  0  0  0  0  0  0
  -90.7426   27.9080   -0.5782 N   0  0  0  0  0  0  0  0  0  0  0  0
  -91.7540   27.4568   -1.4011 C   0  0  0  0  0  0  0  0  0  0  0  0
  -92.9465   27.9082   -1.1891 O   0  0  0  0  0  0  0  0  0  0  0  0
  -91.7159   26.5021   -2.5339 C   0  0  0  0  0  0  0  0  0  0  0  0
  -90.5671   25.6706   -2.6076 N   0  0  0  0  0  0  0  0  0  0  0  0
  -90.3720   24.3708   -2.0833 C   0  0  0  0  0  0  0  0  0  0  0  0
  -89.3610   24.2413   -1.3046 O   0  0  0  0  0  0  0  0  0  0  0  0
  -91.1622   23.1722   -2.3165 C   0  0  0  0  0  0  0  0  0  0  0  0
  -91.7402   23.1544   -3.7366 C   0  0  0  0  0  0  0  0  0  0  0  0
  -93.1400   22.6910   -3.5043 C   0  0  0  0  0  0  0  0  0  0  0  0
  -93.0548   21.9084   -2.2344 C   0  0  0  0  0  0  0  0  0  0  0  0
  -92.2319   22.8672   -1.4122 N   0  0  0  0  0  0  0  0  0  0  0  0
  -92.4562   23.3388   -0.1079 C   0  0  0  0  0  0  0  0  0  0  0  0
  -93.6421   23.7999    0.1019 O   0  0  0  0  0  0  0  0  0  0  0  0
  -91.5781   23.4010    1.0632 C   0  0  0  0  0  0  0  0  0  0  0  0
  -91.4550   24.7845    1.5092 N   0  0  0  0  0  0  0  0  0  0  0  0
  -90.7255   25.3291    2.5369 C   0  0  0  0  0  0  0  0  0  0  0  0
  -91.3844   26.0611    3.3812 O   0  0  0  0  0  0  0  0  0  0  0  0
  -89.2857   25.2412    2.8769 C   0  0  0  0  0  0  0  0  0  0  0  0
  -89.1795   24.2646    4.0255 C   0  0  0  0  0  0  0  0  0  0  0  0
  -88.4260   24.9728    5.0925 C   0  0  0  0  0  0  0  0  0  0  0  0
  -88.8949   26.4006    4.8665 C   0  0  0  0  0  0  0  0  0  0  0  0
  -88.8121   26.5429    3.4173 N   0  0  0  0  0  0  0  0  0  0  0  0
  -88.4070   27.6124    2.6014 C   0  0  0  0  0  0  0  0  0  0  0  0
  -89.0159   28.7305    2.7651 O   0  0  0  0  0  0  0  0  0  0  0  0
  -87.7382   26.0480    0.1926 H   0  0  0  0  0  0  0  0  0  0  0  0
  -90.8515   27.7018    0.4727 H   0  0  0  0  0  0  0  0  0  0  0  0
  -89.7450   26.1157   -3.1449 H   0  0  0  0  0  0  0  0  0  0  0  0
  -92.0409   25.4862    0.9458 H   0  0  0  0  0  0  0  0  0  0  0  0
  -86.6587   28.9543    1.4912 C   0  0  0  0  0  0  0  0  0  0  0  0
  -85.1803   28.7416    1.2994 C   0  0  0  0  0  0  0  0  0  0  0  0
  -84.6302   29.6133    0.1830 C   0  0  0  0  0  0  0  0  0  0  0  0
  -84.6524   30.9745    0.6539 N   0  0  0  0  0  0  0  0  0  0  0  0
  -85.4510   31.2738    1.2541 H   0  0  0  0  0  0  0  0  0  0  0  0
  -83.8910   33.1148   -0.3945 N   0  0  0  0  0  0  0  0  0  0  0  0
  -83.6536   31.9266    0.3488 C   0  0  0  0  0  0  0  0  0  0  0  0
  -82.4545   31.7099    0.7667 N   0  0  0  0  0  0  0  0  0  0  0  0
  -84.5135   33.8671   -0.0110 H   0  0  0  0  0  0  0  0  0  0  0  0
  -83.4592   33.2654   -1.3241 H   0  0  0  0  0  0  0  0  0  0  0  0
  -81.6772   32.3745    0.5730 H   0  0  0  0  0  0  0  0  0  0  0  0
  -89.6396   29.5383   -2.0433 C   0  0  0  0  0  0  0  0  0  0  0  0
  -89.1310   30.8803   -1.8577 C   0  0  0  0  0  0  0  0  0  0  0  0
  -89.6970   32.0347   -2.3120 C   0  0  0  0  0  0  0  0  0  0  0  0
  -89.1410   33.3006   -2.1290 C   0  0  0  0  0  0  0  0  0  0  0  0
  -87.9632   33.4225   -1.4591 C   0  0  0  0  0  0  0  0  0  0  0  0
  -87.3497   32.2862   -0.9778 C   0  0  0  0  0  0  0  0  0  0  0  0
  -87.9155   31.0474   -1.1702 C   0  0  0  0  0  0  0  0  0  0  0  0
  -92.2192   22.5647    2.1745 C   0  0  0  0  0  0  0  0  0  0  0  0
  -91.3351   21.4706    2.6104 C   0  0  0  0  0  0  0  0  0  0  0  0
  -90.1935   21.6561    3.3820 C   0  0  0  0  0  0  0  0  0  0  0  0
  -89.3775   20.6276    3.7871 C   0  0  0  0  0  0  0  0  0  0  0  0
  -89.6567   19.3252    3.4393 C   0  0  0  0  0  0  0  0  0  0  0  0
  -90.7855   19.1022    2.6711 C   0  0  0  0  0  0  0  0  0  0  0  0
  -91.5868   20.1419    2.2773 C   0  0  0  0  0  0  0  0  0  0  0  0
 40 41  1  0  0  0
 41 42  2  0  0  0
 41 38  1  0  0  0
 38 37  1  0  0  0
 37 36  1  0  0  0
 36 35  1  0  0  0
 35  1  1  0  0  0
  1  2  1  0  0  0
  2  3  1  0  0  0
  3  4  2  0  0  0
  3  5  1  0  0  0
  5 46  1  0  0  0
 46 47  1  0  0  0
 47 48  2  0  0  0
 48 49  1  0  0  0
 49 50  2  0  0  0
 50 51  1  0  0  0
 51 52  2  0  0  0
  5  6  1  0  0  0
  6  7  1  0  0  0
  7  8  2  0  0  0
  7  9  1  0  0  0
  9 10  1  0  0  0
 10 11  1  0  0  0
 11 12  2  0  0  0
 11 13  1  0  0  0
 13 14  1  0  0  0
 14 15  1  0  0  0
 15 16  1  0  0  0
 16 17  1  0  0  0
 17 18  1  0  0  0
 18 19  2  0  0  0
 18 20  1  0  0  0
 20 53  1  0  0  0
 53 54  1  0  0  0
 54 55  2  0  0  0
 55 56  1  0  0  0
 56 57  2  0  0  0
 57 58  1  0  0  0
 58 59  2  0  0  0
 20 21  1  0  0  0
 21 22  1  0  0  0
 22 23  2  0  0  0
 22 24  1  0  0  0
 24 25  1  0  0  0
 25 26  1  0  0  0
 26 27  1  0  0  0
 27 28  1  0  0  0
 28 29  1  0  0  0
 29 30  2  0  0  0
 29  1  1  0  0  0
 52 47  1  0  0  0
 17 13  1  0  0  0
 59 54  1  0  0  0
 28 24  1  0  0  0
 40 43  1  0  0  0
 40 44  1  0  0  0
 42 45  1  0  0  0
 38 39  1  0  0  0
  2 31  1  0  0  0
  6 32  1  0  0  0
 10 33  1  0  0  0
 21 34  1  0  0  0
M  END
> <minimizedAffinity>
-5.44217

> <CNNscore>
0.1660667509

> <CNNaffinity>
6.4908165932

> <CNN_VS>
1.0779088736

> <CNNaffinity_variance>
0.4513000548

$$$$
[H]c1c([H])c(N2C([H])([H])C([H])([H])N(C([H])([H])[H])C([H])([H])C2([H])[H])c([H])c([H])c1C(=O)N([H])c1nn([H])c2c([H])c([H])c(C#N)c([H])c12


 29 32  0  0  0  0  0  0  0  0999 V2000
  -86.3176   33.6176   -1.6596 C   0  0  0  0  0  0  0  0  0  0  0  0
  -86.6090   33.9155   -0.4794 O   0  0  0  0  0  0  0  0  0  0  0  0
  -85.0991   32.9724   -1.9255 N   0  0  0  0  0  0  0  0  0  0  0  0
  -84.8441   32.7183   -2.9174 H   0  0  0  0  0  0  0  0  0  0  0  0
  -84.1765   32.6409   -0.8710 C   0  0  0  0  0  0  0  0  0  0  0  0
  -83.0951   33.3087   -0.4559 N   0  0  0  0  0  0  0  0  0  0  0  0
  -82.5201   32.6475    0.5561 N   0  0  0  0  0  0  0  0  0  0  0  0
  -83.2116   31.5208    0.8359 C   0  0  0  0  0  0  0  0  0  0  0  0
  -83.0557   30.5088    1.7590 C   0  0  0  0  0  0  0  0  0  0  0  0
  -83.9793   29.4872    1.7559 C   0  0  0  0  0  0  0  0  0  0  0  0
  -85.0404   29.4521    0.8653 C   0  0  0  0  0  0  0  0  0  0  0  0
  -85.1680   30.4779   -0.0442 C   0  0  0  0  0  0  0  0  0  0  0  0
  -84.2701   31.5226   -0.0809 C   0  0  0  0  0  0  0  0  0  0  0  0
  -81.6649   32.9028    1.0975 H   0  0  0  0  0  0  0  0  0  0  0  0
  -85.9913   28.3565    0.8935 C   0  0  0  0  0  0  0  0  0  0  0  0
  -86.7612   27.5073    0.9184 N   0  0  0  0  0  0  0  0  0  0  0  0
  -89.0008   34.5270   -4.7519 C   0  0  0  0  0  0  0  0  0  0  0  0
  -88.5358   33.2401   -4.6088 C   0  0  0  0  0  0  0  0  0  0  0  0
  -87.6540   32.9623   -3.5827 C   0  0  0  0  0  0  0  0  0  0  0  0
  -87.2438   33.9472   -2.7170 C   0  0  0  0  0  0  0  0  0  0  0  0
  -87.7146   35.2573   -2.8598 C   0  0  0  0  0  0  0  0  0  0  0  0
  -88.5901   35.5241   -3.8816 C   0  0  0  0  0  0  0  0  0  0  0  0
  -92.2810   35.0374   -9.2133 C   0  0  0  0  0  0  0  0  0  0  0  0
  -91.2162   34.7278   -8.2829 N   0  0  0  0  0  0  0  0  0  0  0  0
  -90.7321   35.9831   -7.7440 C   0  0  0  0  0  0  0  0  0  0  0  0
  -89.6227   35.8103   -6.7740 C   0  0  0  0  0  0  0  0  0  0  0  0
  -89.9138   34.7754   -5.8326 N   0  0  0  0  0  0  0  0  0  0  0  0
  -91.0892   33.9711   -5.9270 C   0  0  0  0  0  0  0  0  0  0  0  0
  -91.7694   33.8907   -7.2393 C   0  0  0  0  0  0  0  0  0  0  0  0
 23 24  1  0  0  0
 24 25  1  0  0  0
 25 26  1  0  0  0
 26 27  1  0  0  0
 27 28  1  0  0  0
 28 29  1  0  0  0
 27 17  1  0  0  0
 17 18  2  0  0  0
 18 19  1  0  0  0
 19 20  2  0  0  0
 20 21  1  0  0  0
 21 22  2  0  0  0
 20  1  1  0  0  0
  1  2  2  0  0  0
  1  3  1  0  0  0
  3  5  1  0  0  0
  5  6  2  0  0  0
  6  7  1  0  0  0
  7  8  1  0  0  0
  8  9  2  0  0  0
  9 10  1  0  0  0
 10 11  2  0  0  0
 11 12  1  0  0  0
 12 13  2  0  0  0
 11 15  1  0  0  0
 15 16  3  0  0  0
 29 24  1  0  0  0
 22 17  1  0  0  0
 13  5  1  0  0  0
 13  8  1  0  0  0
  3  4  1  0  0  0
  7 14  1  0  0  0
M  END
> <minimizedAffinity>
-7.93201

> <CNNscore>
0.9715918899

> <CNNaffinity>
6.6388654709

> <CNN_VS>
6.4502677917

> <CNNaffinity_variance>
0.0247545652

$$$$
[H]c1c([H])c(N2C([H])([H])C([H])([H])N(C([H])([H])[H])C([H])([H])C2([H])[H])c([H])c([H])c1C(=O)N([H])c1nn([H])c2c([H])c([H])c(C#N)c([H])c12


 29 32  0  0  0  0  0  0  0  0999 V2000
  -85.8213   33.0730   -1.2548 C   0  0  0  0  0  0  0  0  0  0  0  0
  -84.7277   33.6756   -1.3410 O   0  0  0  0  0  0  0  0  0  0  0  0
  -85.9092   31.9170   -0.4626 N   0  0  0  0  0  0  0  0  0  0  0  0
  -86.8266   31.4014   -0.3846 H   0  0  0  0  0  0  0  0  0  0  0  0
  -84.7707   31.4091    0.2577 C   0  0  0  0  0  0  0  0  0  0  0  0
  -83.5681   31.9659    0.4351 N   0  0  0  0  0  0  0  0  0  0  0  0
  -82.8015   31.1533    1.1725 N   0  0  0  0  0  0  0  0  0  0  0  0
  -83.4826   30.0339    1.5023 C   0  0  0  0  0  0  0  0  0  0  0  0
  -83.1704   28.9051    2.2296 C   0  0  0  0  0  0  0  0  0  0  0  0
  -84.1410   27.9372    2.3638 C   0  0  0  0  0  0  0  0  0  0  0  0
  -85.3987   28.0674    1.7968 C   0  0  0  0  0  0  0  0  0  0  0  0
  -85.6791   29.2068    1.0764 C   0  0  0  0  0  0  0  0  0  0  0  0
  -84.7419   30.2039    0.9139 C   0  0  0  0  0  0  0  0  0  0  0  0
  -81.8160   31.2960    1.4861 H   0  0  0  0  0  0  0  0  0  0  0  0
  -86.3932   27.0235    1.9601 C   0  0  0  0  0  0  0  0  0  0  0  0
  -87.1963   26.2142    2.0800 N   0  0  0  0  0  0  0  0  0  0  0  0
  -89.1692   34.5157   -3.3281 C   0  0  0  0  0  0  0  0  0  0  0  0
  -89.3115   33.4678   -2.4479 C   0  0  0  0  0  0  0  0  0  0  0  0
  -88.1960   33.0094   -1.7746 C   0  0  0  0  0  0  0  0  0  0  0  0
  -86.9639   33.5837   -1.9746 C   0  0  0  0  0  0  0  0  0  0  0  0
  -86.8156   34.6494   -2.8693 C   0  0  0  0  0  0  0  0  0  0  0  0
  -87.9288   35.0982   -3.5336 C   0  0  0  0  0  0  0  0  0  0  0  0
  -94.0133   36.2423   -5.4442 C   0  0  0  0  0  0  0  0  0  0  0  0
  -92.9609   35.6851   -4.6214 N   0  0  0  0  0  0  0  0  0  0  0  0
  -92.2882   34.6692   -5.4063 C   0  0  0  0  0  0  0  0  0  0  0  0
  -91.1825   34.0050   -4.6729 C   0  0  0  0  0  0  0  0  0  0  0  0
  -90.3523   34.9609   -4.0103 N   0  0  0  0  0  0  0  0  0  0  0  0
  -90.6577   36.3552   -4.0005 C   0  0  0  0  0  0  0  0  0  0  0  0
  -92.0555   36.7595   -4.2727 C   0  0  0  0  0  0  0  0  0  0  0  0
 23 24  1  0  0  0
 24 25  1  0  0  0
 25 26  1  0  0  0
 26 27  1  0  0  0
 27 28  1  0  0  0
 28 29  1  0  0  0
 27 17  1  0  0  0
 17 18  2  0  0  0
 18 19  1  0  0  0
 19 20  2  0  0  0
 20 21  1  0  0  0
 21 22  2  0  0  0
 20  1  1  0  0  0
  1  2  2  0  0  0
  1  3  1  0  0  0
  3  5  1  0  0  0
  5  6  2  0  0  0
  6  7  1  0  0  0
  7  8  1  0  0  0
  8  9  2  0  0  0
  9 10  1  0  0  0
 10 11  2  0  0  0
 11 12  1  0  0  0
 12 13  2  0  0  0
 11 15  1  0  0  0
 15 16  3  0  0  0
 29 24  1  0  0  0
 22 17  1  0  0  0
 13  5  1  0  0  0
 13  8  1  0  0  0
  3  4  1  0  0  0
  7 14  1  0  0  0
M  END
> <minimizedAffinity>
-8.45951

> <CNNscore>
0.7330562472

> <CNNaffinity>
6.4008584023

> <CNN_VS>
4.6921892166

> <CNNaffinity_variance>
0.1373040080

$$$$
[H]c1c([H])c(N2C([H])([H])C([H])([H])N(C([H])([H])[H])C([H])([H])C2([H])[H])c([H])c([H])c1C(=O)N([H])c1nn([H])c2c([H])c([H])c(C#N)c([H])c12


 29 32  0  0  0  0  0  0  0  0999 V2000
  -86.3725   33.2012   -1.3049 C   0  0  0  0  0  0  0  0  0  0  0  0
  -85.9053   34.0762   -0.5416 O   0  0  0  0  0  0  0  0  0  0  0  0
  -86.1857   31.8450   -0.9926 N   0  0  0  0  0  0  0  0  0  0  0  0
  -86.5749   31.1000   -1.6306 H   0  0  0  0  0  0  0  0  0  0  0  0
  -85.4718   31.4354    0.1887 C   0  0  0  0  0  0  0  0  0  0  0  0
  -84.6151   32.1340    0.9410 N   0  0  0  0  0  0  0  0  0  0  0  0
  -84.1792   31.3712    1.9509 N   0  0  0  0  0  0  0  0  0  0  0  0
  -84.7404   30.1436    1.8903 C   0  0  0  0  0  0  0  0  0  0  0  0
  -84.6383   29.0073    2.6644 C   0  0  0  0  0  0  0  0  0  0  0  0
  -85.3786   27.9070    2.2928 C   0  0  0  0  0  0  0  0  0  0  0  0
  -86.2072   27.9138    1.1821 C   0  0  0  0  0  0  0  0  0  0  0  0
  -86.2870   29.0642    0.4299 C   0  0  0  0  0  0  0  0  0  0  0  0
  -85.5664   30.1913    0.7605 C   0  0  0  0  0  0  0  0  0  0  0  0
  -83.5070   31.6191    2.7102 H   0  0  0  0  0  0  0  0  0  0  0  0
  -86.9697   26.7326    0.8233 C   0  0  0  0  0  0  0  0  0  0  0  0
  -87.5785   25.7964    0.5637 N   0  0  0  0  0  0  0  0  0  0  0  0
  -88.4684   34.4402   -4.7197 C   0  0  0  0  0  0  0  0  0  0  0  0
  -88.1697   35.3527   -3.7343 C   0  0  0  0  0  0  0  0  0  0  0  0
  -87.4774   34.9235   -2.6188 C   0  0  0  0  0  0  0  0  0  0  0  0
  -87.0910   33.6115   -2.4881 C   0  0  0  0  0  0  0  0  0  0  0  0
  -87.3934   32.6807   -3.4883 C   0  0  0  0  0  0  0  0  0  0  0  0
  -88.0812   33.1157   -4.5926 C   0  0  0  0  0  0  0  0  0  0  0  0
  -91.5003   36.7232   -8.7841 C   0  0  0  0  0  0  0  0  0  0  0  0
  -90.9514   36.2933   -7.5156 N   0  0  0  0  0  0  0  0  0  0  0  0
  -90.9305   34.8442   -7.5206 C   0  0  0  0  0  0  0  0  0  0  0  0
  -90.3939   34.2659   -6.2639 C   0  0  0  0  0  0  0  0  0  0  0  0
  -89.1916   34.9255   -5.8619 N   0  0  0  0  0  0  0  0  0  0  0  0
  -88.6776   36.0597   -6.5595 C   0  0  0  0  0  0  0  0  0  0  0  0
  -89.6129   36.8340   -7.4062 C   0  0  0  0  0  0  0  0  0  0  0  0
 23 24  1  0  0  0
 24 25  1  0  0  0
 25 26  1  0  0  0
 26 27  1  0  0  0
 27 28  1  0  0  0
 28 29  1  0  0  0
 27 17  1  0  0  0
 17 18  2  0  0  0
 18 19  1  0  0  0
 19 20  2  0  0  0
 20 21  1  0  0  0
 21 22  2  0  0  0
 20  1  1  0  0  0
  1  2  2  0  0  0
  1  3  1  0  0  0
  3  5  1  0  0  0
  5  6  2  0  0  0
  6  7  1  0  0  0
  7  8  1  0  0  0
  8  9  2  0  0  0
  9 10  1  0  0  0
 10 11  2  0  0  0
 11 12  1  0  0  0
 12 13  2  0  0  0
 11 15  1  0  0  0
 15 16  3  0  0  0
 29 24  1  0  0  0
 22 17  1  0  0  0
 13  5  1  0  0  0
 13  8  1  0  0  0
  3  4  1  0  0  0
  7 14  1  0  0  0
M  END
> <minimizedAffinity>
-7.77791

> <CNNscore>
0.3365204930

> <CNNaffinity>
5.9363670349

> <CNN_VS>
1.9977091551

> <CNNaffinity_variance>
0.0946474820

$$$$
[H]c1c([H])c(N2C([H])([H])C([H])([H])N(C([H])([H])[H])C([H])([H])C2([H])[H])c([H])c([H])c1C(=O)N([H])c1nn([H])c2c([H])c([H])c(C#N)c([H])c12


 29 32  0  0  0  0  0  0  0  0999 V2000
  -86.5913   28.1826    1.7846 C   0  0  0  0  0  0  0  0  0  0  0  0
  -86.3810   28.6689    2.9186 O   0  0  0  0  0  0  0  0  0  0  0  0
  -85.7531   28.5404    0.7164 N   0  0  0  0  0  0  0  0  0  0  0  0
  -85.9231   28.1366   -0.2436 H   0  0  0  0  0  0  0  0  0  0  0  0
  -84.6529   29.4518    0.8948 C   0  0  0  0  0  0  0  0  0  0  0  0
  -83.5056   29.2694    1.5569 N   0  0  0  0  0  0  0  0  0  0  0  0
  -82.7575   30.3762    1.4722 N   0  0  0  0  0  0  0  0  0  0  0  0
  -83.3955   31.3217    0.7480 C   0  0  0  0  0  0  0  0  0  0  0  0
  -83.0792   32.6084    0.3669 C   0  0  0  0  0  0  0  0  0  0  0  0
  -83.9976   33.2987   -0.3925 C   0  0  0  0  0  0  0  0  0  0  0  0
  -85.2079   32.7430   -0.7754 C   0  0  0  0  0  0  0  0  0  0  0  0
  -85.4938   31.4559   -0.3786 C   0  0  0  0  0  0  0  0  0  0  0  0
  -84.6077   30.7239    0.3815 C   0  0  0  0  0  0  0  0  0  0  0  0
  -81.8126   30.5553    1.8783 H   0  0  0  0  0  0  0  0  0  0  0  0
  -86.1494   33.5046   -1.5747 C   0  0  0  0  0  0  0  0  0  0  0  0
  -86.8833   34.0967   -2.2268 N   0  0  0  0  0  0  0  0  0  0  0  0
  -89.7747   25.5121    1.2159 C   0  0  0  0  0  0  0  0  0  0  0  0
  -88.7903   25.6134    0.2601 C   0  0  0  0  0  0  0  0  0  0  0  0
  -87.7503   26.4981    0.4683 C   0  0  0  0  0  0  0  0  0  0  0  0
  -87.6927   27.2664    1.6059 C   0  0  0  0  0  0  0  0  0  0  0  0
  -88.6924   27.1661    2.5800 C   0  0  0  0  0  0  0  0  0  0  0  0
  -89.7215   26.2849    2.3650 C   0  0  0  0  0  0  0  0  0  0  0  0
  -94.2353   22.2550    0.5690 C   0  0  0  0  0  0  0  0  0  0  0  0
  -93.2536   23.2147    1.0279 N   0  0  0  0  0  0  0  0  0  0  0  0
  -92.0095   22.4995    1.2308 C   0  0  0  0  0  0  0  0  0  0  0  0
  -90.9100   23.3708    1.7141 C   0  0  0  0  0  0  0  0  0  0  0  0
  -90.8399   24.5830    0.9607 N   0  0  0  0  0  0  0  0  0  0  0  0
  -91.7985   24.9085   -0.0456 C   0  0  0  0  0  0  0  0  0  0  0  0
  -93.1120   24.2277    0.0035 C   0  0  0  0  0  0  0  0  0  0  0  0
 23 24  1  0  0  0
 24 25  1  0  0  0
 25 26  1  0  0  0
 26 27  1  0  0  0
 27 28  1  0  0  0
 28 29  1  0  0  0
 27 17  1  0  0  0
 17 18  2  0  0  0
 18 19  1  0  0  0
 19 20  2  0  0  0
 20 21  1  0  0  0
 21 22  2  0  0  0
 20  1  1  0  0  0
  1  2  2  0  0  0
  1  3  1  0  0  0
  3  5  1  0  0  0
  5  6  2  0  0  0
  6  7  1  0  0  0
  7  8  1  0  0  0
  8  9  2  0  0  0
  9 10  1  0  0  0
 10 11  2  0  0  0
 11 12  1  0  0  0
 12 13  2  0  0  0
 11 15  1  0  0  0
 15 16  3  0  0  0
 29 24  1  0  0  0
 22 17  1  0  0  0
 13  5  1  0  0  0
 13  8  1  0  0  0
  3  4  1  0  0  0
  7 14  1  0  0  0
M  END
> <minimizedAffinity>
-8.05010

> <CNNscore>
0.2001921535

> <CNNaffinity>
5.8709807396

> <CNN_VS>
1.1753243208

> <CNNaffinity_variance>
0.1546815336

$$$$
[H]c1c([H])c(N2C([H])([H])C([H])([H])N(C([H])([H])[H])C([H])([H])C2([H])[H])c([H])c([H])c1C(=O)N([H])c1nn([H])c2c([H])c([H])c(C#N)c([H])c12


 29 32  0  0  0  0  0  0  0  0999 V2000
  -88.9803   29.3158   -0.7709 C   0  0  0  0  0  0  0  0  0  0  0  0
  -89.4363   30.0431    0.1401 O   0  0  0  0  0  0  0  0  0  0  0  0
  -87.6785   29.5430   -1.2458 N   0  0  0  0  0  0  0  0  0  0  0  0
  -87.2856   28.9359   -2.0143 H   0  0  0  0  0  0  0  0  0  0  0  0
  -86.8522   30.5916   -0.7066 C   0  0  0  0  0  0  0  0  0  0  0  0
  -86.8671   31.9008   -0.9782 N   0  0  0  0  0  0  0  0  0  0  0  0
  -85.9289   32.5206   -0.2520 N   0  0  0  0  0  0  0  0  0  0  0  0
  -85.2679   31.6314    0.5213 C   0  0  0  0  0  0  0  0  0  0  0  0
  -84.2381   31.7372    1.4319 C   0  0  0  0  0  0  0  0  0  0  0  0
  -83.8052   30.5853    2.0504 C   0  0  0  0  0  0  0  0  0  0  0  0
  -84.3680   29.3471    1.7852 C   0  0  0  0  0  0  0  0  0  0  0  0
  -85.3947   29.2752    0.8706 C   0  0  0  0  0  0  0  0  0  0  0  0
  -85.8635   30.3990    0.2256 C   0  0  0  0  0  0  0  0  0  0  0  0
  -85.6866   33.5359   -0.2325 H   0  0  0  0  0  0  0  0  0  0  0  0
  -83.8818   28.1566    2.4572 C   0  0  0  0  0  0  0  0  0  0  0  0
  -83.5039   27.2024    2.9683 N   0  0  0  0  0  0  0  0  0  0  0  0
  -91.3494   26.2504   -2.3768 C   0  0  0  0  0  0  0  0  0  0  0  0
  -90.1157   26.5170   -2.9244 C   0  0  0  0  0  0  0  0  0  0  0  0
  -89.3513   27.5299   -2.3791 C   0  0  0  0  0  0  0  0  0  0  0  0
  -89.8074   28.2623   -1.3098 C   0  0  0  0  0  0  0  0  0  0  0  0
  -91.0618   27.9941   -0.7505 C   0  0  0  0  0  0  0  0  0  0  0  0
  -91.8141   26.9863   -1.2984 C   0  0  0  0  0  0  0  0  0  0  0  0
  -94.7462   22.3023   -4.3256 C   0  0  0  0  0  0  0  0  0  0  0  0
  -94.0832   23.3178   -3.5355 N   0  0  0  0  0  0  0  0  0  0  0  0
  -92.7112   22.8919   -3.3444 C   0  0  0  0  0  0  0  0  0  0  0  0
  -91.9131   23.8464   -2.5359 C   0  0  0  0  0  0  0  0  0  0  0  0
  -92.1143   25.1916   -2.9742 N   0  0  0  0  0  0  0  0  0  0  0  0
  -93.0563   25.5258   -3.9932 C   0  0  0  0  0  0  0  0  0  0  0  0
  -94.1454   24.5627   -4.2718 C   0  0  0  0  0  0  0  0  0  0  0  0
 23 24  1  0  0  0
 24 25  1  0  0  0
 25 26  1  0  0  0
 26 27  1  0  0  0
 27 28  1  0  0  0
 28 29  1  0  0  0
 27 17  1  0  0  0
 17 18  2  0  0  0
 18 19  1  0  0  0
 19 20  2  0  0  0
 20 21  1  0  0  0
 21 22  2  0  0  0
 20  1  1  0  0  0
  1  2  2  0  0  0
  1  3  1  0  0  0
  3  5  1  0  0  0
  5  6  2  0  0  0
  6  7  1  0  0  0
  7  8  1  0  0  0
  8  9  2  0  0  0
  9 10  1  0  0  0
 10 11  2  0  0  0
 11 12  1  0  0  0
 12 13  2  0  0  0
 11 15  1  0  0  0
 15 16  3  0  0  0
 29 24  1  0  0  0
 22 17  1  0  0  0
 13  5  1  0  0  0
 13  8  1  0  0  0
  3  4  1  0  0  0
  7 14  1  0  0  0
M  END
> <minimizedAffinity>
-8.05921

> <CNNscore>
0.1806014329

> <CNNaffinity>
5.7365226746

> <CNN_VS>
1.0360242128

> <CNNaffinity_variance>
0.1495807320

$$$$
[H]c1c([H])c(N2C([H])([H])C([H])([H])N(C([H])([H])[H])C([H])([H])C2([H])[H])c([H])c([H])c1C(=O)N([H])c1nn([H])c2c([H])c([H])c(C#N)c([H])c12


 29 32  0  0  0  0  0  0  0  0999 V2000
  -87.7095   26.7238    1.9525 C   0  0  0  0  0  0  0  0  0  0  0  0
  -87.9304   27.6069    2.8116 O   0  0  0  0  0  0  0  0  0  0  0  0
  -86.4270   26.6159    1.3910 N   0  0  0  0  0  0  0  0  0  0  0  0
  -86.2314   25.8752    0.6652 H   0  0  0  0  0  0  0  0  0  0  0  0
  -85.3566   27.4954    1.7829 C   0  0  0  0  0  0  0  0  0  0  0  0
  -84.2952   27.2400    2.5549 N   0  0  0  0  0  0  0  0  0  0  0  0
  -83.5436   28.3423    2.6639 N   0  0  0  0  0  0  0  0  0  0  0  0
  -84.0930   29.3582    1.9626 C   0  0  0  0  0  0  0  0  0  0  0  0
  -83.7355   30.6719    1.7450 C   0  0  0  0  0  0  0  0  0  0  0  0
  -84.5589   31.4398    0.9518 C   0  0  0  0  0  0  0  0  0  0  0  0
  -85.7150   30.9347    0.3786 C   0  0  0  0  0  0  0  0  0  0  0  0
  -86.0441   29.6189    0.6153 C   0  0  0  0  0  0  0  0  0  0  0  0
  -85.2528   28.8097    1.4014 C   0  0  0  0  0  0  0  0  0  0  0  0
  -82.6534   28.4730    3.1932 H   0  0  0  0  0  0  0  0  0  0  0  0
  -86.5567   31.7776   -0.4499 C   0  0  0  0  0  0  0  0  0  0  0  0
  -87.2164   32.4630   -1.0898 N   0  0  0  0  0  0  0  0  0  0  0  0
  -90.8396   24.1524    0.8669 C   0  0  0  0  0  0  0  0  0  0  0  0
  -90.7728   24.6412    2.1512 C   0  0  0  0  0  0  0  0  0  0  0  0
  -89.7344   25.4878    2.4869 C   0  0  0  0  0  0  0  0  0  0  0  0
  -88.7819   25.8398    1.5614 C   0  0  0  0  0  0  0  0  0  0  0  0
  -88.8466   25.3442    0.2543 C   0  0  0  0  0  0  0  0  0  0  0  0
  -89.8813   24.5041   -0.0703 C   0  0  0  0  0  0  0  0  0  0  0  0
  -95.2197   20.7839    0.2410 C   0  0  0  0  0  0  0  0  0  0  0  0
  -94.1133   21.5666    0.7490 N   0  0  0  0  0  0  0  0  0  0  0  0
  -92.9211   21.1429    0.0421 C   0  0  0  0  0  0  0  0  0  0  0  0
  -91.7000   21.8656    0.4756 C   0  0  0  0  0  0  0  0  0  0  0  0
  -91.9328   23.2731    0.5587 N   0  0  0  0  0  0  0  0  0  0  0  0
  -93.2237   23.8436    0.3449 C   0  0  0  0  0  0  0  0  0  0  0  0
  -94.4033   22.9617    0.4932 C   0  0  0  0  0  0  0  0  0  0  0  0
 23 24  1  0  0  0
 24 25  1  0  0  0
 25 26  1  0  0  0
 26 27  1  0  0  0
 27 28  1  0  0  0
 28 29  1  0  0  0
 27 17  1  0  0  0
 17 18  2  0  0  0
 18 19  1  0  0  0
 19 20  2  0  0  0
 20 21  1  0  0  0
 21 22  2  0  0  0
 20  1  1  0  0  0
  1  2  2  0  0  0
  1  3  1  0  0  0
  3  5  1  0  0  0
  5  6  2  0  0  0
  6  7  1  0  0  0
  7  8  1  0  0  0
  8  9  2  0  0  0
  9 10  1  0  0  0
 10 11  2  0  0  0
 11 12  1  0  0  0
 12 13  2  0  0  0
 11 15  1  0  0  0
 15 16  3  0  0  0
 29 24  1  0  0  0
 22 17  1  0  0  0
 13  5  1  0  0  0
 13  8  1  0  0  0
  3  4  1  0  0  0
  7 14  1  0  0  0
M  END
> <minimizedAffinity>
-8.40969

> <CNNscore>
0.1757998466

> <CNNaffinity>
5.6971788406

> <CNN_VS>
1.0015631914

> <CNNaffinity_variance>
0.2226087302

$$$$
[H]c1c([H])c(N2C([H])([H])C([H])([H])N(C([H])([H])[H])C([H])([H])C2([H])[H])c([H])c([H])c1C(=O)N([H])c1nn([H])c2c([H])c([H])c(C#N)c([H])c12


 29 32  0  0  0  0  0  0  0  0999 V2000
  -89.9477   29.6144   -0.7354 C   0  0  0  0  0  0  0  0  0  0  0  0
  -90.2661   29.9228    0.4351 O   0  0  0  0  0  0  0  0  0  0  0  0
  -88.8330   28.7879   -0.9502 N   0  0  0  0  0  0  0  0  0  0  0  0
  -88.5561   28.5235   -1.9335 H   0  0  0  0  0  0  0  0  0  0  0  0
  -88.0480   28.2822    0.1456 C   0  0  0  0  0  0  0  0  0  0  0  0
  -88.2805   27.2268    0.9330 N   0  0  0  0  0  0  0  0  0  0  0  0
  -87.2938   27.1099    1.8300 N   0  0  0  0  0  0  0  0  0  0  0  0
  -86.3804   28.0902    1.6560 C   0  0  0  0  0  0  0  0  0  0  0  0
  -85.2027   28.4222    2.2913 C   0  0  0  0  0  0  0  0  0  0  0  0
  -84.5110   29.5207    1.8312 C   0  0  0  0  0  0  0  0  0  0  0  0
  -84.9608   30.2854    0.7667 C   0  0  0  0  0  0  0  0  0  0  0  0
  -86.1406   29.9275    0.1538 C   0  0  0  0  0  0  0  0  0  0  0  0
  -86.8689   28.8368    0.5767 C   0  0  0  0  0  0  0  0  0  0  0  0
  -87.1791   26.3941    2.5812 H   0  0  0  0  0  0  0  0  0  0  0  0
  -84.2032   31.4369    0.3134 C   0  0  0  0  0  0  0  0  0  0  0  0
  -83.5951   32.3329   -0.0632 N   0  0  0  0  0  0  0  0  0  0  0  0
  -92.2681   31.0362   -3.9265 C   0  0  0  0  0  0  0  0  0  0  0  0
  -92.6561   29.9004   -3.2541 C   0  0  0  0  0  0  0  0  0  0  0  0
  -91.8781   29.4505   -2.2053 C   0  0  0  0  0  0  0  0  0  0  0  0
  -90.7364   30.1190   -1.8345 C   0  0  0  0  0  0  0  0  0  0  0  0
  -90.3387   31.2745   -2.5163 C   0  0  0  0  0  0  0  0  0  0  0  0
  -91.1175   31.7141   -3.5566 C   0  0  0  0  0  0  0  0  0  0  0  0
  -95.2180   32.3187   -8.4627 C   0  0  0  0  0  0  0  0  0  0  0  0
  -94.2204   31.8513   -7.5238 N   0  0  0  0  0  0  0  0  0  0  0  0
  -93.7942   32.9930   -6.7393 C   0  0  0  0  0  0  0  0  0  0  0  0
  -92.7569   32.6535   -5.7342 C   0  0  0  0  0  0  0  0  0  0  0  0
  -93.1025   31.4696   -5.0124 N   0  0  0  0  0  0  0  0  0  0  0  0
  -94.2568   30.6938   -5.3334 C   0  0  0  0  0  0  0  0  0  0  0  0
  -94.8375   30.8442   -6.6867 C   0  0  0  0  0  0  0  0  0  0  0  0
 23 24  1  0  0  0
 24 25  1  0  0  0
 25 26  1  0  0  0
 26 27  1  0  0  0
 27 28  1  0  0  0
 28 29  1  0  0  0
 27 17  1  0  0  0
 17 18  2  0  0  0
 18 19  1  0  0  0
 19 20  2  0  0  0
 20 21  1  0  0  0
 21 22  2  0  0  0
 20  1  1  0  0  0
  1  2  2  0  0  0
  1  3  1  0  0  0
  3  5  1  0  0  0
  5  6  2  0  0  0
  6  7  1  0  0  0
  7  8  1  0  0  0
  8  9  2  0  0  0
  9 10  1  0  0  0
 10 11  2  0  0  0
 11 12  1  0  0  0
 12 13  2  0  0  0
 11 15  1  0  0  0
 15 16  3  0  0  0
 29 24  1  0  0  0
 22 17  1  0  0  0
 13  5  1  0  0  0
 13  8  1  0  0  0
  3  4  1  0  0  0
  7 14  1  0  0  0
M  END
> <minimizedAffinity>
-6.38844

> <CNNscore>
0.1555718780

> <CNNaffinity>
5.4142355919

> <CNN_VS>
0.8423027992

> <CNNaffinity_variance>
0.2702232301

$$$$
[H]c1c([H])c(N2C([H])([H])C([H])([H])N(C([H])([H])[H])C([H])([H])C2([H])[H])c([H])c([H])c1C(=O)N([H])c1nn([H])c2c([H])c([H])c(C#N)c([H])c12


 29 32  0  0  0  0  0  0  0  0999 V2000
  -87.9204   26.5008    1.4088 C   0  0  0  0  0  0  0  0  0  0  0  0
  -88.1982   27.0952    2.4747 O   0  0  0  0  0  0  0  0  0  0  0  0
  -86.6315   26.6274    0.8663 N   0  0  0  0  0  0  0  0  0  0  0  0
  -86.3881   26.1310   -0.0326 H   0  0  0  0  0  0  0  0  0  0  0  0
  -85.6182   27.4228    1.5095 C   0  0  0  0  0  0  0  0  0  0  0  0
  -84.6896   27.0493    2.3960 N   0  0  0  0  0  0  0  0  0  0  0  0
  -83.9453   28.1076    2.7393 N   0  0  0  0  0  0  0  0  0  0  0  0
  -84.3661   29.2119    2.0844 C   0  0  0  0  0  0  0  0  0  0  0  0
  -83.9587   30.5289    2.0725 C   0  0  0  0  0  0  0  0  0  0  0  0
  -84.6404   31.4060    1.2585 C   0  0  0  0  0  0  0  0  0  0  0  0
  -85.7049   31.0054    0.4669 C   0  0  0  0  0  0  0  0  0  0  0  0
  -86.0873   29.6831    0.5015 C   0  0  0  0  0  0  0  0  0  0  0  0
  -85.4368   28.7669    1.2991 C   0  0  0  0  0  0  0  0  0  0  0  0
  -83.1430   28.1499    3.4059 H   0  0  0  0  0  0  0  0  0  0  0  0
  -86.3984   31.9615   -0.3760 C   0  0  0  0  0  0  0  0  0  0  0  0
  -86.9367   32.7354   -1.0284 N   0  0  0  0  0  0  0  0  0  0  0  0
  -90.8497   24.1916   -0.5084 C   0  0  0  0  0  0  0  0  0  0  0  0
  -89.8362   24.7578   -1.2468 C   0  0  0  0  0  0  0  0  0  0  0  0
  -88.8811   25.5133   -0.5950 C   0  0  0  0  0  0  0  0  0  0  0  0
  -88.9353   25.7008    0.7651 C   0  0  0  0  0  0  0  0  0  0  0  0
  -89.9648   25.1266    1.5191 C   0  0  0  0  0  0  0  0  0  0  0  0
  -90.9090   24.3778    0.8635 C   0  0  0  0  0  0  0  0  0  0  0  0
  -94.2935   20.7178   -3.1534 C   0  0  0  0  0  0  0  0  0  0  0  0
  -93.1625   21.3539   -2.5120 N   0  0  0  0  0  0  0  0  0  0  0  0
  -92.9161   22.6024   -3.2055 C   0  0  0  0  0  0  0  0  0  0  0  0
  -91.7668   23.3591   -2.6504 C   0  0  0  0  0  0  0  0  0  0  0  0
  -91.8242   23.4159   -1.2236 N   0  0  0  0  0  0  0  0  0  0  0  0
  -92.8233   22.7236   -0.4753 C   0  0  0  0  0  0  0  0  0  0  0  0
  -93.5124   21.5868   -1.1267 C   0  0  0  0  0  0  0  0  0  0  0  0
 23 24  1  0  0  0
 24 25  1  0  0  0
 25 26  1  0  0  0
 26 27  1  0  0  0
 27 28  1  0  0  0
 28 29  1  0  0  0
 27 17  1  0  0  0
 17 18  2  0  0  0
 18 19  1  0  0  0
 19 20  2  0  0  0
 20 21  1  0  0  0
 21 22  2  0  0  0
 20  1  1  0  0  0
  1  2  2  0  0  0
  1  3  1  0  0  0
  3  5  1  0  0  0
  5  6  2  0  0  0
  6  7  1  0  0  0
  7  8  1  0  0  0
  8  9  2  0  0  0
  9 10  1  0  0  0
 10 11  2  0  0  0
 11 12  1  0  0  0
 12 13  2  0  0  0
 11 15  1  0  0  0
 15 16  3  0  0  0
 29 24  1  0  0  0
 22 17  1  0  0  0
 13  5  1  0  0  0
 13  8  1  0  0  0
  3  4  1  0  0  0
  7 14  1  0  0  0
M  END
> <minimizedAffinity>
-8.13883

> <CNNscore>
0.1518977433

> <CNNaffinity>
5.6309266090

> <CNN_VS>
0.8553250432

> <CNNaffinity_variance>
0.1975739896

$$$$
[H]c1c([H])c(N2C([H])([H])C([H])([H])N(C([H])([H])[H])C([H])([H])C2([H])[H])c([H])c([H])c1C(=O)N([H])c1nn([H])c2c([H])c([H])c(C#N)c([H])c12


 29 32  0  0  0  0  0  0  0  0999 V2000
  -88.5611   30.1640   -2.6500 C   0  0  0  0  0  0  0  0  0  0  0  0
  -89.4593   29.4662   -3.1725 O   0  0  0  0  0  0  0  0  0  0  0  0
  -87.6849   29.5764   -1.7234 N   0  0  0  0  0  0  0  0  0  0  0  0
  -86.9253   30.1569   -1.2767 H   0  0  0  0  0  0  0  0  0  0  0  0
  -87.7919   28.1869   -1.3618 C   0  0  0  0  0  0  0  0  0  0  0  0
  -87.2170   27.1213   -1.9289 N   0  0  0  0  0  0  0  0  0  0  0  0
  -87.5846   26.0121   -1.2759 N   0  0  0  0  0  0  0  0  0  0  0  0
  -88.4156   26.3195   -0.2559 C   0  0  0  0  0  0  0  0  0  0  0  0
  -89.0669   25.5739    0.7036 C   0  0  0  0  0  0  0  0  0  0  0  0
  -89.8569   26.2430    1.6119 C   0  0  0  0  0  0  0  0  0  0  0  0
  -90.0103   27.6200    1.5856 C   0  0  0  0  0  0  0  0  0  0  0  0
  -89.3465   28.3359    0.6147 C   0  0  0  0  0  0  0  0  0  0  0  0
  -88.5442   27.7126   -0.3164 C   0  0  0  0  0  0  0  0  0  0  0  0
  -87.3104   25.0232   -1.4677 H   0  0  0  0  0  0  0  0  0  0  0  0
  -90.8536   28.2871    2.5599 C   0  0  0  0  0  0  0  0  0  0  0  0
  -91.5154   28.8359    3.3183 N   0  0  0  0  0  0  0  0  0  0  0  0
  -88.2750   34.2222   -3.6687 C   0  0  0  0  0  0  0  0  0  0  0  0
  -88.8923   33.8555   -2.4952 C   0  0  0  0  0  0  0  0  0  0  0  0
  -88.9743   32.5136   -2.1784 C   0  0  0  0  0  0  0  0  0  0  0  0
  -88.4516   31.5567   -3.0146 C   0  0  0  0  0  0  0  0  0  0  0  0
  -87.8233   31.9262   -4.2091 C   0  0  0  0  0  0  0  0  0  0  0  0
  -87.7464   33.2611   -4.5156 C   0  0  0  0  0  0  0  0  0  0  0  0
  -87.6930   39.7126   -4.3326 C   0  0  0  0  0  0  0  0  0  0  0  0
  -87.7477   38.3593   -3.8222 N   0  0  0  0  0  0  0  0  0  0  0  0
  -89.0905   37.8637   -4.0492 C   0  0  0  0  0  0  0  0  0  0  0  0
  -89.2890   36.4767   -3.5609 C   0  0  0  0  0  0  0  0  0  0  0  0
  -88.2128   35.6268   -3.9629 N   0  0  0  0  0  0  0  0  0  0  0  0
  -87.0671   36.1262   -4.6524 C   0  0  0  0  0  0  0  0  0  0  0  0
  -86.7719   37.5729   -4.5469 C   0  0  0  0  0  0  0  0  0  0  0  0
 23 24  1  0  0  0
 24 25  1  0  0  0
 25 26  1  0  0  0
 26 27  1  0  0  0
 27 28  1  0  0  0
 28 29  1  0  0  0
 27 17  1  0  0  0
 17 18  2  0  0  0
 18 19  1  0  0  0
 19 20  2  0  0  0
 20 21  1  0  0  0
 21 22  2  0  0  0
 20  1  1  0  0  0
  1  2  2  0  0  0
  1  3  1  0  0  0
  3  5  1  0  0  0
  5  6  2  0  0  0
  6  7  1  0  0  0
  7  8  1  0  0  0
  8  9  2  0  0  0
  9 10  1  0  0  0
 10 11  2  0  0  0
 11 12  1  0  0  0
 12 13  2  0  0  0
 11 15  1  0  0  0
 15 16  3  0  0  0
 29 24  1  0  0  0
 22 17  1  0  0  0
 13  5  1  0  0  0
 13  8  1  0  0  0
  3  4  1  0  0  0
  7 14  1  0  0  0
M  END
> <minimizedAffinity>
-7.27103

> <CNNscore>
0.1174577624

> <CNNaffinity>
5.0693993568

> <CNN_VS>
0.5954403281

> <CNNaffinity_variance>
0.3788149953

$$$$
[H]c1c([H])c([H])c(N2C([H])([H])N([H])C(=O)C23C([H])([H])C([H])([H])N(C(=O)c2c([H])c([H])c(C(C([H])([H])[H])(C([H])([H])[H])C([H])([H])[H])c([H])c2[H])C([H])([H])C3([H])[H])c(F)c1[H]


 31 34  0  0  0  0  0  0  0  0999 V2000
  -90.3527   25.4790    3.4176 C   0  0  0  0  0  0  0  0  0  0  0  0
  -91.0605   26.4956    3.8561 O   0  0  0  0  0  0  0  0  0  0  0  0
  -90.5447   25.2027    2.0844 N   0  0  0  0  0  0  0  0  0  0  0  0
  -91.5130   26.0933    1.3607 C   0  0  0  0  0  0  0  0  0  0  0  0
  -90.6825   26.6371    0.2092 C   0  0  0  0  0  0  0  0  0  0  0  0
  -90.4640   25.5471   -0.8270 C   0  0  0  0  0  0  0  0  0  0  0  0
  -90.5669   24.2226   -0.1669 C   0  0  0  0  0  0  0  0  0  0  0  0
  -89.9751   24.2002    1.2522 C   0  0  0  0  0  0  0  0  0  0  0  0
  -91.3351   25.7298   -1.9634 N   0  0  0  0  0  0  0  0  0  0  0  0
  -90.8397   26.9364   -2.6301 C   0  0  0  0  0  0  0  0  0  0  0  0
  -89.4212   26.9237   -2.3325 N   0  0  0  0  0  0  0  0  0  0  0  0
  -89.1382   25.8167   -1.4478 C   0  0  0  0  0  0  0  0  0  0  0  0
  -88.0316   25.2612   -1.2855 O   0  0  0  0  0  0  0  0  0  0  0  0
  -88.7252   27.6213   -2.7093 H   0  0  0  0  0  0  0  0  0  0  0  0
  -92.4308   24.9964   -2.4603 C   0  0  0  0  0  0  0  0  0  0  0  0
  -93.6991   25.5689   -2.4058 C   0  0  0  0  0  0  0  0  0  0  0  0
  -94.8132   24.8884   -2.8527 C   0  0  0  0  0  0  0  0  0  0  0  0
  -94.7059   23.6156   -3.3688 C   0  0  0  0  0  0  0  0  0  0  0  0
  -93.4576   23.0395   -3.4280 C   0  0  0  0  0  0  0  0  0  0  0  0
  -92.3428   23.7283   -2.9781 C   0  0  0  0  0  0  0  0  0  0  0  0
  -91.1534   23.1138   -3.0778 F   0  0  0  0  0  0  0  0  0  0  0  0
  -87.9469   23.7915    6.4990 C   0  0  0  0  0  0  0  0  0  0  0  0
  -88.2883   23.0799    5.3974 C   0  0  0  0  0  0  0  0  0  0  0  0
  -89.0811   23.5993    4.3470 C   0  0  0  0  0  0  0  0  0  0  0  0
  -89.5348   24.8805    4.4312 C   0  0  0  0  0  0  0  0  0  0  0  0
  -89.1983   25.6255    5.5446 C   0  0  0  0  0  0  0  0  0  0  0  0
  -88.4344   25.1029    6.5412 C   0  0  0  0  0  0  0  0  0  0  0  0
  -87.8184   23.4504    8.9318 C   0  0  0  0  0  0  0  0  0  0  0  0
  -87.1361   23.2467    7.5838 C   0  0  0  0  0  0  0  0  0  0  0  0
  -85.7485   23.7658    7.7107 C   0  0  0  0  0  0  0  0  0  0  0  0
  -87.0577   21.7369    7.3655 C   0  0  0  0  0  0  0  0  0  0  0  0
 28 29  1  0  0  0
 29 30  1  0  0  0
 29 31  1  0  0  0
 29 22  1  0  0  0
 22 23  2  0  0  0
 23 24  1  0  0  0
 24 25  2  0  0  0
 25 26  1  0  0  0
 26 27  2  0  0  0
 25  1  1  0  0  0
  1  2  2  0  0  0
  1  3  1  0  0  0
  3  4  1  0  0  0
  4  5  1  0  0  0
  5  6  1  0  0  0
  6  7  1  0  0  0
  7  8  1  0  0  0
  6  9  1  0  0  0
  9 10  1  0  0  0
 10 11  1  0  0  0
 11 12  1  0  0  0
 12 13  2  0  0  0
  9 15  1  0  0  0
 15 16  2  0  0  0
 16 17  1  0  0  0
 17 18  2  0  0  0
 18 19  1  0  0  0
 19 20  2  0  0  0
 20 21  1  0  0  0
 27 22  1  0  0  0
  8  3  1  0  0  0
 20 15  1  0  0  0
 12  6  1  0  0  0
 11 14  1  0  0  0
M  END
> <minimizedAffinity>
-5.59687

> <CNNscore>
0.2057358623

> <CNNaffinity>
5.4653015137

> <CNN_VS>
1.1244084835

> <CNNaffinity_variance>
0.6689954400

$$$$
[H]c1c([H])c([H])c(N2C([H])([H])N([H])C(=O)C23C([H])([H])C([H])([H])N(C(=O)c2c([H])c([H])c(C(C([H])([H])[H])(C([H])([H])[H])C([H])([H])[H])c([H])c2[H])C([H])([H])C3([H])[H])c(F)c1[H]


 31 34  0  0  0  0  0  0  0  0999 V2000
  -91.4478   26.4278   -2.5557 C   0  0  0  0  0  0  0  0  0  0  0  0
  -91.3497   25.1337   -2.7611 O   0  0  0  0  0  0  0  0  0  0  0  0
  -90.8693   26.8491   -1.3815 N   0  0  0  0  0  0  0  0  0  0  0  0
  -90.2300   25.7804   -0.5426 C   0  0  0  0  0  0  0  0  0  0  0  0
  -88.8033   26.2802   -0.3811 C   0  0  0  0  0  0  0  0  0  0  0  0
  -88.7762   27.4563    0.5809 C   0  0  0  0  0  0  0  0  0  0  0  0
  -90.1045   28.1165    0.5775 C   0  0  0  0  0  0  0  0  0  0  0  0
  -90.7676   28.1469   -0.8095 C   0  0  0  0  0  0  0  0  0  0  0  0
  -88.3017   27.0507    1.8825 N   0  0  0  0  0  0  0  0  0  0  0  0
  -86.8839   26.7382    1.6881 C   0  0  0  0  0  0  0  0  0  0  0  0
  -86.4914   27.6240    0.6101 N   0  0  0  0  0  0  0  0  0  0  0  0
  -87.6584   28.3348    0.1397 C   0  0  0  0  0  0  0  0  0  0  0  0
  -87.6667   29.4191   -0.4797 O   0  0  0  0  0  0  0  0  0  0  0  0
  -85.5073   27.7175    0.2415 H   0  0  0  0  0  0  0  0  0  0  0  0
  -88.9248   26.9487    3.1421 C   0  0  0  0  0  0  0  0  0  0  0  0
  -89.5280   28.0809    3.6839 C   0  0  0  0  0  0  0  0  0  0  0  0
  -90.1303   28.0485    4.9250 C   0  0  0  0  0  0  0  0  0  0  0  0
  -90.1538   26.8904    5.6708 C   0  0  0  0  0  0  0  0  0  0  0  0
  -89.5610   25.7650    5.1457 C   0  0  0  0  0  0  0  0  0  0  0  0
  -88.9584   25.8040    3.8987 C   0  0  0  0  0  0  0  0  0  0  0  0
  -88.4116   24.6671    3.4396 F   0  0  0  0  0  0  0  0  0  0  0  0
  -93.5689   28.3760   -5.6919 C   0  0  0  0  0  0  0  0  0  0  0  0
  -92.7548   29.0631   -4.8544 C   0  0  0  0  0  0  0  0  0  0  0  0
  -92.0274   28.4587   -3.8021 C   0  0  0  0  0  0  0  0  0  0  0  0
  -92.1402   27.1160   -3.6052 C   0  0  0  0  0  0  0  0  0  0  0  0
  -92.9635   26.3946   -4.4477 C   0  0  0  0  0  0  0  0  0  0  0  0
  -93.6524   26.9994   -5.4525 C   0  0  0  0  0  0  0  0  0  0  0  0
  -93.3973   29.4674   -7.8898 C   0  0  0  0  0  0  0  0  0  0  0  0
  -94.3240   29.0071   -6.7702 C   0  0  0  0  0  0  0  0  0  0  0  0
  -95.1781   30.1672   -6.4017 C   0  0  0  0  0  0  0  0  0  0  0  0
  -95.2241   27.9301   -7.3725 C   0  0  0  0  0  0  0  0  0  0  0  0
 28 29  1  0  0  0
 29 30  1  0  0  0
 29 31  1  0  0  0
 29 22  1  0  0  0
 22 23  2  0  0  0
 23 24  1  0  0  0
 24 25  2  0  0  0
 25 26  1  0  0  0
 26 27  2  0  0  0
 25  1  1  0  0  0
  1  2  2  0  0  0
  1  3  1  0  0  0
  3  4  1  0  0  0
  4  5  1  0  0  0
  5  6  1  0  0  0
  6  7  1  0  0  0
  7  8  1  0  0  0
  6  9  1  0  0  0
  9 10  1  0  0  0
 10 11  1  0  0  0
 11 12  1  0  0  0
 12 13  2  0  0  0
  9 15  1  0  0  0
 15 16  2  0  0  0
 16 17  1  0  0  0
 17 18  2  0  0  0
 18 19  1  0  0  0
 19 20  2  0  0  0
 20 21  1  0  0  0
 27 22  1  0  0  0
  8  3  1  0  0  0
 20 15  1  0  0  0
 12  6  1  0  0  0
 11 14  1  0  0  0
M  END
> <minimizedAffinity>
-3.72849

> <CNNscore>
0.1980049908

> <CNNaffinity>
5.6257152557

> <CNN_VS>
1.1139197350

> <CNNaffinity_variance>
0.4564641416

$$$$
[H]c1c([H])c([H])c(N2C([H])([H])N([H])C(=O)C23C([H])([H])C([H])([H])N(C(=O)c2c([H])c([H])c(C(C([H])([H])[H])(C([H])([H])[H])C([H])([H])[H])c([H])c2[H])C([H])([H])C3([H])[H])c(F)c1[H]


 31 34  0  0  0  0  0  0  0  0999 V2000
  -91.3092   28.6839   -0.9122 C   0  0  0  0  0  0  0  0  0  0  0  0
  -91.9021   29.5730   -0.1475 O   0  0  0  0  0  0  0  0  0  0  0  0
  -90.1214   28.2159   -0.4014 N   0  0  0  0  0  0  0  0  0  0  0  0
  -89.7051   28.7859    0.9239 C   0  0  0  0  0  0  0  0  0  0  0  0
  -89.5335   27.5482    1.7899 C   0  0  0  0  0  0  0  0  0  0  0  0
  -88.2694   26.8083    1.3847 C   0  0  0  0  0  0  0  0  0  0  0  0
  -87.9516   27.1288   -0.0284 C   0  0  0  0  0  0  0  0  0  0  0  0
  -89.1980   27.2663   -0.9183 C   0  0  0  0  0  0  0  0  0  0  0  0
  -87.1995   27.0586    2.3208 N   0  0  0  0  0  0  0  0  0  0  0  0
  -87.6090   26.3815    3.5536 C   0  0  0  0  0  0  0  0  0  0  0  0
  -88.4024   25.2672    3.0748 N   0  0  0  0  0  0  0  0  0  0  0  0
  -88.5277   25.3644    1.6384 C   0  0  0  0  0  0  0  0  0  0  0  0
  -88.7892   24.4304    0.8518 O   0  0  0  0  0  0  0  0  0  0  0  0
  -88.8152   24.5182    3.6926 H   0  0  0  0  0  0  0  0  0  0  0  0
  -85.9768   27.7512    2.2179 C   0  0  0  0  0  0  0  0  0  0  0  0
  -84.7904   27.0226    2.2495 C   0  0  0  0  0  0  0  0  0  0  0  0
  -83.5623   27.6480    2.1796 C   0  0  0  0  0  0  0  0  0  0  0  0
  -83.4705   29.0187    2.0763 C   0  0  0  0  0  0  0  0  0  0  0  0
  -84.6362   29.7493    2.0440 C   0  0  0  0  0  0  0  0  0  0  0  0
  -85.8661   29.1153    2.1140 C   0  0  0  0  0  0  0  0  0  0  0  0
  -86.9638   29.8863    2.0628 F   0  0  0  0  0  0  0  0  0  0  0  0
  -93.4242   27.9371   -4.5315 C   0  0  0  0  0  0  0  0  0  0  0  0
  -93.2938   26.9831   -3.5779 C   0  0  0  0  0  0  0  0  0  0  0  0
  -92.6046   27.1865   -2.3591 C   0  0  0  0  0  0  0  0  0  0  0  0
  -92.0348   28.3989   -2.1149 C   0  0  0  0  0  0  0  0  0  0  0  0
  -92.1560   29.3873   -3.0723 C   0  0  0  0  0  0  0  0  0  0  0  0
  -92.8241   29.1668   -4.2363 C   0  0  0  0  0  0  0  0  0  0  0  0
  -93.1583   27.7127   -6.9667 C   0  0  0  0  0  0  0  0  0  0  0  0
  -94.1289   27.7181   -5.7910 C   0  0  0  0  0  0  0  0  0  0  0  0
  -95.2188   28.6728   -6.1253 C   0  0  0  0  0  0  0  0  0  0  0  0
  -94.7322   26.3164   -5.7253 C   0  0  0  0  0  0  0  0  0  0  0  0
 28 29  1  0  0  0
 29 30  1  0  0  0
 29 31  1  0  0  0
 29 22  1  0  0  0
 22 23  2  0  0  0
 23 24  1  0  0  0
 24 25  2  0  0  0
 25 26  1  0  0  0
 26 27  2  0  0  0
 25  1  1  0  0  0
  1  2  2  0  0  0
  1  3  1  0  0  0
  3  4  1  0  0  0
  4  5  1  0  0  0
  5  6  1  0  0  0
  6  7  1  0  0  0
  7  8  1  0  0  0
  6  9  1  0  0  0
  9 10  1  0  0  0
 10 11  1  0  0  0
 11 12  1  0  0  0
 12 13  2  0  0  0
  9 15  1  0  0  0
 15 16  2  0  0  0
 16 17  1  0  0  0
 17 18  2  0  0  0
 18 19  1  0  0  0
 19 20  2  0  0  0
 20 21  1  0  0  0
 27 22  1  0  0  0
  8  3  1  0  0  0
 20 15  1  0  0  0
 12  6  1  0  0  0
 11 14  1  0  0  0
M  END
> <minimizedAffinity>
-3.97596

> <CNNscore>
0.1804506332

> <CNNaffinity>
5.7266564369

> <CNN_VS>
1.0333788395

> <CNNaffinity_variance>
0.4855412841

$$$$
[H]c1c([H])c([H])c(N2C([H])([H])N([H])C(=O)C23C([H])([H])C([H])([H])N(C(=O)c2c([H])c([H])c(C(C([H])([H])[H])(C([H])([H])[H])C([H])([H])[H])c([H])c2[H])C([H])([H])C3([H])[H])c(F)c1[H]


 31 34  0  0  0  0  0  0  0  0999 V2000
  -90.1395   26.5580    3.8496 C   0  0  0  0  0  0  0  0  0  0  0  0
  -90.9898   27.3586    4.4519 O   0  0  0  0  0  0  0  0  0  0  0  0
  -90.1423   26.6743    2.4796 N   0  0  0  0  0  0  0  0  0  0  0  0
  -91.0981   27.6806    1.9066 C   0  0  0  0  0  0  0  0  0  0  0  0
  -90.1917   28.5852    1.0871 C   0  0  0  0  0  0  0  0  0  0  0  0
  -89.7460   27.8616   -0.1727 C   0  0  0  0  0  0  0  0  0  0  0  0
  -89.7989   26.3981    0.0639 C   0  0  0  0  0  0  0  0  0  0  0  0
  -89.3826   25.9947    1.4881 C   0  0  0  0  0  0  0  0  0  0  0  0
  -90.4877   28.3190   -1.3234 N   0  0  0  0  0  0  0  0  0  0  0  0
  -90.0348   29.6946   -1.5435 C   0  0  0  0  0  0  0  0  0  0  0  0
  -88.6678   29.6770   -1.0620 N   0  0  0  0  0  0  0  0  0  0  0  0
  -88.3875   28.3775   -0.4956 C   0  0  0  0  0  0  0  0  0  0  0  0
  -87.2599   27.8636   -0.3405 O   0  0  0  0  0  0  0  0  0  0  0  0
  -88.0023   30.4934   -1.1224 H   0  0  0  0  0  0  0  0  0  0  0  0
  -91.4397   27.7017   -2.1589 C   0  0  0  0  0  0  0  0  0  0  0  0
  -92.7839   28.0273   -1.9963 C   0  0  0  0  0  0  0  0  0  0  0  0
  -93.7638   27.4357   -2.7670 C   0  0  0  0  0  0  0  0  0  0  0  0
  -93.4421   26.4999   -3.7255 C   0  0  0  0  0  0  0  0  0  0  0  0
  -92.1169   26.1701   -3.8955 C   0  0  0  0  0  0  0  0  0  0  0  0
  -91.1378   26.7682   -3.1188 C   0  0  0  0  0  0  0  0  0  0  0  0
  -89.8637   26.4117   -3.3460 F   0  0  0  0  0  0  0  0  0  0  0  0
  -87.9742   24.1789    6.6393 C   0  0  0  0  0  0  0  0  0  0  0  0
  -88.0615   23.8336    5.3318 C   0  0  0  0  0  0  0  0  0  0  0  0
  -88.7653   24.5943    4.3685 C   0  0  0  0  0  0  0  0  0  0  0  0
  -89.3954   25.7367    4.7586 C   0  0  0  0  0  0  0  0  0  0  0  0
  -89.3190   26.1094    6.0865 C   0  0  0  0  0  0  0  0  0  0  0  0
  -88.6357   25.3606    6.9934 C   0  0  0  0  0  0  0  0  0  0  0  0
  -87.9443   23.4480    8.9879 C   0  0  0  0  0  0  0  0  0  0  0  0
  -87.2541   23.3847    7.6301 C   0  0  0  0  0  0  0  0  0  0  0  0
  -85.8224   23.7219    7.8487 C   0  0  0  0  0  0  0  0  0  0  0  0
  -87.3325   21.9287    7.1753 C   0  0  0  0  0  0  0  0  0  0  0  0
 28 29  1  0  0  0
 29 30  1  0  0  0
 29 31  1  0  0  0
 29 22  1  0  0  0
 22 23  2  0  0  0
 23 24  1  0  0  0
 24 25  2  0  0  0
 25 26  1  0  0  0
 26 27  2  0  0  0
 25  1  1  0  0  0
  1  2  2  0  0  0
  1  3  1  0  0  0
  3  4  1  0  0  0
  4  5  1  0  0  0
  5  6  1  0  0  0
  6  7  1  0  0  0
  7  8  1  0  0  0
  6  9  1  0  0  0
  9 10  1  0  0  0
 10 11  1  0  0  0
 11 12  1  0  0  0
 12 13  2  0  0  0
  9 15  1  0  0  0
 15 16  2  0  0  0
 16 17  1  0  0  0
 17 18  2  0  0  0
 18 19  1  0  0  0
 19 20  2  0  0  0
 20 21  1  0  0  0
 27 22  1  0  0  0
  8  3  1  0  0  0
 20 15  1  0  0  0
 12  6  1  0  0  0
 11 14  1  0  0  0
M  END
> <minimizedAffinity>
-7.06489

> <CNNscore>
0.1418617964

> <CNNaffinity>
5.5298852921

> <CNN_VS>
0.7844794393

> <CNNaffinity_variance>
0.3744439483

$$$$
[H]c1c([H])c([H])c(N2C([H])([H])N([H])C(=O)C23C([H])([H])C([H])([H])N(C(=O)c2c([H])c([H])c(C(C([H])([H])[H])(C([H])([H])[H])C([H])([H])[H])c([H])c2[H])C([H])([H])C3([H])[H])c(F)c1[H]


 31 34  0  0  0  0  0  0  0  0999 V2000
  -86.2596   33.1141   -1.8420 C   0  0  0  0  0  0  0  0  0  0  0  0
  -85.2008   33.6868   -2.3689 O   0  0  0  0  0  0  0  0  0  0  0  0
  -87.4515   33.5864   -2.3391 N   0  0  0  0  0  0  0  0  0  0  0  0
  -87.3493   34.6586   -3.3854 C   0  0  0  0  0  0  0  0  0  0  0  0
  -88.1229   34.0704   -4.5545 C   0  0  0  0  0  0  0  0  0  0  0  0
  -89.6122   34.1024   -4.2538 C   0  0  0  0  0  0  0  0  0  0  0  0
  -89.8104   34.1030   -2.7837 C   0  0  0  0  0  0  0  0  0  0  0  0
  -88.7930   33.2304   -2.0303 C   0  0  0  0  0  0  0  0  0  0  0  0
  -90.2597   35.1850   -4.9555 N   0  0  0  0  0  0  0  0  0  0  0  0
  -90.2067   34.8053   -6.3692 C   0  0  0  0  0  0  0  0  0  0  0  0
  -90.2398   33.3569   -6.3274 N   0  0  0  0  0  0  0  0  0  0  0  0
  -90.2066   32.9274   -4.9480 C   0  0  0  0  0  0  0  0  0  0  0  0
  -90.5967   31.8272   -4.5042 O   0  0  0  0  0  0  0  0  0  0  0  0
  -90.2786   32.7350   -7.1788 H   0  0  0  0  0  0  0  0  0  0  0  0
  -90.8686   36.3801   -4.5238 C   0  0  0  0  0  0  0  0  0  0  0  0
  -92.2380   36.3798   -4.2706 C   0  0  0  0  0  0  0  0  0  0  0  0
  -92.8941   37.5262   -3.8713 C   0  0  0  0  0  0  0  0  0  0  0  0
  -92.2125   38.7125   -3.7101 C   0  0  0  0  0  0  0  0  0  0  0  0
  -90.8588   38.7251   -3.9573 C   0  0  0  0  0  0  0  0  0  0  0  0
  -90.2059   37.5705   -4.3575 C   0  0  0  0  0  0  0  0  0  0  0  0
  -88.8824   37.6490   -4.5679 F   0  0  0  0  0  0  0  0  0  0  0  0
  -85.2142   30.2340    1.1147 C   0  0  0  0  0  0  0  0  0  0  0  0
  -86.3399   30.1084    0.3707 C   0  0  0  0  0  0  0  0  0  0  0  0
  -86.7254   31.0368   -0.6249 C   0  0  0  0  0  0  0  0  0  0  0  0
  -85.9358   32.1207   -0.8608 C   0  0  0  0  0  0  0  0  0  0  0  0
  -84.7824   32.2690   -0.1153 C   0  0  0  0  0  0  0  0  0  0  0  0
  -84.4336   31.3620    0.8364 C   0  0  0  0  0  0  0  0  0  0  0  0
  -85.3512   27.8826    1.8243 C   0  0  0  0  0  0  0  0  0  0  0  0
  -84.8267   29.2772    2.1469 C   0  0  0  0  0  0  0  0  0  0  0  0
  -85.2388   29.5902    3.5410 C   0  0  0  0  0  0  0  0  0  0  0  0
  -83.3026   29.1814    2.1150 C   0  0  0  0  0  0  0  0  0  0  0  0
 28 29  1  0  0  0
 29 30  1  0  0  0
 29 31  1  0  0  0
 29 22  1  0  0  0
 22 23  2  0  0  0
 23 24  1  0  0  0
 24 25  2  0  0  0
 25 26  1  0  0  0
 26 27  2  0  0  0
 25  1  1  0  0  0
  1  2  2  0  0  0
  1  3  1  0  0  0
  3  4  1  0  0  0
  4  5  1  0  0  0
  5  6  1  0  0  0
  6  7  1  0  0  0
  7  8  1  0  0  0
  6  9  1  0  0  0
  9 10  1  0  0  0
 10 11  1  0  0  0
 11 12  1  0  0  0
 12 13  2  0  0  0
  9 15  1  0  0  0
 15 16  2  0  0  0
 16 17  1  0  0  0
 17 18  2  0  0  0
 18 19  1  0  0  0
 19 20  2  0  0  0
 20 21  1  0  0  0
 27 22  1  0  0  0
  8  3  1  0  0  0
 20 15  1  0  0  0
 12  6  1  0  0  0
 11 14  1  0  0  0
M  END
> <minimizedAffinity>
-8.83779

> <CNNscore>
0.1345058084

> <CNNaffinity>
5.9336867332

> <CNN_VS>
0.7981153131

> <CNNaffinity_variance>
0.1209611148

$$$$
[H]c1c([H])c([H])c(N2C([H])([H])N([H])C(=O)C23C([H])([H])C([H])([H])N(C(=O)c2c([H])c([H])c(C(C([H])([H])[H])(C([H])([H])[H])C([H])([H])[H])c([H])c2[H])C([H])([H])C3([H])[H])c(F)c1[H]


 31 34  0  0  0  0  0  0  0  0999 V2000
  -90.7200   29.1018   -1.7253 C   0  0  0  0  0  0  0  0  0  0  0  0
  -91.4866   29.8530   -0.9673 O   0  0  0  0  0  0  0  0  0  0  0  0
  -89.4116   29.0434   -1.3068 N   0  0  0  0  0  0  0  0  0  0  0  0
  -89.0797   29.8320   -0.0728 C   0  0  0  0  0  0  0  0  0  0  0  0
  -88.4865   28.7830    0.8541 C   0  0  0  0  0  0  0  0  0  0  0  0
  -87.0963   28.4000    0.3745 C   0  0  0  0  0  0  0  0  0  0  0  0
  -86.9963   28.6619   -1.0822 C   0  0  0  0  0  0  0  0  0  0  0  0
  -88.2931   28.3524   -1.8484 C   0  0  0  0  0  0  0  0  0  0  0  0
  -86.0778   29.0333    1.1778 N   0  0  0  0  0  0  0  0  0  0  0  0
  -86.1744   28.3881    2.4893 C   0  0  0  0  0  0  0  0  0  0  0  0
  -86.6409   27.0532    2.1711 N   0  0  0  0  0  0  0  0  0  0  0  0
  -86.8996   26.9735    0.7516 C   0  0  0  0  0  0  0  0  0  0  0  0
  -86.9357   25.9333    0.0616 O   0  0  0  0  0  0  0  0  0  0  0  0
  -86.7670   26.2798    2.8776 H   0  0  0  0  0  0  0  0  0  0  0  0
  -85.1236   30.0332    0.9040 C   0  0  0  0  0  0  0  0  0  0  0  0
  -83.7784   29.7550    1.1330 C   0  0  0  0  0  0  0  0  0  0  0  0
  -82.8014   30.7033    0.9088 C   0  0  0  0  0  0  0  0  0  0  0  0
  -83.1270   31.9608    0.4497 C   0  0  0  0  0  0  0  0  0  0  0  0
  -84.4531   32.2474    0.2197 C   0  0  0  0  0  0  0  0  0  0  0  0
  -85.4293   31.2906    0.4463 C   0  0  0  0  0  0  0  0  0  0  0  0
  -86.7018   31.6312    0.1879 F   0  0  0  0  0  0  0  0  0  0  0  0
  -92.8009   27.4426   -5.0491 C   0  0  0  0  0  0  0  0  0  0  0  0
  -92.2743   26.6562   -4.0792 C   0  0  0  0  0  0  0  0  0  0  0  0
  -91.5793   27.1621   -2.9554 C   0  0  0  0  0  0  0  0  0  0  0  0
  -91.4208   28.5083   -2.8259 C   0  0  0  0  0  0  0  0  0  0  0  0
  -91.9504   29.3299   -3.8019 C   0  0  0  0  0  0  0  0  0  0  0  0
  -92.6147   28.8187   -4.8730 C   0  0  0  0  0  0  0  0  0  0  0  0
  -94.7559   27.7375   -6.5128 C   0  0  0  0  0  0  0  0  0  0  0  0
  -93.5090   26.9139   -6.2110 C   0  0  0  0  0  0  0  0  0  0  0  0
  -93.9280   25.4884   -6.1503 C   0  0  0  0  0  0  0  0  0  0  0  0
  -92.5810   27.0829   -7.4124 C   0  0  0  0  0  0  0  0  0  0  0  0
 28 29  1  0  0  0
 29 30  1  0  0  0
 29 31  1  0  0  0
 29 22  1  0  0  0
 22 23  2  0  0  0
 23 24  1  0  0  0
 24 25  2  0  0  0
 25 26  1  0  0  0
 26 27  2  0  0  0
 25  1  1  0  0  0
  1  2  2  0  0  0
  1  3  1  0  0  0
  3  4  1  0  0  0
  4  5  1  0  0  0
  5  6  1  0  0  0
  6  7  1  0  0  0
  7  8  1  0  0  0
  6  9  1  0  0  0
  9 10  1  0  0  0
 10 11  1  0  0  0
 11 12  1  0  0  0
 12 13  2  0  0  0
  9 15  1  0  0  0
 15 16  2  0  0  0
 16 17  1  0  0  0
 17 18  2  0  0  0
 18 19  1  0  0  0
 19 20  2  0  0  0
 20 21  1  0  0  0
 27 22  1  0  0  0
  8  3  1  0  0  0
 20 15  1  0  0  0
 12  6  1  0  0  0
 11 14  1  0  0  0
M  END
> <minimizedAffinity>
-8.59498

> <CNNscore>
0.1198817492

> <CNNaffinity>
5.9066915512

> <CNN_VS>
0.7081044912

> <CNNaffinity_variance>
0.1716340482

$$$$
[H]c1c([H])c([H])c(N2C([H])([H])N([H])C(=O)C23C([H])([H])C([H])([H])N(C(=O)c2c([H])c([H])c(C(C([H])([H])[H])(C([H])([H])[H])C([H])([H])[H])c([H])c2[H])C([H])([H])C3([H])[H])c(F)c1[H]


 31 34  0  0  0  0  0  0  0  0999 V2000
  -90.9152   31.4611   -2.7455 C   0  0  0  0  0  0  0  0  0  0  0  0
  -91.9397   31.3446   -1.9310 O   0  0  0  0  0  0  0  0  0  0  0  0
  -89.7547   30.9049   -2.2610 N   0  0  0  0  0  0  0  0  0  0  0  0
  -89.8474   30.2653   -0.9057 C   0  0  0  0  0  0  0  0  0  0  0  0
  -89.3637   28.8471   -1.1630 C   0  0  0  0  0  0  0  0  0  0  0  0
  -87.8594   28.8481   -1.3787 C   0  0  0  0  0  0  0  0  0  0  0  0
  -87.4404   30.1840   -1.8689 C   0  0  0  0  0  0  0  0  0  0  0  0
  -88.4539   30.8270   -2.8301 C   0  0  0  0  0  0  0  0  0  0  0  0
  -87.1661   28.3880   -0.1992 N   0  0  0  0  0  0  0  0  0  0  0  0
  -87.4939   26.9638   -0.0988 C   0  0  0  0  0  0  0  0  0  0  0  0
  -87.6814   26.5662   -1.4799 N   0  0  0  0  0  0  0  0  0  0  0  0
  -87.5692   27.7345   -2.3230 C   0  0  0  0  0  0  0  0  0  0  0  0
  -87.2924   27.7466   -3.5406 O   0  0  0  0  0  0  0  0  0  0  0  0
  -87.8711   25.5779   -1.7969 H   0  0  0  0  0  0  0  0  0  0  0  0
  -86.3191   29.0282    0.7271 C   0  0  0  0  0  0  0  0  0  0  0  0
  -85.3079   29.8569    0.2476 C   0  0  0  0  0  0  0  0  0  0  0  0
  -84.4314   30.4893    1.1054 C   0  0  0  0  0  0  0  0  0  0  0  0
  -84.5289   30.3200    2.4691 C   0  0  0  0  0  0  0  0  0  0  0  0
  -85.5243   29.5034    2.9548 C   0  0  0  0  0  0  0  0  0  0  0  0
  -86.4016   28.8717    2.0882 C   0  0  0  0  0  0  0  0  0  0  0  0
  -87.3582   28.1005    2.6290 F   0  0  0  0  0  0  0  0  0  0  0  0
  -91.9705   33.4399   -6.3650 C   0  0  0  0  0  0  0  0  0  0  0  0
  -90.8997   33.8293   -5.6314 C   0  0  0  0  0  0  0  0  0  0  0  0
  -90.5085   33.2001   -4.4260 C   0  0  0  0  0  0  0  0  0  0  0  0
  -91.2358   32.1461   -3.9630 C   0  0  0  0  0  0  0  0  0  0  0  0
  -92.3311   31.7306   -4.6950 C   0  0  0  0  0  0  0  0  0  0  0  0
  -92.6865   32.3524   -5.8512 C   0  0  0  0  0  0  0  0  0  0  0  0
  -91.1956   34.2332   -8.5608 C   0  0  0  0  0  0  0  0  0  0  0  0
  -92.3743   34.0992   -7.6032 C   0  0  0  0  0  0  0  0  0  0  0  0
  -92.9925   35.4456   -7.4761 C   0  0  0  0  0  0  0  0  0  0  0  0
  -93.3827   33.1791   -8.2887 C   0  0  0  0  0  0  0  0  0  0  0  0
 28 29  1  0  0  0
 29 30  1  0  0  0
 29 31  1  0  0  0
 29 22  1  0  0  0
 22 23  2  0  0  0
 23 24  1  0  0  0
 24 25  2  0  0  0
 25 26  1  0  0  0
 26 27  2  0  0  0
 25  1  1  0  0  0
  1  2  2  0  0  0
  1  3  1  0  0  0
  3  4  1  0  0  0
  4  5  1  0  0  0
  5  6  1  0  0  0
  6  7  1  0  0  0
  7  8  1  0  0  0
  6  9  1  0  0  0
  9 10  1  0  0  0
 10 11  1  0  0  0
 11 12  1  0  0  0
 12 13  2  0  0  0
  9 15  1  0  0  0
 15 16  2  0  0  0
 16 17  1  0  0  0
 17 18  2  0  0  0
 18 19  1  0  0  0
 19 20  2  0  0  0
 20 21  1  0  0  0
 27 22  1  0  0  0
  8  3  1  0  0  0
 20 15  1  0  0  0
 12  6  1  0  0  0
 11 14  1  0  0  0
M  END
> <minimizedAffinity>
-6.53576

> <CNNscore>
0.1153206527

> <CNNaffinity>
5.8836431503

> <CNN_VS>
0.6785055399

> <CNNaffinity_variance>
0.4725524783

$$$$
[H]c1c([H])c([H])c(N2C([H])([H])N([H])C(=O)C23C([H])([H])C([H])([H])N(C(=O)c2c([H])c([H])c(C(C([H])([H])[H])(C([H])([H])[H])C([H])([H])[H])c([H])c2[H])C([H])([H])C3([H])[H])c(F)c1[H]


 31 34  0  0  0  0  0  0  0  0999 V2000
  -90.4429   28.1221   -0.4687 C   0  0  0  0  0  0  0  0  0  0  0  0
  -91.2686   28.8903    0.2058 O   0  0  0  0  0  0  0  0  0  0  0  0
  -89.1233   28.4915   -0.3557 N   0  0  0  0  0  0  0  0  0  0  0  0
  -88.8468   29.6895    0.5062 C   0  0  0  0  0  0  0  0  0  0  0  0
  -87.8560   29.1547    1.5277 C   0  0  0  0  0  0  0  0  0  0  0  0
  -86.5000   28.9526    0.8720 C   0  0  0  0  0  0  0  0  0  0  0  0
  -86.6915   28.7441   -0.5841 C   0  0  0  0  0  0  0  0  0  0  0  0
  -87.9486   27.9262   -0.9235 C   0  0  0  0  0  0  0  0  0  0  0  0
  -85.5918   30.0193    1.2196 N   0  0  0  0  0  0  0  0  0  0  0  0
  -85.3117   29.8288    2.6447 C   0  0  0  0  0  0  0  0  0  0  0  0
  -85.4296   28.3948    2.8193 N   0  0  0  0  0  0  0  0  0  0  0  0
  -85.8610   27.8051    1.5726 C   0  0  0  0  0  0  0  0  0  0  0  0
  -85.7069   26.6165    1.2218 O   0  0  0  0  0  0  0  0  0  0  0  0
  -85.2305   27.8840    3.7208 H   0  0  0  0  0  0  0  0  0  0  0  0
  -85.0044   31.0607    0.4741 C   0  0  0  0  0  0  0  0  0  0  0  0
  -83.6190   31.0849    0.3349 C   0  0  0  0  0  0  0  0  0  0  0  0
  -82.9853   32.0940   -0.3610 C   0  0  0  0  0  0  0  0  0  0  0  0
  -83.7061   33.1140   -0.9424 C   0  0  0  0  0  0  0  0  0  0  0  0
  -85.0759   33.1007   -0.8118 C   0  0  0  0  0  0  0  0  0  0  0  0
  -85.7061   32.0843   -0.1121 C   0  0  0  0  0  0  0  0  0  0  0  0
  -87.0457   32.1241   -0.0351 F   0  0  0  0  0  0  0  0  0  0  0  0
  -92.4686   24.9593   -2.4745 C   0  0  0  0  0  0  0  0  0  0  0  0
  -91.7099   25.8555   -3.1509 C   0  0  0  0  0  0  0  0  0  0  0  0
  -91.0157   26.9191   -2.5274 C   0  0  0  0  0  0  0  0  0  0  0  0
  -91.1042   27.0657   -1.1765 C   0  0  0  0  0  0  0  0  0  0  0  0
  -91.8711   26.1629   -0.4658 C   0  0  0  0  0  0  0  0  0  0  0  0
  -92.5289   25.1486   -1.0889 C   0  0  0  0  0  0  0  0  0  0  0  0
  -94.4033   23.4497   -2.3030 C   0  0  0  0  0  0  0  0  0  0  0  0
  -93.1899   23.8694   -3.1249 C   0  0  0  0  0  0  0  0  0  0  0  0
  -92.4147   22.6366   -3.4253 C   0  0  0  0  0  0  0  0  0  0  0  0
  -93.7325   24.4192   -4.4427 C   0  0  0  0  0  0  0  0  0  0  0  0
 28 29  1  0  0  0
 29 30  1  0  0  0
 29 31  1  0  0  0
 29 22  1  0  0  0
 22 23  2  0  0  0
 23 24  1  0  0  0
 24 25  2  0  0  0
 25 26  1  0  0  0
 26 27  2  0  0  0
 25  1  1  0  0  0
  1  2  2  0  0  0
  1  3  1  0  0  0
  3  4  1  0  0  0
  4  5  1  0  0  0
  5  6  1  0  0  0
  6  7  1  0  0  0
  7  8  1  0  0  0
  6  9  1  0  0  0
  9 10  1  0  0  0
 10 11  1  0  0  0
 11 12  1  0  0  0
 12 13  2  0  0  0
  9 15  1  0  0  0
 15 16  2  0  0  0
 16 17  1  0  0  0
 17 18  2  0  0  0
 18 19  1  0  0  0
 19 20  2  0  0  0
 20 21  1  0  0  0
 27 22  1  0  0  0
  8  3  1  0  0  0
 20 15  1  0  0  0
 12  6  1  0  0  0
 11 14  1  0  0  0
M  END
> <minimizedAffinity>
-7.61419

> <CNNscore>
0.0955915302

> <CNNaffinity>
6.1169219017

> <CNN_VS>
0.5847259164

> <CNNaffinity_variance>
0.1779658496

$$$$
[H]c1c([H])c([H])c(N2C([H])([H])N([H])C(=O)C23C([H])([H])C([H])([H])N(C(=O)c2c([H])c([H])c(C(C([H])([H])[H])(C([H])([H])[H])C([H])([H])[H])c([H])c2[H])C([H])([H])C3([H])[H])c(F)c1[H]


 31 34  0  0  0  0  0  0  0  0999 V2000
  -89.6392   25.3954   -1.2663 C   0  0  0  0  0  0  0  0  0  0  0  0
  -88.9628   24.9115   -2.2837 O   0  0  0  0  0  0  0  0  0  0  0  0
  -89.0811   26.5248   -0.7153 N   0  0  0  0  0  0  0  0  0  0  0  0
  -87.8139   27.0125   -1.3565 C   0  0  0  0  0  0  0  0  0  0  0  0
  -88.1505   28.4469   -1.7316 C   0  0  0  0  0  0  0  0  0  0  0  0
  -88.1910   29.3094   -0.4811 C   0  0  0  0  0  0  0  0  0  0  0  0
  -88.4978   28.4521    0.6899 C   0  0  0  0  0  0  0  0  0  0  0  0
  -89.5019   27.3299    0.3786 C   0  0  0  0  0  0  0  0  0  0  0  0
  -86.9901   30.1007   -0.3578 N   0  0  0  0  0  0  0  0  0  0  0  0
  -87.0668   31.0774   -1.4468 C   0  0  0  0  0  0  0  0  0  0  0  0
  -88.4923   31.2759   -1.6175 N   0  0  0  0  0  0  0  0  0  0  0  0
  -89.1994   30.3741   -0.7371 C   0  0  0  0  0  0  0  0  0  0  0  0
  -90.3703   30.5072   -0.3238 O   0  0  0  0  0  0  0  0  0  0  0  0
  -88.9235   31.9702   -2.2847 H   0  0  0  0  0  0  0  0  0  0  0  0
  -85.9149   30.0776    0.5525 C   0  0  0  0  0  0  0  0  0  0  0  0
  -85.4087   28.8456    0.9591 C   0  0  0  0  0  0  0  0  0  0  0  0
  -84.3745   28.7596    1.8686 C   0  0  0  0  0  0  0  0  0  0  0  0
  -83.8077   29.8946    2.4058 C   0  0  0  0  0  0  0  0  0  0  0  0
  -84.2995   31.1178    2.0115 C   0  0  0  0  0  0  0  0  0  0  0  0
  -85.3377   31.1973    1.0975 C   0  0  0  0  0  0  0  0  0  0  0  0
  -85.7598   32.4220    0.7451 F   0  0  0  0  0  0  0  0  0  0  0  0
  -93.0761   23.0402   -0.3881 C   0  0  0  0  0  0  0  0  0  0  0  0
  -92.9161   24.2810    0.1327 C   0  0  0  0  0  0  0  0  0  0  0  0
  -91.7944   25.1011   -0.1339 C   0  0  0  0  0  0  0  0  0  0  0  0
  -90.8131   24.6344   -0.9546 C   0  0  0  0  0  0  0  0  0  0  0  0
  -90.9553   23.3725   -1.4982 C   0  0  0  0  0  0  0  0  0  0  0  0
  -92.0437   22.6035   -1.2264 C   0  0  0  0  0  0  0  0  0  0  0  0
  -94.9998   21.8690   -1.3775 C   0  0  0  0  0  0  0  0  0  0  0  0
  -94.2316   22.1954   -0.1018 C   0  0  0  0  0  0  0  0  0  0  0  0
  -95.2164   22.7163    0.8831 C   0  0  0  0  0  0  0  0  0  0  0  0
  -93.6919   20.8678    0.4267 C   0  0  0  0  0  0  0  0  0  0  0  0
 28 29  1  0  0  0
 29 30  1  0  0  0
 29 31  1  0  0  0
 29 22  1  0  0  0
 22 23  2  0  0  0
 23 24  1  0  0  0
 24 25  2  0  0  0
 25 26  1  0  0  0
 26 27  2  0  0  0
 25  1  1  0  0  0
  1  2  2  0  0  0
  1  3  1  0  0  0
  3  4  1  0  0  0
  4  5  1  0  0  0
  5  6  1  0  0  0
  6  7  1  0  0  0
  7  8  1  0  0  0
  6  9  1  0  0  0
  9 10  1  0  0  0
 10 11  1  0  0  0
 11 12  1  0  0  0
 12 13  2  0  0  0
  9 15  1  0  0  0
 15 16  2  0  0  0
 16 17  1  0  0  0
 17 18  2  0  0  0
 18 19  1  0  0  0
 19 20  2  0  0  0
 20 21  1  0  0  0
 27 22  1  0  0  0
  8  3  1  0  0  0
 20 15  1  0  0  0
 12  6  1  0  0  0
 11 14  1  0  0  0
M  END
> <minimizedAffinity>
-7.28887

> <CNNscore>
0.0784572810

> <CNNaffinity>
5.5482754707

> <CNN_VS>
0.4353026152

> <CNNaffinity_variance>
0.3719920516

$$$$
[H]O[C@@]1([H])C([H])([H])C([H])([H])[C@]2([H])[C@]1(C([H])([H])[H])C([H])([H])C([H])([H])[C@]1([H])[C@@]3(C([H])([H])[H])C(=C([H])C(=O)C([H])([H])C3([H])[H])C([H])([H])C([H])([H])[C@]12[H]


 22 25  0  0  0  0  0  0  0  0999 V2000
  -85.8971   32.5624   -2.6852 C   0  0  0  0  0  0  0  0  0  0  0  0
  -86.6821   32.9462   -1.4805 C   0  0  0  0  0  0  0  0  0  0  0  0
  -85.8591   33.4833   -0.3474 C   0  0  0  0  0  0  0  0  0  0  0  0
  -85.0502   32.3275    0.2028 C   0  0  0  0  0  0  0  0  0  0  0  0
  -85.9370   31.2427    0.7292 C   0  0  0  0  0  0  0  0  0  0  0  0
  -86.7445   30.6673   -0.4329 C   0  0  0  0  0  0  0  0  0  0  0  0
  -87.7483   29.6304    0.0747 C   0  0  0  0  0  0  0  0  0  0  0  0
  -87.1431   28.5545    0.8956 C   0  0  0  0  0  0  0  0  0  0  0  0
  -85.7969   28.8624    1.4166 C   0  0  0  0  0  0  0  0  0  0  0  0
  -85.0676   27.8265    1.8573 C   0  0  0  0  0  0  0  0  0  0  0  0
  -83.7289   28.0191    2.3899 C   0  0  0  0  0  0  0  0  0  0  0  0
  -83.2451   27.1847    3.1733 O   0  0  0  0  0  0  0  0  0  0  0  0
  -82.9649   29.2044    1.9907 C   0  0  0  0  0  0  0  0  0  0  0  0
  -83.7571   30.1097    1.0684 C   0  0  0  0  0  0  0  0  0  0  0  0
  -85.2014   30.1913    1.4942 C   0  0  0  0  0  0  0  0  0  0  0  0
  -85.2425   30.6180    2.9680 C   0  0  0  0  0  0  0  0  0  0  0  0
  -87.5476   31.8069   -0.9519 C   0  0  0  0  0  0  0  0  0  0  0  0
  -88.4106   31.5380   -2.1148 C   0  0  0  0  0  0  0  0  0  0  0  0
  -88.7131   32.9329   -2.6585 C   0  0  0  0  0  0  0  0  0  0  0  0
  -87.7921   33.8814   -1.9121 C   0  0  0  0  0  0  0  0  0  0  0  0
  -87.3509   34.9272   -2.6849 O   0  0  0  0  0  0  0  0  0  0  0  0
  -87.7266   34.9374   -3.6059 H   0  0  0  0  0  0  0  0  0  0  0  0
  2  1  1  0  0  0
  2  3  1  0  0  0
  3  4  1  0  0  0
  4  5  1  0  0  0
  5  6  1  0  0  0
  6  7  1  0  0  0
  7  8  1  0  0  0
  8  9  1  0  0  0
  9 10  2  0  0  0
 10 11  1  0  0  0
 11 12  2  0  0  0
 11 13  1  0  0  0
 13 14  1  0  0  0
 14 15  1  0  0  0
 15 16  1  0  0  0
  6 17  1  0  0  0
 17 18  1  0  0  0
 18 19  1  0  0  0
 19 20  1  0  0  0
 20 21  1  0  0  0
 17  2  1  0  0  0
 20  2  1  0  0  0
 15  5  1  0  0  0
 15  9  1  0  0  0
 21 22  1  0  0  0
M  END
> <minimizedAffinity>
-9.99992

> <CNNscore>
0.6260200143

> <CNNaffinity>
6.3895444870

> <CNN_VS>
3.9999828339

> <CNNaffinity_variance>
0.2515239120

$$$$
[H]O[C@@]1([H])C([H])([H])C([H])([H])[C@]2([H])[C@]1(C([H])([H])[H])C([H])([H])C([H])([H])[C@]1([H])[C@@]3(C([H])([H])[H])C(=C([H])C(=O)C([H])([H])C3([H])[H])C([H])([H])C([H])([H])[C@]12[H]


 22 25  0  0  0  0  0  0  0  0999 V2000
  -84.7123   29.3656    0.1671 C   0  0  0  0  0  0  0  0  0  0  0  0
  -85.7689   30.0622    0.9503 C   0  0  0  0  0  0  0  0  0  0  0  0
  -87.1565   29.5396    0.7244 C   0  0  0  0  0  0  0  0  0  0  0  0
  -87.5539   29.9249   -0.6850 C   0  0  0  0  0  0  0  0  0  0  0  0
  -87.5691   31.4112   -0.8606 C   0  0  0  0  0  0  0  0  0  0  0  0
  -86.1477   31.9382   -0.6720 C   0  0  0  0  0  0  0  0  0  0  0  0
  -86.1316   33.4668   -0.7310 C   0  0  0  0  0  0  0  0  0  0  0  0
  -86.7587   34.0313   -1.9500 C   0  0  0  0  0  0  0  0  0  0  0  0
  -87.6284   33.0923   -2.6849 C   0  0  0  0  0  0  0  0  0  0  0  0
  -87.9362   33.4168   -3.9495 C   0  0  0  0  0  0  0  0  0  0  0  0
  -88.7852   32.5614   -4.7622 C   0  0  0  0  0  0  0  0  0  0  0  0
  -89.4126   33.0394   -5.7224 O   0  0  0  0  0  0  0  0  0  0  0  0
  -88.8882   31.1370   -4.4333 C   0  0  0  0  0  0  0  0  0  0  0  0
  -88.0799   30.7758   -3.2028 C   0  0  0  0  0  0  0  0  0  0  0  0
  -88.1791   31.8520   -2.1511 C   0  0  0  0  0  0  0  0  0  0  0  0
  -89.6655   32.1056   -1.8645 C   0  0  0  0  0  0  0  0  0  0  0  0
  -85.7768   31.5701    0.7209 C   0  0  0  0  0  0  0  0  0  0  0  0
  -84.4218   31.9361    1.1676 C   0  0  0  0  0  0  0  0  0  0  0  0
  -84.2056   31.0530    2.3950 C   0  0  0  0  0  0  0  0  0  0  0  0
  -85.3585   30.0654    2.4079 C   0  0  0  0  0  0  0  0  0  0  0  0
  -85.0023   28.8239    2.8742 O   0  0  0  0  0  0  0  0  0  0  0  0
  -84.0557   28.7594    3.1732 H   0  0  0  0  0  0  0  0  0  0  0  0
  2  1  1  0  0  0
  2  3  1  0  0  0
  3  4  1  0  0  0
  4  5  1  0  0  0
  5  6  1  0  0  0
  6  7  1  0  0  0
  7  8  1  0  0  0
  8  9  1  0  0  0
  9 10  2  0  0  0
 10 11  1  0  0  0
 11 12  2  0  0  0
 11 13  1  0  0  0
 13 14  1  0  0  0
 14 15  1  0  0  0
 15 16  1  0  0  0
  6 17  1  0  0  0
 17 18  1  0  0  0
 18 19  1  0  0  0
 19 20  1  0  0  0
 20 21  1  0  0  0
 17  2  1  0  0  0
 20  2  1  0  0  0
 15  5  1  0  0  0
 15  9  1  0  0  0
 21 22  1  0  0  0
M  END
> <minimizedAffinity>
-8.86869

> <CNNscore>
0.5915265679

> <CNNaffinity>
6.0996041298

> <CNN_VS>
3.6080780029

> <CNNaffinity_variance>
0.1634071618

$$$$
[H]O[C@@]1([H])C([H])([H])C([H])([H])[C@]2([H])[C@]1(C([H])([H])[H])C([H])([H])C([H])([H])[C@]1([H])[C@@]3(C([H])([H])[H])C(=C([H])C(=O)C([H])([H])C3([H])[H])C([H])([H])C([H])([H])[C@]12[H]


 22 25  0  0  0  0  0  0  0  0999 V2000
  -90.2987   31.5460   -2.1538 C   0  0  0  0  0  0  0  0  0  0  0  0
  -89.0455   31.3987   -2.9429 C   0  0  0  0  0  0  0  0  0  0  0  0
  -88.5495   29.9885   -3.0643 C   0  0  0  0  0  0  0  0  0  0  0  0
  -88.0672   29.5659   -1.6926 C   0  0  0  0  0  0  0  0  0  0  0  0
  -86.9396   30.4296   -1.2208 C   0  0  0  0  0  0  0  0  0  0  0  0
  -87.4560   31.8579   -1.0568 C   0  0  0  0  0  0  0  0  0  0  0  0
  -86.3109   32.8012   -0.6835 C   0  0  0  0  0  0  0  0  0  0  0  0
  -85.5341   32.3692    0.5030 C   0  0  0  0  0  0  0  0  0  0  0  0
  -85.7154   30.9521    0.8736 C   0  0  0  0  0  0  0  0  0  0  0  0
  -85.3304   30.5960    2.1082 C   0  0  0  0  0  0  0  0  0  0  0  0
  -85.4656   29.2258    2.5743 C   0  0  0  0  0  0  0  0  0  0  0  0
  -84.7416   28.8072    3.4935 O   0  0  0  0  0  0  0  0  0  0  0  0
  -86.4621   28.3529    1.9476 C   0  0  0  0  0  0  0  0  0  0  0  0
  -87.2021   29.0481    0.8220 C   0  0  0  0  0  0  0  0  0  0  0  0
  -86.2711   29.9149    0.0122 C   0  0  0  0  0  0  0  0  0  0  0  0
  -85.0979   29.0456   -0.4607 C   0  0  0  0  0  0  0  0  0  0  0  0
  -87.9088   32.2672   -2.4135 C   0  0  0  0  0  0  0  0  0  0  0  0
  -88.4915   33.6137   -2.5426 C   0  0  0  0  0  0  0  0  0  0  0  0
  -89.2419   33.5464   -3.8712 C   0  0  0  0  0  0  0  0  0  0  0  0
  -89.2395   32.0840   -4.2791 C   0  0  0  0  0  0  0  0  0  0  0  0
  -90.3895   31.7003   -4.9240 O   0  0  0  0  0  0  0  0  0  0  0  0
  -91.0398   32.4393   -5.0673 H   0  0  0  0  0  0  0  0  0  0  0  0
  2  1  1  0  0  0
  2  3  1  0  0  0
  3  4  1  0  0  0
  4  5  1  0  0  0
  5  6  1  0  0  0
  6  7  1  0  0  0
  7  8  1  0  0  0
  8  9  1  0  0  0
  9 10  2  0  0  0
 10 11  1  0  0  0
 11 12  2  0  0  0
 11 13  1  0  0  0
 13 14  1  0  0  0
 14 15  1  0  0  0
 15 16  1  0  0  0
  6 17  1  0  0  0
 17 18  1  0  0  0
 18 19  1  0  0  0
 19 20  1  0  0  0
 20 21  1  0  0  0
 17  2  1  0  0  0
 20  2  1  0  0  0
 15  5  1  0  0  0
 15  9  1  0  0  0
 21 22  1  0  0  0
M  END
> <minimizedAffinity>
-7.96502

> <CNNscore>
0.4343869090

> <CNNaffinity>
5.8892755508

> <CNN_VS>
2.5582242012

> <CNNaffinity_variance>
0.3205580115

$$$$
[H]O[C@@]1([H])C([H])([H])C([H])([H])[C@]2([H])[C@]1(C([H])([H])[H])C([H])([H])C([H])([H])[C@]1([H])[C@@]3(C([H])([H])[H])C(=C([H])C(=O)C([H])([H])C3([H])[H])C([H])([H])C([H])([H])[C@]12[H]


 22 25  0  0  0  0  0  0  0  0999 V2000
  -86.1763   27.8572   -0.3111 C   0  0  0  0  0  0  0  0  0  0  0  0
  -86.9234   28.7222    0.6421 C   0  0  0  0  0  0  0  0  0  0  0  0
  -88.3469   28.9907    0.2533 C   0  0  0  0  0  0  0  0  0  0  0  0
  -88.3142   29.8847   -0.9683 C   0  0  0  0  0  0  0  0  0  0  0  0
  -87.6460   31.1906   -0.6710 C   0  0  0  0  0  0  0  0  0  0  0  0
  -86.1850   30.9202   -0.3161 C   0  0  0  0  0  0  0  0  0  0  0  0
  -85.4883   32.2153    0.1054 C   0  0  0  0  0  0  0  0  0  0  0  0
  -85.6088   33.3153   -0.8812 C   0  0  0  0  0  0  0  0  0  0  0  0
  -86.6801   33.1308   -1.8795 C   0  0  0  0  0  0  0  0  0  0  0  0
  -86.6170   33.8925   -2.9819 C   0  0  0  0  0  0  0  0  0  0  0  0
  -87.6212   33.7899   -4.0278 C   0  0  0  0  0  0  0  0  0  0  0  0
  -87.8195   34.7467   -4.7956 O   0  0  0  0  0  0  0  0  0  0  0  0
  -88.3900   32.5494   -4.1610 C   0  0  0  0  0  0  0  0  0  0  0  0
  -88.0214   31.5329   -3.0985 C   0  0  0  0  0  0  0  0  0  0  0  0
  -87.7950   32.1980   -1.7642 C   0  0  0  0  0  0  0  0  0  0  0  0
  -89.0419   33.0260   -1.4244 C   0  0  0  0  0  0  0  0  0  0  0  0
  -86.2311   30.0576    0.8950 C   0  0  0  0  0  0  0  0  0  0  0  0
  -84.9391   29.6121    1.4444 C   0  0  0  0  0  0  0  0  0  0  0  0
  -85.3237   28.4333    2.3363 C   0  0  0  0  0  0  0  0  0  0  0  0
  -86.7808   28.1359    2.0309 C   0  0  0  0  0  0  0  0  0  0  0  0
  -87.0836   26.7978    2.0890 O   0  0  0  0  0  0  0  0  0  0  0  0
  -86.3201   26.2208    2.3604 H   0  0  0  0  0  0  0  0  0  0  0  0
  2  1  1  0  0  0
  2  3  1  0  0  0
  3  4  1  0  0  0
  4  5  1  0  0  0
  5  6  1  0  0  0
  6  7  1  0  0  0
  7  8  1  0  0  0
  8  9  1  0  0  0
  9 10  2  0  0  0
 10 11  1  0  0  0
 11 12  2  0  0  0
 11 13  1  0  0  0
 13 14  1  0  0  0
 14 15  1  0  0  0
 15 16  1  0  0  0
  6 17  1  0  0  0
 17 18  1  0  0  0
 18 19  1  0  0  0
 19 20  1  0  0  0
 20 21  1  0  0  0
 17  2  1  0  0  0
 20  2  1  0  0  0
 15  5  1  0  0  0
 15  9  1  0  0  0
 21 22  1  0  0  0
M  END
> <minimizedAffinity>
-8.72857

> <CNNscore>
0.3922667801

> <CNNaffinity>
5.9354047775

> <CNN_VS>
2.3282620907

> <CNNaffinity_variance>
0.1070578098

$$$$
[H]O[C@@]1([H])C([H])([H])C([H])([H])[C@]2([H])[C@]1(C([H])([H])[H])C([H])([H])C([H])([H])[C@]1([H])[C@@]3(C([H])([H])[H])C(=C([H])C(=O)C([H])([H])C3([H])[H])C([H])([H])C([H])([H])[C@]12[H]


 22 25  0  0  0  0  0  0  0  0999 V2000
  -89.2240   27.4498    3.2961 C   0  0  0  0  0  0  0  0  0  0  0  0
  -88.7221   26.7904    2.0599 C   0  0  0  0  0  0  0  0  0  0  0  0
  -87.2347   26.6027    2.0155 C   0  0  0  0  0  0  0  0  0  0  0  0
  -86.6163   27.9772    1.8696 C   0  0  0  0  0  0  0  0  0  0  0  0
  -87.0520   28.6396    0.6001 C   0  0  0  0  0  0  0  0  0  0  0  0
  -88.5610   28.8686    0.6637 C   0  0  0  0  0  0  0  0  0  0  0  0
  -89.0713   29.4421   -0.6596 C   0  0  0  0  0  0  0  0  0  0  0  0
  -88.3587   30.6639   -1.1037 C   0  0  0  0  0  0  0  0  0  0  0  0
  -87.0576   30.8903   -0.4448 C   0  0  0  0  0  0  0  0  0  0  0  0
  -86.5395   32.1242   -0.5374 C   0  0  0  0  0  0  0  0  0  0  0  0
  -85.2636   32.4542    0.0759 C   0  0  0  0  0  0  0  0  0  0  0  0
  -84.5932   33.4067   -0.3572 O   0  0  0  0  0  0  0  0  0  0  0  0
  -84.7846   31.6517    1.2047 C   0  0  0  0  0  0  0  0  0  0  0  0
  -85.7317   30.5167    1.5403 C   0  0  0  0  0  0  0  0  0  0  0  0
  -86.2936   29.8887    0.2897 C   0  0  0  0  0  0  0  0  0  0  0  0
  -85.1188   29.4720   -0.6060 C   0  0  0  0  0  0  0  0  0  0  0  0
  -89.1568   27.5112    0.7878 C   0  0  0  0  0  0  0  0  0  0  0  0
  -90.6234   27.4358    0.9014 C   0  0  0  0  0  0  0  0  0  0  0  0
  -90.8615   26.0333    1.4576 C   0  0  0  0  0  0  0  0  0  0  0  0
  -89.4957   25.5045    1.8572 C   0  0  0  0  0  0  0  0  0  0  0  0
  -89.5295   24.7093    2.9763 O   0  0  0  0  0  0  0  0  0  0  0  0
  -90.4432   24.5607    3.3404 H   0  0  0  0  0  0  0  0  0  0  0  0
  2  1  1  0  0  0
  2  3  1  0  0  0
  3  4  1  0  0  0
  4  5  1  0  0  0
  5  6  1  0  0  0
  6  7  1  0  0  0
  7  8  1  0  0  0
  8  9  1  0  0  0
  9 10  2  0  0  0
 10 11  1  0  0  0
 11 12  2  0  0  0
 11 13  1  0  0  0
 13 14  1  0  0  0
 14 15  1  0  0  0
 15 16  1  0  0  0
  6 17  1  0  0  0
 17 18  1  0  0  0
 18 19  1  0  0  0
 19 20  1  0  0  0
 20 21  1  0  0  0
 17  2  1  0  0  0
 20  2  1  0  0  0
 15  5  1  0  0  0
 15  9  1  0  0  0
 21 22  1  0  0  0
M  END
> <minimizedAffinity>
-8.41019

> <CNNscore>
0.3309999704

> <CNNaffinity>
5.8762888908

> <CNN_VS>
1.9450514317

> <CNNaffinity_variance>
0.1467914730

$$$$
[H]O[C@@]1([H])C([H])([H])C([H])([H])[C@]2([H])[C@]1(C([H])([H])[H])C([H])([H])C([H])([H])[C@]1([H])[C@@]3(C([H])([H])[H])C(=C([H])C(=O)C([H])([H])C3([H])[H])C([H])([H])C([H])([H])[C@]12[H]


 22 25  0  0  0  0  0  0  0  0999 V2000
  -84.9327   32.7181    1.3611 C   0  0  0  0  0  0  0  0  0  0  0  0
  -84.3616   32.0800    0.1439 C   0  0  0  0  0  0  0  0  0  0  0  0
  -84.3410   32.9622   -1.0689 C   0  0  0  0  0  0  0  0  0  0  0  0
  -85.7785   33.1560   -1.5035 C   0  0  0  0  0  0  0  0  0  0  0  0
  -86.4176   31.8536   -1.8714 C   0  0  0  0  0  0  0  0  0  0  0  0
  -86.4765   30.9713   -0.6257 C   0  0  0  0  0  0  0  0  0  0  0  0
  -87.0203   29.5852   -0.9771 C   0  0  0  0  0  0  0  0  0  0  0  0
  -88.3234   29.6083   -1.6836 C   0  0  0  0  0  0  0  0  0  0  0  0
  -88.6774   30.9122   -2.2777 C   0  0  0  0  0  0  0  0  0  0  0  0
  -89.9628   31.0939   -2.6152 C   0  0  0  0  0  0  0  0  0  0  0  0
  -90.4180   32.3411   -3.2070 C   0  0  0  0  0  0  0  0  0  0  0  0
  -91.4486   32.3606   -3.9011 O   0  0  0  0  0  0  0  0  0  0  0  0
  -89.6477   33.5658   -2.9735 C   0  0  0  0  0  0  0  0  0  0  0  0
  -88.4073   33.3093   -2.1406 C   0  0  0  0  0  0  0  0  0  0  0  0
  -87.7499   32.0090   -2.5292 C   0  0  0  0  0  0  0  0  0  0  0  0
  -87.4867   32.0388   -4.0411 C   0  0  0  0  0  0  0  0  0  0  0  0
  -85.0589   30.7733   -0.2205 C   0  0  0  0  0  0  0  0  0  0  0  0
  -84.8189   29.9716    0.9916 C   0  0  0  0  0  0  0  0  0  0  0  0
  -83.3862   30.3356    1.3761 C   0  0  0  0  0  0  0  0  0  0  0  0
  -83.0029   31.5116    0.4957 C   0  0  0  0  0  0  0  0  0  0  0  0
  -82.1833   32.4151    1.1263 O   0  0  0  0  0  0  0  0  0  0  0  0
  -81.9260   32.1526    2.0507 H   0  0  0  0  0  0  0  0  0  0  0  0
  2  1  1  0  0  0
  2  3  1  0  0  0
  3  4  1  0  0  0
  4  5  1  0  0  0
  5  6  1  0  0  0
  6  7  1  0  0  0
  7  8  1  0  0  0
  8  9  1  0  0  0
  9 10  2  0  0  0
 10 11  1  0  0  0
 11 12  2  0  0  0
 11 13  1  0  0  0
 13 14  1  0  0  0
 14 15  1  0  0  0
 15 16  1  0  0  0
  6 17  1  0  0  0
 17 18  1  0  0  0
 18 19  1  0  0  0
 19 20  1  0  0  0
 20 21  1  0  0  0
 17  2  1  0  0  0
 20  2  1  0  0  0
 15  5  1  0  0  0
 15  9  1  0  0  0
 21 22  1  0  0  0
M  END
> <minimizedAffinity>
-7.11050

> <CNNscore>
0.3005752265

> <CNNaffinity>
5.7970705032

> <CNN_VS>
1.7424557209

> <CNNaffinity_variance>
0.1321508586

$$$$
[H]O[C@@]1([H])C([H])([H])C([H])([H])[C@]2([H])[C@]1(C([H])([H])[H])C([H])([H])C([H])([H])[C@]1([H])[C@@]3(C([H])([H])[H])C(=C([H])C(=O)C([H])([H])C3([H])[H])C([H])([H])C([H])([H])[C@]12[H]


 22 25  0  0  0  0  0  0  0  0999 V2000
  -84.0420   29.8568   -0.5160 C   0  0  0  0  0  0  0  0  0  0  0  0
  -84.8388   30.3332    0.6472 C   0  0  0  0  0  0  0  0  0  0  0  0
  -85.8976   29.3766    1.1090 C   0  0  0  0  0  0  0  0  0  0  0  0
  -86.9648   29.3406    0.0354 C   0  0  0  0  0  0  0  0  0  0  0  0
  -87.5894   30.6869   -0.1584 C   0  0  0  0  0  0  0  0  0  0  0  0
  -86.5200   31.6508   -0.6690 C   0  0  0  0  0  0  0  0  0  0  0  0
  -87.0845   33.0686   -0.7755 C   0  0  0  0  0  0  0  0  0  0  0  0
  -88.3264   33.1660   -1.5793 C   0  0  0  0  0  0  0  0  0  0  0  0
  -89.0206   31.8817   -1.7960 C   0  0  0  0  0  0  0  0  0  0  0  0
  -89.9300   31.8447   -2.7814 C   0  0  0  0  0  0  0  0  0  0  0  0
  -90.6701   30.6296   -3.0791 C   0  0  0  0  0  0  0  0  0  0  0  0
  -91.7712   30.6964   -3.6512 O   0  0  0  0  0  0  0  0  0  0  0  0
  -90.1009   29.3344   -2.6966 C   0  0  0  0  0  0  0  0  0  0  0  0
  -88.7773   29.4843   -1.9732 C   0  0  0  0  0  0  0  0  0  0  0  0
  -88.8027   30.6604   -1.0296 C   0  0  0  0  0  0  0  0  0  0  0  0
  -90.0069   30.4959   -0.0922 C   0  0  0  0  0  0  0  0  0  0  0  0
  -85.4881   31.6915    0.4017 C   0  0  0  0  0  0  0  0  0  0  0  0
  -84.3060   32.5349    0.1552 C   0  0  0  0  0  0  0  0  0  0  0  0
  -83.2865   32.0162    1.1674 C   0  0  0  0  0  0  0  0  0  0  0  0
  -83.8810   30.7445    1.7455 C   0  0  0  0  0  0  0  0  0  0  0  0
  -82.9384   29.7873    2.0302 O   0  0  0  0  0  0  0  0  0  0  0  0
  -82.0024   30.0758    1.8562 H   0  0  0  0  0  0  0  0  0  0  0  0
  2  1  1  0  0  0
  2  3  1  0  0  0
  3  4  1  0  0  0
  4  5  1  0  0  0
  5  6  1  0  0  0
  6  7  1  0  0  0
  7  8  1  0  0  0
  8  9  1  0  0  0
  9 10  2  0  0  0
 10 11  1  0  0  0
 11 12  2  0  0  0
 11 13  1  0  0  0
 13 14  1  0  0  0
 14 15  1  0  0  0
 15 16  1  0  0  0
  6 17  1  0  0  0
 17 18  1  0  0  0
 18 19  1  0  0  0
 19 20  1  0  0  0
 20 21  1  0  0  0
 17  2  1  0  0  0
 20  2  1  0  0  0
 15  5  1  0  0  0
 15  9  1  0  0  0
 21 22  1  0  0  0
M  END
> <minimizedAffinity>
-7.92712

> <CNNscore>
0.2897534370

> <CNNaffinity>
5.7906551361

> <CNN_VS>
1.6778622866

> <CNNaffinity_variance>
0.1248441488

$$$$
[H]O[C@@]1([H])C([H])([H])C([H])([H])[C@]2([H])[C@]1(C([H])([H])[H])C([H])([H])C([H])([H])[C@]1([H])[C@@]3(C([H])([H])[H])C(=C([H])C(=O)C([H])([H])C3([H])[H])C([H])([H])C([H])([H])[C@]12[H]


 22 25  0  0  0  0  0  0  0  0999 V2000
  -85.8748   28.2208   -0.0113 C   0  0  0  0  0  0  0  0  0  0  0  0
  -86.7388   29.2161    0.6799 C   0  0  0  0  0  0  0  0  0  0  0  0
  -86.7029   29.1369    2.1772 C   0  0  0  0  0  0  0  0  0  0  0  0
  -87.3915   27.8474    2.5720 C   0  0  0  0  0  0  0  0  0  0  0  0
  -88.8205   27.8337    2.1274 C   0  0  0  0  0  0  0  0  0  0  0  0
  -88.8558   27.8718    0.6007 C   0  0  0  0  0  0  0  0  0  0  0  0
  -90.2982   27.9729    0.1011 C   0  0  0  0  0  0  0  0  0  0  0  0
  -91.1978   26.9225    0.6352 C   0  0  0  0  0  0  0  0  0  0  0  0
  -90.6860   26.2244    1.8306 C   0  0  0  0  0  0  0  0  0  0  0  0
  -91.2690   25.0581    2.1457 C   0  0  0  0  0  0  0  0  0  0  0  0
  -90.8408   24.2894    3.3027 C   0  0  0  0  0  0  0  0  0  0  0  0
  -91.6215   23.4846    3.8383 O   0  0  0  0  0  0  0  0  0  0  0  0
  -89.4837   24.4774    3.8230 C   0  0  0  0  0  0  0  0  0  0  0  0
  -88.7185   25.5347    3.0519 C   0  0  0  0  0  0  0  0  0  0  0  0
  -89.6089   26.6974    2.6924 C   0  0  0  0  0  0  0  0  0  0  0  0
  -90.2592   27.2187    3.9813 C   0  0  0  0  0  0  0  0  0  0  0  0
  -88.1939   29.1506    0.2270 C   0  0  0  0  0  0  0  0  0  0  0  0
  -88.0602   29.4352   -1.2120 C   0  0  0  0  0  0  0  0  0  0  0  0
  -86.9849   30.5190   -1.2578 C   0  0  0  0  0  0  0  0  0  0  0  0
  -86.4050   30.5921    0.1433 C   0  0  0  0  0  0  0  0  0  0  0  0
  -85.0601   30.8690    0.1585 O   0  0  0  0  0  0  0  0  0  0  0  0
  -84.6673   31.0212   -0.7427 H   0  0  0  0  0  0  0  0  0  0  0  0
  2  1  1  0  0  0
  2  3  1  0  0  0
  3  4  1  0  0  0
  4  5  1  0  0  0
  5  6  1  0  0  0
  6  7  1  0  0  0
  7  8  1  0  0  0
  8  9  1  0  0  0
  9 10  2  0  0  0
 10 11  1  0  0  0
 11 12  2  0  0  0
 11 13  1  0  0  0
 13 14  1  0  0  0
 14 15  1  0  0  0
 15 16  1  0  0  0
  6 17  1  0  0  0
 17 18  1  0  0  0
 18 19  1  0  0  0
 19 20  1  0  0  0
 20 21  1  0  0  0
 17  2  1  0  0  0
 20  2  1  0  0  0
 15  5  1  0  0  0
 15  9  1  0  0  0
 21 22  1  0  0  0
M  END
> <minimizedAffinity>
-6.61170

> <CNNscore>
0.2825294733

> <CNNaffinity>
5.6059021950

> <CNN_VS>
1.5838326216

> <CNNaffinity_variance>
0.2944687307

$$$$
[H]O[C@@]1([H])C([H])([H])C([H])([H])[C@]2([H])[C@]1(C([H])([H])[H])C([H])([H])C([H])([H])[C@]1([H])[C@@]3(C([H])([H])[H])C(=C([H])C(=O)C([H])([H])C3([H])[H])C([H])([H])C([H])([H])[C@]12[H]


 22 25  0  0  0  0  0  0  0  0999 V2000
  -85.3475   33.2417    0.8832 C   0  0  0  0  0  0  0  0  0  0  0  0
  -84.8703   32.3603   -0.2169 C   0  0  0  0  0  0  0  0  0  0  0  0
  -85.5427   32.5943   -1.5370 C   0  0  0  0  0  0  0  0  0  0  0  0
  -86.9736   32.1186   -1.3987 C   0  0  0  0  0  0  0  0  0  0  0  0
  -87.0346   30.6565   -1.0844 C   0  0  0  0  0  0  0  0  0  0  0  0
  -86.3870   30.4244    0.2796 C   0  0  0  0  0  0  0  0  0  0  0  0
  -86.3246   28.9287    0.5946 C   0  0  0  0  0  0  0  0  0  0  0  0
  -87.6305   28.2345    0.4926 C   0  0  0  0  0  0  0  0  0  0  0  0
  -88.6614   28.9722   -0.2632 C   0  0  0  0  0  0  0  0  0  0  0  0
  -89.9321   28.5758   -0.0975 C   0  0  0  0  0  0  0  0  0  0  0  0
  -91.0245   29.2348   -0.7944 C   0  0  0  0  0  0  0  0  0  0  0  0
  -92.0910   28.6287   -0.9931 O   0  0  0  0  0  0  0  0  0  0  0  0
  -90.8489   30.6149   -1.2551 C   0  0  0  0  0  0  0  0  0  0  0  0
  -89.4621   31.1459   -0.9502 C   0  0  0  0  0  0  0  0  0  0  0  0
  -88.4126   30.0859   -1.1711 C   0  0  0  0  0  0  0  0  0  0  0  0
  -88.5701   29.5466   -2.5994 C   0  0  0  0  0  0  0  0  0  0  0  0
  -84.9786   30.8778    0.1249 C   0  0  0  0  0  0  0  0  0  0  0  0
  -84.1177   30.7939    1.3171 C   0  0  0  0  0  0  0  0  0  0  0  0
  -82.9515   31.7190    0.9747 C   0  0  0  0  0  0  0  0  0  0  0  0
  -83.3608   32.4585   -0.2865 C   0  0  0  0  0  0  0  0  0  0  0  0
  -82.9024   33.7523   -0.3279 O   0  0  0  0  0  0  0  0  0  0  0  0
  -82.3372   34.0072    0.4500 H   0  0  0  0  0  0  0  0  0  0  0  0
  2  1  1  0  0  0
  2  3  1  0  0  0
  3  4  1  0  0  0
  4  5  1  0  0  0
  5  6  1  0  0  0
  6  7  1  0  0  0
  7  8  1  0  0  0
  8  9  1  0  0  0
  9 10  2  0  0  0
 10 11  1  0  0  0
 11 12  2  0  0  0
 11 13  1  0  0  0
 13 14  1  0  0  0
 14 15  1  0  0  0
 15 16  1  0  0  0
  6 17  1  0  0  0
 17 18  1  0  0  0
 18 19  1  0  0  0
 19 20  1  0  0  0
 20 21  1  0  0  0
 17  2  1  0  0  0
 20  2  1  0  0  0
 15  5  1  0  0  0
 15  9  1  0  0  0
 21 22  1  0  0  0
M  END
> <minimizedAffinity>
-7.57875

> <CNNscore>
0.2621384859

> <CNNaffinity>
5.8743410110

> <CNN_VS>
1.5398908854

> <CNNaffinity_variance>
0.1107243747

$$$$
[H]c1nc(N([H])c2c([H])c([H])c(Cl)c(OC([H])([H])[H])c2[H])nc(N([H])c2nc3c(c([H])c2[H])OC(C([H])([H])[H])(C([H])([H])[H])C(=O)N3[H])c1F


 34 37  0  0  0  0  0  0  0  0999 V2000
  -85.8855   27.8657    2.1157 C   0  0  0  0  0  0  0  0  0  0  0  0
  -84.8465   27.0528    2.3226 N   0  0  0  0  0  0  0  0  0  0  0  0
  -83.5638   27.4450    2.3732 C   0  0  0  0  0  0  0  0  0  0  0  0
  -83.2364   28.7730    2.2059 C   0  0  0  0  0  0  0  0  0  0  0  0
  -81.9528   29.1784    2.2545 F   0  0  0  0  0  0  0  0  0  0  0  0
  -84.2995   29.6513    1.9875 C   0  0  0  0  0  0  0  0  0  0  0  0
  -85.5457   29.1806    1.9515 N   0  0  0  0  0  0  0  0  0  0  0  0
  -87.2255   27.4560    2.0629 N   0  0  0  0  0  0  0  0  0  0  0  0
  -87.4520   26.6615    2.7773 H   0  0  0  0  0  0  0  0  0  0  0  0
  -89.1991   28.9273   -0.7395 C   0  0  0  0  0  0  0  0  0  0  0  0
  -88.0993   28.4690    0.0153 C   0  0  0  0  0  0  0  0  0  0  0  0
  -88.2593   27.9158    1.2421 C   0  0  0  0  0  0  0  0  0  0  0  0
  -89.5686   27.8155    1.7340 C   0  0  0  0  0  0  0  0  0  0  0  0
  -90.6360   28.2646    0.9916 C   0  0  0  0  0  0  0  0  0  0  0  0
  -90.4778   28.8270   -0.2530 C   0  0  0  0  0  0  0  0  0  0  0  0
  -91.8367   29.3951   -1.1889 Cl  0  0  0  0  0  0  0  0  0  0  0  0
  -87.8424   29.1757   -2.7116 C   0  0  0  0  0  0  0  0  0  0  0  0
  -88.9937   29.4827   -1.9793 O   0  0  0  0  0  0  0  0  0  0  0  0
  -83.9793   31.0168    1.8140 N   0  0  0  0  0  0  0  0  0  0  0  0
  -83.3383   31.5001    2.4689 H   0  0  0  0  0  0  0  0  0  0  0  0
  -84.5263   31.7551    0.7429 C   0  0  0  0  0  0  0  0  0  0  0  0
  -83.6954   32.5720   -0.0385 C   0  0  0  0  0  0  0  0  0  0  0  0
  -84.3182   33.2527   -1.0596 C   0  0  0  0  0  0  0  0  0  0  0  0
  -85.6651   33.1711   -1.3373 C   0  0  0  0  0  0  0  0  0  0  0  0
  -86.2706   33.8601   -2.3638 O   0  0  0  0  0  0  0  0  0  0  0  0
  -87.5569   33.5653   -2.8768 C   0  0  0  0  0  0  0  0  0  0  0  0
  -88.1752   34.9147   -3.2614 C   0  0  0  0  0  0  0  0  0  0  0  0
  -87.4054   32.7003   -4.0878 C   0  0  0  0  0  0  0  0  0  0  0  0
  -88.3904   32.9483   -1.8269 C   0  0  0  0  0  0  0  0  0  0  0  0
  -89.6599   33.0516   -1.8380 O   0  0  0  0  0  0  0  0  0  0  0  0
  -87.8297   32.2076   -0.7488 N   0  0  0  0  0  0  0  0  0  0  0  0
  -86.4321   32.3463   -0.5282 C   0  0  0  0  0  0  0  0  0  0  0  0
  -85.8446   31.6716    0.4757 N   0  0  0  0  0  0  0  0  0  0  0  0
  -88.3748   31.5853   -0.1288 H   0  0  0  0  0  0  0  0  0  0  0  0
 17 18  1  0  0  0
 18 10  1  0  0  0
 10 11  2  0  0  0
 11 12  1  0  0  0
 12  8  1  0  0  0
  8  1  1  0  0  0
  1  2  2  0  0  0
  2  3  1  0  0  0
  3  4  2  0  0  0
  4  5  1  0  0  0
  4  6  1  0  0  0
  6 19  1  0  0  0
 19 21  1  0  0  0
 21 22  2  0  0  0
 22 23  1  0  0  0
 23 24  2  0  0  0
 24 25  1  0  0  0
 25 26  1  0  0  0
 26 27  1  0  0  0
 26 28  1  0  0  0
 26 29  1  0  0  0
 29 30  2  0  0  0
 29 31  1  0  0  0
 31 32  1  0  0  0
 32 33  2  0  0  0
  6  7  2  0  0  0
 12 13  2  0  0  0
 13 14  1  0  0  0
 14 15  2  0  0  0
 15 16  1  0  0  0
 15 10  1  0  0  0
  7  1  1  0  0  0
 33 21  1  0  0  0
 32 24  1  0  0  0
  8  9  1  0  0  0
 19 20  1  0  0  0
 31 34  1  0  0  0
M  END
> <minimizedAffinity>
-9.40138

> <CNNscore>
0.4039458930

> <CNNaffinity>
7.2295508385

> <CNN_VS>
2.9203474522

> <CNNaffinity_variance>
0.3957283795

$$$$
[H]c1nc(N([H])c2c([H])c([H])c(Cl)c(OC([H])([H])[H])c2[H])nc(N([H])c2nc3c(c([H])c2[H])OC(C([H])([H])[H])(C([H])([H])[H])C(=O)N3[H])c1F


 34 37  0  0  0  0  0  0  0  0999 V2000
  -85.9120   28.9989    0.5402 C   0  0  0  0  0  0  0  0  0  0  0  0
  -84.8369   28.7729    1.2993 N   0  0  0  0  0  0  0  0  0  0  0  0
  -83.9592   29.7122    1.6853 C   0  0  0  0  0  0  0  0  0  0  0  0
  -84.1307   31.0237    1.2988 C   0  0  0  0  0  0  0  0  0  0  0  0
  -83.2565   31.9750    1.6798 F   0  0  0  0  0  0  0  0  0  0  0  0
  -85.2457   31.2955    0.5037 C   0  0  0  0  0  0  0  0  0  0  0  0
  -86.0696   30.3047    0.1642 N   0  0  0  0  0  0  0  0  0  0  0  0
  -86.8290   28.0176    0.1369 N   0  0  0  0  0  0  0  0  0  0  0  0
  -86.7828   27.8122   -0.9348 H   0  0  0  0  0  0  0  0  0  0  0  0
  -89.3996   25.5832    1.3111 C   0  0  0  0  0  0  0  0  0  0  0  0
  -88.4657   26.2321    0.4768 C   0  0  0  0  0  0  0  0  0  0  0  0
  -87.7563   27.3054    0.9028 C   0  0  0  0  0  0  0  0  0  0  0  0
  -87.9880   27.7474    2.2133 C   0  0  0  0  0  0  0  0  0  0  0  0
  -88.9003   27.1089    3.0208 C   0  0  0  0  0  0  0  0  0  0  0  0
  -89.6224   26.0203    2.5921 C   0  0  0  0  0  0  0  0  0  0  0  0
  -90.7787   25.2157    3.6221 Cl  0  0  0  0  0  0  0  0  0  0  0  0
  -89.6728   23.8245   -0.3088 C   0  0  0  0  0  0  0  0  0  0  0  0
  -90.0990   24.4982    0.8404 O   0  0  0  0  0  0  0  0  0  0  0  0
  -85.4348   32.6364    0.0994 N   0  0  0  0  0  0  0  0  0  0  0  0
  -84.8267   33.3923    0.4630 H   0  0  0  0  0  0  0  0  0  0  0  0
  -86.4583   32.9775   -0.8104 C   0  0  0  0  0  0  0  0  0  0  0  0
  -87.7747   32.5560   -0.5707 C   0  0  0  0  0  0  0  0  0  0  0  0
  -88.7034   32.9365   -1.5124 C   0  0  0  0  0  0  0  0  0  0  0  0
  -88.4102   33.6819   -2.6333 C   0  0  0  0  0  0  0  0  0  0  0  0
  -89.3533   34.0531   -3.5648 O   0  0  0  0  0  0  0  0  0  0  0  0
  -89.1640   35.0657   -4.5363 C   0  0  0  0  0  0  0  0  0  0  0  0
  -89.9160   34.5942   -5.7866 C   0  0  0  0  0  0  0  0  0  0  0  0
  -89.7566   36.3403   -4.0246 C   0  0  0  0  0  0  0  0  0  0  0  0
  -87.7310   35.1869   -4.8672 C   0  0  0  0  0  0  0  0  0  0  0  0
  -87.3437   35.6127   -6.0034 O   0  0  0  0  0  0  0  0  0  0  0  0
  -86.7056   34.8381   -3.9440 N   0  0  0  0  0  0  0  0  0  0  0  0
  -87.0902   34.0675   -2.8128 C   0  0  0  0  0  0  0  0  0  0  0  0
  -86.1659   33.7069   -1.9053 N   0  0  0  0  0  0  0  0  0  0  0  0
  -85.7140   35.1102   -4.0503 H   0  0  0  0  0  0  0  0  0  0  0  0
 17 18  1  0  0  0
 18 10  1  0  0  0
 10 11  2  0  0  0
 11 12  1  0  0  0
 12  8  1  0  0  0
  8  1  1  0  0  0
  1  2  2  0  0  0
  2  3  1  0  0  0
  3  4  2  0  0  0
  4  5  1  0  0  0
  4  6  1  0  0  0
  6 19  1  0  0  0
 19 21  1  0  0  0
 21 22  2  0  0  0
 22 23  1  0  0  0
 23 24  2  0  0  0
 24 25  1  0  0  0
 25 26  1  0  0  0
 26 27  1  0  0  0
 26 28  1  0  0  0
 26 29  1  0  0  0
 29 30  2  0  0  0
 29 31  1  0  0  0
 31 32  1  0  0  0
 32 33  2  0  0  0
  6  7  2  0  0  0
 12 13  2  0  0  0
 13 14  1  0  0  0
 14 15  2  0  0  0
 15 16  1  0  0  0
 15 10  1  0  0  0
  7  1  1  0  0  0
 33 21  1  0  0  0
 32 24  1  0  0  0
  8  9  1  0  0  0
 19 20  1  0  0  0
 31 34  1  0  0  0
M  END
> <minimizedAffinity>
-9.20450

> <CNNscore>
0.3887111247

> <CNNaffinity>
7.1745963097

> <CNN_VS>
2.7888453007

> <CNNaffinity_variance>
0.2445241958

$$$$
[H]c1nc(N([H])c2c([H])c([H])c(Cl)c(OC([H])([H])[H])c2[H])nc(N([H])c2nc3c(c([H])c2[H])OC(C([H])([H])[H])(C([H])([H])[H])C(=O)N3[H])c1F


 34 37  0  0  0  0  0  0  0  0999 V2000
  -84.6910   32.5987   -0.1559 C   0  0  0  0  0  0  0  0  0  0  0  0
  -83.3712   32.4780   -0.3197 N   0  0  0  0  0  0  0  0  0  0  0  0
  -82.6117   31.5271    0.2465 C   0  0  0  0  0  0  0  0  0  0  0  0
  -83.1831   30.5790    1.0671 C   0  0  0  0  0  0  0  0  0  0  0  0
  -82.4312   29.6200    1.6409 F   0  0  0  0  0  0  0  0  0  0  0  0
  -84.5625   30.6758    1.2602 C   0  0  0  0  0  0  0  0  0  0  0  0
  -85.2445   31.6511    0.6607 N   0  0  0  0  0  0  0  0  0  0  0  0
  -85.4844   33.5922   -0.7475 N   0  0  0  0  0  0  0  0  0  0  0  0
  -85.1427   34.6019   -0.5097 H   0  0  0  0  0  0  0  0  0  0  0  0
  -87.8531   33.6128   -3.6288 C   0  0  0  0  0  0  0  0  0  0  0  0
  -86.6657   33.7622   -2.8824 C   0  0  0  0  0  0  0  0  0  0  0  0
  -86.6109   33.4550   -1.5636 C   0  0  0  0  0  0  0  0  0  0  0  0
  -87.7875   32.9795   -0.9670 C   0  0  0  0  0  0  0  0  0  0  0  0
  -88.9414   32.8364   -1.7019 C   0  0  0  0  0  0  0  0  0  0  0  0
  -89.0012   33.1475   -3.0398 C   0  0  0  0  0  0  0  0  0  0  0  0
  -90.4691   32.9639   -3.9656 Cl  0  0  0  0  0  0  0  0  0  0  0  0
  -87.9054   35.2742   -5.3691 C   0  0  0  0  0  0  0  0  0  0  0  0
  -87.8666   33.9361   -4.9642 O   0  0  0  0  0  0  0  0  0  0  0  0
  -85.1628   29.7101    2.0995 N   0  0  0  0  0  0  0  0  0  0  0  0
  -85.0079   29.7257    3.1238 H   0  0  0  0  0  0  0  0  0  0  0  0
  -85.9887   28.7004    1.5609 C   0  0  0  0  0  0  0  0  0  0  0  0
  -85.9573   27.4081    2.1060 C   0  0  0  0  0  0  0  0  0  0  0  0
  -86.7969   26.4914    1.5153 C   0  0  0  0  0  0  0  0  0  0  0  0
  -87.6320   26.7745    0.4569 C   0  0  0  0  0  0  0  0  0  0  0  0
  -88.4654   25.8436   -0.1212 O   0  0  0  0  0  0  0  0  0  0  0  0
  -89.5491   26.1603   -0.9757 C   0  0  0  0  0  0  0  0  0  0  0  0
  -89.6089   25.0331   -2.0136 C   0  0  0  0  0  0  0  0  0  0  0  0
  -90.8073   26.1879   -0.1671 C   0  0  0  0  0  0  0  0  0  0  0  0
  -89.2850   27.4316   -1.6768 C   0  0  0  0  0  0  0  0  0  0  0  0
  -89.7979   27.6833   -2.8152 O   0  0  0  0  0  0  0  0  0  0  0  0
  -88.4486   28.4433   -1.1270 N   0  0  0  0  0  0  0  0  0  0  0  0
  -87.6164   28.0706   -0.0362 C   0  0  0  0  0  0  0  0  0  0  0  0
  -86.8038   28.9828    0.5255 N   0  0  0  0  0  0  0  0  0  0  0  0
  -88.4146   29.4171   -1.4724 H   0  0  0  0  0  0  0  0  0  0  0  0
 17 18  1  0  0  0
 18 10  1  0  0  0
 10 11  2  0  0  0
 11 12  1  0  0  0
 12  8  1  0  0  0
  8  1  1  0  0  0
  1  2  2  0  0  0
  2  3  1  0  0  0
  3  4  2  0  0  0
  4  5  1  0  0  0
  4  6  1  0  0  0
  6 19  1  0  0  0
 19 21  1  0  0  0
 21 22  2  0  0  0
 22 23  1  0  0  0
 23 24  2  0  0  0
 24 25  1  0  0  0
 25 26  1  0  0  0
 26 27  1  0  0  0
 26 28  1  0  0  0
 26 29  1  0  0  0
 29 30  2  0  0  0
 29 31  1  0  0  0
 31 32  1  0  0  0
 32 33  2  0  0  0
  6  7  2  0  0  0
 12 13  2  0  0  0
 13 14  1  0  0  0
 14 15  2  0  0  0
 15 16  1  0  0  0
 15 10  1  0  0  0
  7  1  1  0  0  0
 33 21  1  0  0  0
 32 24  1  0  0  0
  8  9  1  0  0  0
 19 20  1  0  0  0
 31 34  1  0  0  0
M  END
> <minimizedAffinity>
-9.38187

> <CNNscore>
0.3196870685

> <CNNaffinity>
7.2117853165

> <CNN_VS>
2.3055145741

> <CNNaffinity_variance>
0.0807453245

$$$$
[H]c1nc(N([H])c2c([H])c([H])c(Cl)c(OC([H])([H])[H])c2[H])nc(N([H])c2nc3c(c([H])c2[H])OC(C([H])([H])[H])(C([H])([H])[H])C(=O)N3[H])c1F


 34 37  0  0  0  0  0  0  0  0999 V2000
  -84.8189   32.2107    0.3394 C   0  0  0  0  0  0  0  0  0  0  0  0
  -83.4901   32.3389    0.3723 N   0  0  0  0  0  0  0  0  0  0  0  0
  -82.6424   31.4188    0.8586 C   0  0  0  0  0  0  0  0  0  0  0  0
  -83.1235   30.2353    1.3750 C   0  0  0  0  0  0  0  0  0  0  0  0
  -82.2827   29.3046    1.8659 F   0  0  0  0  0  0  0  0  0  0  0  0
  -84.5096   30.0682    1.3562 C   0  0  0  0  0  0  0  0  0  0  0  0
  -85.2821   31.0314    0.8551 N   0  0  0  0  0  0  0  0  0  0  0  0
  -85.7045   33.1720   -0.1687 N   0  0  0  0  0  0  0  0  0  0  0  0
  -85.5749   34.1520    0.2958 H   0  0  0  0  0  0  0  0  0  0  0  0
  -88.8530   32.3830   -2.0064 C   0  0  0  0  0  0  0  0  0  0  0  0
  -87.9224   32.5033   -0.9534 C   0  0  0  0  0  0  0  0  0  0  0  0
  -86.6913   33.0350   -1.1491 C   0  0  0  0  0  0  0  0  0  0  0  0
  -86.3774   33.4639   -2.4467 C   0  0  0  0  0  0  0  0  0  0  0  0
  -87.2906   33.3433   -3.4683 C   0  0  0  0  0  0  0  0  0  0  0  0
  -88.5403   32.8040   -3.2740 C   0  0  0  0  0  0  0  0  0  0  0  0
  -89.6934   32.6536   -4.5751 Cl  0  0  0  0  0  0  0  0  0  0  0  0
  -90.2458   30.4519   -1.6565 C   0  0  0  0  0  0  0  0  0  0  0  0
  -90.0909   31.8376   -1.7661 O   0  0  0  0  0  0  0  0  0  0  0  0
  -85.0179   28.8592    1.8826 N   0  0  0  0  0  0  0  0  0  0  0  0
  -84.5663   28.4012    2.6948 H   0  0  0  0  0  0  0  0  0  0  0  0
  -86.1545   28.2465    1.3130 C   0  0  0  0  0  0  0  0  0  0  0  0
  -86.5073   28.5276   -0.0155 C   0  0  0  0  0  0  0  0  0  0  0  0
  -87.6299   27.8834   -0.4832 C   0  0  0  0  0  0  0  0  0  0  0  0
  -88.3909   27.0111    0.2636 C   0  0  0  0  0  0  0  0  0  0  0  0
  -89.5115   26.3758   -0.2219 O   0  0  0  0  0  0  0  0  0  0  0  0
  -90.1223   25.2528    0.3869 C   0  0  0  0  0  0  0  0  0  0  0  0
  -91.6289   25.4153    0.1521 C   0  0  0  0  0  0  0  0  0  0  0  0
  -89.6239   24.0117   -0.2832 C   0  0  0  0  0  0  0  0  0  0  0  0
  -89.8688   25.2658    1.8406 C   0  0  0  0  0  0  0  0  0  0  0  0
  -90.6724   24.7159    2.6616 O   0  0  0  0  0  0  0  0  0  0  0  0
  -88.7210   25.8885    2.4064 N   0  0  0  0  0  0  0  0  0  0  0  0
  -87.9893   26.7753    1.5699 C   0  0  0  0  0  0  0  0  0  0  0  0
  -86.8954   27.3940    2.0481 N   0  0  0  0  0  0  0  0  0  0  0  0
  -88.3968   25.7331    3.3756 H   0  0  0  0  0  0  0  0  0  0  0  0
 17 18  1  0  0  0
 18 10  1  0  0  0
 10 11  2  0  0  0
 11 12  1  0  0  0
 12  8  1  0  0  0
  8  1  1  0  0  0
  1  2  2  0  0  0
  2  3  1  0  0  0
  3  4  2  0  0  0
  4  5  1  0  0  0
  4  6  1  0  0  0
  6 19  1  0  0  0
 19 21  1  0  0  0
 21 22  2  0  0  0
 22 23  1  0  0  0
 23 24  2  0  0  0
 24 25  1  0  0  0
 25 26  1  0  0  0
 26 27  1  0  0  0
 26 28  1  0  0  0
 26 29  1  0  0  0
 29 30  2  0  0  0
 29 31  1  0  0  0
 31 32  1  0  0  0
 32 33  2  0  0  0
  6  7  2  0  0  0
 12 13  2  0  0  0
 13 14  1  0  0  0
 14 15  2  0  0  0
 15 16  1  0  0  0
 15 10  1  0  0  0
  7  1  1  0  0  0
 33 21  1  0  0  0
 32 24  1  0  0  0
  8  9  1  0  0  0
 19 20  1  0  0  0
 31 34  1  0  0  0
M  END
> <minimizedAffinity>
-9.22141

> <CNNscore>
0.2583047450

> <CNNaffinity>
7.2281279564

> <CNN_VS>
1.8670597076

> <CNNaffinity_variance>
0.2342722118

$$$$
[H]c1nc(N([H])c2c([H])c([H])c(Cl)c(OC([H])([H])[H])c2[H])nc(N([H])c2nc3c(c([H])c2[H])OC(C([H])([H])[H])(C([H])([H])[H])C(=O)N3[H])c1F


 34 37  0  0  0  0  0  0  0  0999 V2000
  -84.7821   32.7711   -0.2850 C   0  0  0  0  0  0  0  0  0  0  0  0
  -83.4625   32.6983   -0.4758 N   0  0  0  0  0  0  0  0  0  0  0  0
  -82.6419   31.8446    0.1562 C   0  0  0  0  0  0  0  0  0  0  0  0
  -83.1439   30.9546    1.0808 C   0  0  0  0  0  0  0  0  0  0  0  0
  -82.3303   30.0932    1.7213 F   0  0  0  0  0  0  0  0  0  0  0  0
  -84.5211   31.0036    1.3049 C   0  0  0  0  0  0  0  0  0  0  0  0
  -85.2663   31.8822    0.6351 N   0  0  0  0  0  0  0  0  0  0  0  0
  -85.6394   33.6631   -0.9452 N   0  0  0  0  0  0  0  0  0  0  0  0
  -85.5344   34.6904   -0.5893 H   0  0  0  0  0  0  0  0  0  0  0  0
  -88.1115   32.0488   -3.2246 C   0  0  0  0  0  0  0  0  0  0  0  0
  -87.1956   32.2248   -2.1665 C   0  0  0  0  0  0  0  0  0  0  0  0
  -86.5729   33.4096   -1.9542 C   0  0  0  0  0  0  0  0  0  0  0  0
  -86.8772   34.4598   -2.8321 C   0  0  0  0  0  0  0  0  0  0  0  0
  -87.7718   34.2802   -3.8615 C   0  0  0  0  0  0  0  0  0  0  0  0
  -88.4051   33.0797   -4.0806 C   0  0  0  0  0  0  0  0  0  0  0  0
  -89.5385   32.8591   -5.3890 Cl  0  0  0  0  0  0  0  0  0  0  0  0
  -88.0130   29.6445   -3.1889 C   0  0  0  0  0  0  0  0  0  0  0  0
  -88.7212   30.8309   -3.4058 O   0  0  0  0  0  0  0  0  0  0  0  0
  -85.0506   30.0967    2.2506 N   0  0  0  0  0  0  0  0  0  0  0  0
  -84.9168   30.2493    3.2666 H   0  0  0  0  0  0  0  0  0  0  0  0
  -85.7751   28.9601    1.8322 C   0  0  0  0  0  0  0  0  0  0  0  0
  -85.2800   27.6765    2.1069 C   0  0  0  0  0  0  0  0  0  0  0  0
  -86.0551   26.6305    1.6604 C   0  0  0  0  0  0  0  0  0  0  0  0
  -87.2457   26.7814    0.9841 C   0  0  0  0  0  0  0  0  0  0  0  0
  -88.0077   25.7223    0.5450 O   0  0  0  0  0  0  0  0  0  0  0  0
  -89.3616   25.8222    0.1430 C   0  0  0  0  0  0  0  0  0  0  0  0
  -89.5349   24.8177   -1.0025 C   0  0  0  0  0  0  0  0  0  0  0  0
  -90.2354   25.4476    1.2979 C   0  0  0  0  0  0  0  0  0  0  0  0
  -89.6367   27.1768   -0.3738 C   0  0  0  0  0  0  0  0  0  0  0  0
  -90.5542   27.3887   -1.2314 O   0  0  0  0  0  0  0  0  0  0  0  0
  -88.8991   28.3169    0.0520 N   0  0  0  0  0  0  0  0  0  0  0  0
  -87.6806   28.0762    0.7438 C   0  0  0  0  0  0  0  0  0  0  0  0
  -86.9393   29.1135    1.1710 N   0  0  0  0  0  0  0  0  0  0  0  0
  -89.1968   29.2932   -0.1121 H   0  0  0  0  0  0  0  0  0  0  0  0
 17 18  1  0  0  0
 18 10  1  0  0  0
 10 11  2  0  0  0
 11 12  1  0  0  0
 12  8  1  0  0  0
  8  1  1  0  0  0
  1  2  2  0  0  0
  2  3  1  0  0  0
  3  4  2  0  0  0
  4  5  1  0  0  0
  4  6  1  0  0  0
  6 19  1  0  0  0
 19 21  1  0  0  0
 21 22  2  0  0  0
 22 23  1  0  0  0
 23 24  2  0  0  0
 24 25  1  0  0  0
 25 26  1  0  0  0
 26 27  1  0  0  0
 26 28  1  0  0  0
 26 29  1  0  0  0
 29 30  2  0  0  0
 29 31  1  0  0  0
 31 32  1  0  0  0
 32 33  2  0  0  0
  6  7  2  0  0  0
 12 13  2  0  0  0
 13 14  1  0  0  0
 14 15  2  0  0  0
 15 16  1  0  0  0
 15 10  1  0  0  0
  7  1  1  0  0  0
 33 21  1  0  0  0
 32 24  1  0  0  0
  8  9  1  0  0  0
 19 20  1  0  0  0
 31 34  1  0  0  0
M  END
> <minimizedAffinity>
-9.02129

> <CNNscore>
0.2573709190

> <CNNaffinity>
7.1187734604

> <CNN_VS>
1.8321652412

> <CNNaffinity_variance>
0.1785392910

$$$$
[H]c1nc(N([H])c2c([H])c([H])c(Cl)c(OC([H])([H])[H])c2[H])nc(N([H])c2nc3c(c([H])c2[H])OC(C([H])([H])[H])(C([H])([H])[H])C(=O)N3[H])c1F


 34 37  0  0  0  0  0  0  0  0999 V2000
  -85.4751   27.4933    2.0246 C   0  0  0  0  0  0  0  0  0  0  0  0
  -84.2286   27.2012    2.4042 N   0  0  0  0  0  0  0  0  0  0  0  0
  -83.2010   28.0646    2.3928 C   0  0  0  0  0  0  0  0  0  0  0  0
  -83.3884   29.3619    1.9676 C   0  0  0  0  0  0  0  0  0  0  0  0
  -82.3648   30.2372    1.9516 F   0  0  0  0  0  0  0  0  0  0  0  0
  -84.6809   29.7016    1.5633 C   0  0  0  0  0  0  0  0  0  0  0  0
  -85.6464   28.7841    1.6052 N   0  0  0  0  0  0  0  0  0  0  0  0
  -86.5487   26.5913    2.0365 N   0  0  0  0  0  0  0  0  0  0  0  0
  -86.3286   25.6812    2.5988 H   0  0  0  0  0  0  0  0  0  0  0  0
  -90.0917   27.4737    1.2739 C   0  0  0  0  0  0  0  0  0  0  0  0
  -88.8444   27.4285    1.9308 C   0  0  0  0  0  0  0  0  0  0  0  0
  -87.8076   26.7067    1.4401 C   0  0  0  0  0  0  0  0  0  0  0  0
  -88.0245   26.0033    0.2466 C   0  0  0  0  0  0  0  0  0  0  0  0
  -89.2438   26.0527   -0.3881 C   0  0  0  0  0  0  0  0  0  0  0  0
  -90.2982   26.7833    0.1067 C   0  0  0  0  0  0  0  0  0  0  0  0
  -91.8426   26.8407   -0.7038 Cl  0  0  0  0  0  0  0  0  0  0  0  0
  -91.1042   28.5811    3.1555 C   0  0  0  0  0  0  0  0  0  0  0  0
  -91.1177   28.2174    1.8050 O   0  0  0  0  0  0  0  0  0  0  0  0
  -84.8886   31.0288    1.1245 N   0  0  0  0  0  0  0  0  0  0  0  0
  -84.3747   31.8182    1.5559 H   0  0  0  0  0  0  0  0  0  0  0  0
  -85.8026   31.3102    0.0867 C   0  0  0  0  0  0  0  0  0  0  0  0
  -86.8661   30.4303   -0.1649 C   0  0  0  0  0  0  0  0  0  0  0  0
  -87.7048   30.7881   -1.1957 C   0  0  0  0  0  0  0  0  0  0  0  0
  -87.5530   31.9243   -1.9598 C   0  0  0  0  0  0  0  0  0  0  0  0
  -88.4027   32.2658   -2.9877 O   0  0  0  0  0  0  0  0  0  0  0  0
  -88.4744   33.5529   -3.5733 C   0  0  0  0  0  0  0  0  0  0  0  0
  -88.7676   33.3219   -5.0606 C   0  0  0  0  0  0  0  0  0  0  0  0
  -89.5956   34.3102   -2.9353 C   0  0  0  0  0  0  0  0  0  0  0  0
  -87.1724   34.2367   -3.4514 C   0  0  0  0  0  0  0  0  0  0  0  0
  -86.8070   35.1268   -4.2860 O   0  0  0  0  0  0  0  0  0  0  0  0
  -86.2558   33.9446   -2.4027 N   0  0  0  0  0  0  0  0  0  0  0  0
  -86.4819   32.7530   -1.6609 C   0  0  0  0  0  0  0  0  0  0  0  0
  -85.6495   32.4231   -0.6578 N   0  0  0  0  0  0  0  0  0  0  0  0
  -85.4488   34.5419   -2.1562 H   0  0  0  0  0  0  0  0  0  0  0  0
 17 18  1  0  0  0
 18 10  1  0  0  0
 10 11  2  0  0  0
 11 12  1  0  0  0
 12  8  1  0  0  0
  8  1  1  0  0  0
  1  2  2  0  0  0
  2  3  1  0  0  0
  3  4  2  0  0  0
  4  5  1  0  0  0
  4  6  1  0  0  0
  6 19  1  0  0  0
 19 21  1  0  0  0
 21 22  2  0  0  0
 22 23  1  0  0  0
 23 24  2  0  0  0
 24 25  1  0  0  0
 25 26  1  0  0  0
 26 27  1  0  0  0
 26 28  1  0  0  0
 26 29  1  0  0  0
 29 30  2  0  0  0
 29 31  1  0  0  0
 31 32  1  0  0  0
 32 33  2  0  0  0
  6  7  2  0  0  0
 12 13  2  0  0  0
 13 14  1  0  0  0
 14 15  2  0  0  0
 15 16  1  0  0  0
 15 10  1  0  0  0
  7  1  1  0  0  0
 33 21  1  0  0  0
 32 24  1  0  0  0
  8  9  1  0  0  0
 19 20  1  0  0  0
 31 34  1  0  0  0
M  END
> <minimizedAffinity>
-9.36880

> <CNNscore>
0.2288554162

> <CNNaffinity>
7.1657457352

> <CNN_VS>
1.6399197578

> <CNNaffinity_variance>
0.1815355718

$$$$
[H]c1nc(N([H])c2c([H])c([H])c(Cl)c(OC([H])([H])[H])c2[H])nc(N([H])c2nc3c(c([H])c2[H])OC(C([H])([H])[H])(C([H])([H])[H])C(=O)N3[H])c1F


 34 37  0  0  0  0  0  0  0  0999 V2000
  -86.5324   33.7589   -2.1736 C   0  0  0  0  0  0  0  0  0  0  0  0
  -87.0118   34.8265   -2.8166 N   0  0  0  0  0  0  0  0  0  0  0  0
  -87.7701   34.7791   -3.9231 C   0  0  0  0  0  0  0  0  0  0  0  0
  -88.1100   33.5656   -4.4807 C   0  0  0  0  0  0  0  0  0  0  0  0
  -88.8702   33.5054   -5.5909 F   0  0  0  0  0  0  0  0  0  0  0  0
  -87.6250   32.4277   -3.8331 C   0  0  0  0  0  0  0  0  0  0  0  0
  -86.8776   32.5616   -2.7380 N   0  0  0  0  0  0  0  0  0  0  0  0
  -85.7402   33.8085   -1.0175 N   0  0  0  0  0  0  0  0  0  0  0  0
  -85.6469   34.8189   -0.6133 H   0  0  0  0  0  0  0  0  0  0  0  0
  -84.9348   30.8234    1.0691 C   0  0  0  0  0  0  0  0  0  0  0  0
  -85.6796   31.8256    0.4131 C   0  0  0  0  0  0  0  0  0  0  0  0
  -85.0813   32.7711   -0.3516 C   0  0  0  0  0  0  0  0  0  0  0  0
  -83.6850   32.7131   -0.4665 C   0  0  0  0  0  0  0  0  0  0  0  0
  -82.9658   31.7323    0.1761 C   0  0  0  0  0  0  0  0  0  0  0  0
  -83.5689   30.7718    0.9533 C   0  0  0  0  0  0  0  0  0  0  0  0
  -82.6498   29.5309    1.7661 Cl  0  0  0  0  0  0  0  0  0  0  0  0
  -86.1598   28.7590    1.2393 C   0  0  0  0  0  0  0  0  0  0  0  0
  -85.5800   29.8834    1.8357 O   0  0  0  0  0  0  0  0  0  0  0  0
  -87.9654   31.1758   -4.3934 N   0  0  0  0  0  0  0  0  0  0  0  0
  -87.7222   30.9484   -5.3745 H   0  0  0  0  0  0  0  0  0  0  0  0
  -88.6456   30.2045   -3.6281 C   0  0  0  0  0  0  0  0  0  0  0  0
  -90.0413   30.2682   -3.5002 C   0  0  0  0  0  0  0  0  0  0  0  0
  -90.6156   29.2787   -2.7354 C   0  0  0  0  0  0  0  0  0  0  0  0
  -89.9107   28.2703   -2.1157 C   0  0  0  0  0  0  0  0  0  0  0  0
  -90.5031   27.2886   -1.3540 O   0  0  0  0  0  0  0  0  0  0  0  0
  -89.8725   26.0786   -0.9758 C   0  0  0  0  0  0  0  0  0  0  0  0
  -90.3957   25.7532    0.4284 C   0  0  0  0  0  0  0  0  0  0  0  0
  -90.2716   25.0062   -1.9393 C   0  0  0  0  0  0  0  0  0  0  0  0
  -88.4115   26.2724   -0.9000 C   0  0  0  0  0  0  0  0  0  0  0  0
  -87.6845   25.5622   -0.1324 O   0  0  0  0  0  0  0  0  0  0  0  0
  -87.7343   27.2563   -1.6737 N   0  0  0  0  0  0  0  0  0  0  0  0
  -88.5337   28.2630   -2.2809 C   0  0  0  0  0  0  0  0  0  0  0  0
  -87.9510   29.2203   -3.0240 N   0  0  0  0  0  0  0  0  0  0  0  0
  -86.7104   27.2775   -1.8152 H   0  0  0  0  0  0  0  0  0  0  0  0
 17 18  1  0  0  0
 18 10  1  0  0  0
 10 11  2  0  0  0
 11 12  1  0  0  0
 12  8  1  0  0  0
  8  1  1  0  0  0
  1  2  2  0  0  0
  2  3  1  0  0  0
  3  4  2  0  0  0
  4  5  1  0  0  0
  4  6  1  0  0  0
  6 19  1  0  0  0
 19 21  1  0  0  0
 21 22  2  0  0  0
 22 23  1  0  0  0
 23 24  2  0  0  0
 24 25  1  0  0  0
 25 26  1  0  0  0
 26 27  1  0  0  0
 26 28  1  0  0  0
 26 29  1  0  0  0
 29 30  2  0  0  0
 29 31  1  0  0  0
 31 32  1  0  0  0
 32 33  2  0  0  0
  6  7  2  0  0  0
 12 13  2  0  0  0
 13 14  1  0  0  0
 14 15  2  0  0  0
 15 16  1  0  0  0
 15 10  1  0  0  0
  7  1  1  0  0  0
 33 21  1  0  0  0
 32 24  1  0  0  0
  8  9  1  0  0  0
 19 20  1  0  0  0
 31 34  1  0  0  0
M  END
> <minimizedAffinity>
-9.22756

> <CNNscore>
0.1824571937

> <CNNaffinity>
6.3981728554

> <CNN_VS>
1.1673926115

> <CNNaffinity_variance>
0.5930640101

$$$$
[H]c1nc(N([H])c2c([H])c([H])c(Cl)c(OC([H])([H])[H])c2[H])nc(N([H])c2nc3c(c([H])c2[H])OC(C([H])([H])[H])(C([H])([H])[H])C(=O)N3[H])c1F


 34 37  0  0  0  0  0  0  0  0999 V2000
  -86.4310   33.3003   -1.8140 C   0  0  0  0  0  0  0  0  0  0  0  0
  -86.6024   34.3362   -2.6390 N   0  0  0  0  0  0  0  0  0  0  0  0
  -87.3231   34.3044   -3.7709 C   0  0  0  0  0  0  0  0  0  0  0  0
  -87.9548   33.1431   -4.1597 C   0  0  0  0  0  0  0  0  0  0  0  0
  -88.6806   33.0990   -5.2935 F   0  0  0  0  0  0  0  0  0  0  0  0
  -87.7964   32.0394   -3.3192 C   0  0  0  0  0  0  0  0  0  0  0  0
  -87.0636   32.1547   -2.2123 N   0  0  0  0  0  0  0  0  0  0  0  0
  -85.6781   33.3336   -0.6315 N   0  0  0  0  0  0  0  0  0  0  0  0
  -85.6352   34.3303   -0.1868 H   0  0  0  0  0  0  0  0  0  0  0  0
  -84.8150   30.3651    1.4557 C   0  0  0  0  0  0  0  0  0  0  0  0
  -85.5764   31.3694    0.8223 C   0  0  0  0  0  0  0  0  0  0  0  0
  -85.0025   32.2956    0.0165 C   0  0  0  0  0  0  0  0  0  0  0  0
  -83.6143   32.2155   -0.1646 C   0  0  0  0  0  0  0  0  0  0  0  0
  -82.8788   31.2329    0.4564 C   0  0  0  0  0  0  0  0  0  0  0  0
  -83.4572   30.2918    1.2751 C   0  0  0  0  0  0  0  0  0  0  0  0
  -82.5175   29.0484    2.0601 Cl  0  0  0  0  0  0  0  0  0  0  0  0
  -86.1792   28.3989    1.7097 C   0  0  0  0  0  0  0  0  0  0  0  0
  -85.4356   29.4450    2.2656 O   0  0  0  0  0  0  0  0  0  0  0  0
  -88.4386   30.8411   -3.7049 N   0  0  0  0  0  0  0  0  0  0  0  0
  -88.6064   30.6254   -4.7042 H   0  0  0  0  0  0  0  0  0  0  0  0
  -88.8671   29.9088   -2.7359 C   0  0  0  0  0  0  0  0  0  0  0  0
  -89.2153   30.3484   -1.4499 C   0  0  0  0  0  0  0  0  0  0  0  0
  -89.6210   29.3674   -0.5741 C   0  0  0  0  0  0  0  0  0  0  0  0
  -89.6973   28.0288   -0.8905 C   0  0  0  0  0  0  0  0  0  0  0  0
  -90.1057   27.0614   -0.0003 O   0  0  0  0  0  0  0  0  0  0  0  0
  -90.5001   25.7517   -0.3662 C   0  0  0  0  0  0  0  0  0  0  0  0
  -90.0217   24.8368    0.7675 C   0  0  0  0  0  0  0  0  0  0  0  0
  -91.9917   25.7102   -0.4717 C   0  0  0  0  0  0  0  0  0  0  0  0
  -89.8215   25.3494   -1.6133 C   0  0  0  0  0  0  0  0  0  0  0  0
  -89.5888   24.1259   -1.8799 O   0  0  0  0  0  0  0  0  0  0  0  0
  -89.3905   26.2970   -2.5837 N   0  0  0  0  0  0  0  0  0  0  0  0
  -89.3394   27.6587   -2.1783 C   0  0  0  0  0  0  0  0  0  0  0  0
  -88.9399   28.6005   -3.0509 N   0  0  0  0  0  0  0  0  0  0  0  0
  -89.1174   26.0522   -3.5503 H   0  0  0  0  0  0  0  0  0  0  0  0
 17 18  1  0  0  0
 18 10  1  0  0  0
 10 11  2  0  0  0
 11 12  1  0  0  0
 12  8  1  0  0  0
  8  1  1  0  0  0
  1  2  2  0  0  0
  2  3  1  0  0  0
  3  4  2  0  0  0
  4  5  1  0  0  0
  4  6  1  0  0  0
  6 19  1  0  0  0
 19 21  1  0  0  0
 21 22  2  0  0  0
 22 23  1  0  0  0
 23 24  2  0  0  0
 24 25  1  0  0  0
 25 26  1  0  0  0
 26 27  1  0  0  0
 26 28  1  0  0  0
 26 29  1  0  0  0
 29 30  2  0  0  0
 29 31  1  0  0  0
 31 32  1  0  0  0
 32 33  2  0  0  0
  6  7  2  0  0  0
 12 13  2  0  0  0
 13 14  1  0  0  0
 14 15  2  0  0  0
 15 16  1  0  0  0
 15 10  1  0  0  0
  7  1  1  0  0  0
 33 21  1  0  0  0
 32 24  1  0  0  0
  8  9  1  0  0  0
 19 20  1  0  0  0
 31 34  1  0  0  0
M  END
> <minimizedAffinity>
-9.53160

> <CNNscore>
0.1399258077

> <CNNaffinity>
6.5459074974

> <CNN_VS>
0.9159414172

> <CNNaffinity_variance>
0.3573500514

$$$$
[H]c1nc(N([H])c2c([H])c([H])c(Cl)c(OC([H])([H])[H])c2[H])nc(N([H])c2nc3c(c([H])c2[H])OC(C([H])([H])[H])(C([H])([H])[H])C(=O)N3[H])c1F


 34 37  0  0  0  0  0  0  0  0999 V2000
  -85.4509   27.4680    2.0744 C   0  0  0  0  0  0  0  0  0  0  0  0
  -84.2179   27.1174    2.4485 N   0  0  0  0  0  0  0  0  0  0  0  0
  -83.1509   27.9316    2.4331 C   0  0  0  0  0  0  0  0  0  0  0  0
  -83.2791   29.2365    2.0092 C   0  0  0  0  0  0  0  0  0  0  0  0
  -82.2156   30.0629    1.9893 F   0  0  0  0  0  0  0  0  0  0  0  0
  -84.5559   29.6368    1.6106 C   0  0  0  0  0  0  0  0  0  0  0  0
  -85.5632   28.7656    1.6563 N   0  0  0  0  0  0  0  0  0  0  0  0
  -86.5657   26.6174    2.0905 N   0  0  0  0  0  0  0  0  0  0  0  0
  -86.4102   25.7302    2.7084 H   0  0  0  0  0  0  0  0  0  0  0  0
  -90.1054   27.4292    1.2396 C   0  0  0  0  0  0  0  0  0  0  0  0
  -88.8956   27.3498    1.9604 C   0  0  0  0  0  0  0  0  0  0  0  0
  -87.7943   26.7569    1.4387 C   0  0  0  0  0  0  0  0  0  0  0  0
  -87.9050   26.2233    0.1467 C   0  0  0  0  0  0  0  0  0  0  0  0
  -89.0883   26.3050   -0.5498 C   0  0  0  0  0  0  0  0  0  0  0  0
  -90.2080   26.9051   -0.0239 C   0  0  0  0  0  0  0  0  0  0  0  0
  -91.7061   27.0045   -0.9134 Cl  0  0  0  0  0  0  0  0  0  0  0  0
  -91.1099   28.6207    3.0735 C   0  0  0  0  0  0  0  0  0  0  0  0
  -91.1995   28.0384    1.8050 O   0  0  0  0  0  0  0  0  0  0  0  0
  -84.7029   30.9726    1.1733 N   0  0  0  0  0  0  0  0  0  0  0  0
  -84.0981   31.7250    1.5495 H   0  0  0  0  0  0  0  0  0  0  0  0
  -85.6788   31.3132    0.2124 C   0  0  0  0  0  0  0  0  0  0  0  0
  -85.8949   32.6599   -0.1163 C   0  0  0  0  0  0  0  0  0  0  0  0
  -86.8659   32.8941   -1.0631 C   0  0  0  0  0  0  0  0  0  0  0  0
  -87.6043   31.9063   -1.6770 C   0  0  0  0  0  0  0  0  0  0  0  0
  -88.5722   32.1601   -2.6225 O   0  0  0  0  0  0  0  0  0  0  0  0
  -89.1155   31.1853   -3.4939 C   0  0  0  0  0  0  0  0  0  0  0  0
  -90.5898   31.5634   -3.6801 C   0  0  0  0  0  0  0  0  0  0  0  0
  -88.3934   31.2533   -4.8021 C   0  0  0  0  0  0  0  0  0  0  0  0
  -89.0478   29.8518   -2.8654 C   0  0  0  0  0  0  0  0  0  0  0  0
  -89.8757   28.9316   -3.1653 O   0  0  0  0  0  0  0  0  0  0  0  0
  -88.0616   29.5181   -1.8952 N   0  0  0  0  0  0  0  0  0  0  0  0
  -87.3428   30.5952   -1.3083 C   0  0  0  0  0  0  0  0  0  0  0  0
  -86.3983   30.3429   -0.3851 N   0  0  0  0  0  0  0  0  0  0  0  0
  -87.8440   28.5515   -1.5998 H   0  0  0  0  0  0  0  0  0  0  0  0
 17 18  1  0  0  0
 18 10  1  0  0  0
 10 11  2  0  0  0
 11 12  1  0  0  0
 12  8  1  0  0  0
  8  1  1  0  0  0
  1  2  2  0  0  0
  2  3  1  0  0  0
  3  4  2  0  0  0
  4  5  1  0  0  0
  4  6  1  0  0  0
  6 19  1  0  0  0
 19 21  1  0  0  0
 21 22  2  0  0  0
 22 23  1  0  0  0
 23 24  2  0  0  0
 24 25  1  0  0  0
 25 26  1  0  0  0
 26 27  1  0  0  0
 26 28  1  0  0  0
 26 29  1  0  0  0
 29 30  2  0  0  0
 29 31  1  0  0  0
 31 32  1  0  0  0
 32 33  2  0  0  0
  6  7  2  0  0  0
 12 13  2  0  0  0
 13 14  1  0  0  0
 14 15  2  0  0  0
 15 16  1  0  0  0
 15 10  1  0  0  0
  7  1  1  0  0  0
 33 21  1  0  0  0
 32 24  1  0  0  0
  8  9  1  0  0  0
 19 20  1  0  0  0
 31 34  1  0  0  0
M  END
> <minimizedAffinity>
-9.58590

> <CNNscore>
0.1374687999

> <CNNaffinity>
6.9084444046

> <CNN_VS>
0.9496955872

> <CNNaffinity_variance>
0.1315968931

$$$$
[H]OC([H])([H])[C@]1([H])[C@]([H])(O[H])[C@]([H])(O[H])[C@@]([H])(O[H])[C@]([H])(O[H])[C@@]1([H])O[H]


 19 19  0  0  0  0  0  0  0  0999 V2000
  -83.8676   30.1574    0.7601 C   0  0  0  0  0  0  0  0  0  0  0  0
  -83.5023   29.7088    2.1198 C   0  0  0  0  0  0  0  0  0  0  0  0
  -82.5383   28.6964    2.1051 O   0  0  0  0  0  0  0  0  0  0  0  0
  -84.6569   29.2111    2.9495 C   0  0  0  0  0  0  0  0  0  0  0  0
  -85.4100   30.2374    3.4713 O   0  0  0  0  0  0  0  0  0  0  0  0
  -85.4283   28.1830    2.2007 C   0  0  0  0  0  0  0  0  0  0  0  0
  -84.6634   26.9931    2.2205 O   0  0  0  0  0  0  0  0  0  0  0  0
  -85.7804   28.5190    0.8110 C   0  0  0  0  0  0  0  0  0  0  0  0
  -87.1876   28.6373    0.7183 O   0  0  0  0  0  0  0  0  0  0  0  0
  -85.2073   29.7868    0.2732 C   0  0  0  0  0  0  0  0  0  0  0  0
  -86.1034   30.8664    0.4470 O   0  0  0  0  0  0  0  0  0  0  0  0
  -82.1158   28.5733    2.9743 H   0  0  0  0  0  0  0  0  0  0  0  0
  -86.3534   30.2224    3.2641 H   0  0  0  0  0  0  0  0  0  0  0  0
  -85.0153   26.3899    1.5037 H   0  0  0  0  0  0  0  0  0  0  0  0
  -87.5713   29.1047    1.4752 H   0  0  0  0  0  0  0  0  0  0  0  0
  -86.9297   30.5945   -0.0294 H   0  0  0  0  0  0  0  0  0  0  0  0
  -82.4102   32.0812    0.7912 O   0  0  0  0  0  0  0  0  0  0  0  0
  -83.7168   31.6764    0.6750 C   0  0  0  0  0  0  0  0  0  0  0  0
  -82.1083   32.6329    0.0028 H   0  0  0  0  0  0  0  0  0  0  0  0
 17 18  1  0  0  0
 18  1  1  0  0  0
  1  2  1  0  0  0
  2  3  1  0  0  0
  2  4  1  0  0  0
  4  5  1  0  0  0
  4  6  1  0  0  0
  6  7  1  0  0  0
  6  8  1  0  0  0
  8  9  1  0  0  0
  8 10  1  0  0  0
 10 11  1  0  0  0
 10  1  1  0  0  0
 17 19  1  0  0  0
  3 12  1  0  0  0
  5 13  1  0  0  0
  7 14  1  0  0  0
  9 15  1  0  0  0
 11 16  1  0  0  0
M  END
> <minimizedAffinity>
-5.85628

> <CNNscore>
0.3389791846

> <CNNaffinity>
3.1954352856

> <CNN_VS>
1.0831860304

> <CNNaffinity_variance>
0.4653927386

$$$$
[H]OC([H])([H])[C@]1([H])[C@]([H])(O[H])[C@]([H])(O[H])[C@@]([H])(O[H])[C@]([H])(O[H])[C@@]1([H])O[H]


 19 19  0  0  0  0  0  0  0  0999 V2000
  -89.4631   27.2679    3.6643 C   0  0  0  0  0  0  0  0  0  0  0  0
  -89.1615   26.0002    2.9676 C   0  0  0  0  0  0  0  0  0  0  0  0
  -87.8313   25.9294    2.5435 O   0  0  0  0  0  0  0  0  0  0  0  0
  -90.0266   25.7214    1.7662 C   0  0  0  0  0  0  0  0  0  0  0  0
  -91.2734   25.2547    2.1131 O   0  0  0  0  0  0  0  0  0  0  0  0
  -90.0264   26.8894    0.8449 C   0  0  0  0  0  0  0  0  0  0  0  0
  -88.7800   26.8909    0.1757 O   0  0  0  0  0  0  0  0  0  0  0  0
  -90.2544   28.2057    1.4642 C   0  0  0  0  0  0  0  0  0  0  0  0
  -91.4862   28.7187    0.9927 O   0  0  0  0  0  0  0  0  0  0  0  0
  -90.3217   28.2312    2.9541 C   0  0  0  0  0  0  0  0  0  0  0  0
  -91.6562   28.1186    3.4070 O   0  0  0  0  0  0  0  0  0  0  0  0
  -87.5622   25.0213    2.3152 H   0  0  0  0  0  0  0  0  0  0  0  0
  -92.0263   25.7531    1.7697 H   0  0  0  0  0  0  0  0  0  0  0  0
  -88.6471   27.7988   -0.2237 H   0  0  0  0  0  0  0  0  0  0  0  0
  -92.1780   28.0417    0.9500 H   0  0  0  0  0  0  0  0  0  0  0  0
  -92.1334   28.8843    2.9952 H   0  0  0  0  0  0  0  0  0  0  0  0
  -91.0540   25.9804    4.9439 O   0  0  0  0  0  0  0  0  0  0  0  0
  -90.0925   26.9571    5.0225 C   0  0  0  0  0  0  0  0  0  0  0  0
  -90.8606   25.2020    5.5554 H   0  0  0  0  0  0  0  0  0  0  0  0
 17 18  1  0  0  0
 18  1  1  0  0  0
  1  2  1  0  0  0
  2  3  1  0  0  0
  2  4  1  0  0  0
  4  5  1  0  0  0
  4  6  1  0  0  0
  6  7  1  0  0  0
  6  8  1  0  0  0
  8  9  1  0  0  0
  8 10  1  0  0  0
 10 11  1  0  0  0
 10  1  1  0  0  0
 17 19  1  0  0  0
  3 12  1  0  0  0
  5 13  1  0  0  0
  7 14  1  0  0  0
  9 15  1  0  0  0
 11 16  1  0  0  0
M  END
> <minimizedAffinity>
-5.04999

> <CNNscore>
0.3190377057

> <CNNaffinity>
3.0185711384

> <CNN_VS>
0.9630380273

> <CNNaffinity_variance>
0.0344487950

$$$$
[H]OC([H])([H])[C@]1([H])[C@]([H])(O[H])[C@]([H])(O[H])[C@@]([H])(O[H])[C@]([H])(O[H])[C@@]1([H])O[H]


 19 19  0  0  0  0  0  0  0  0999 V2000
  -89.0870   26.0303    3.9175 C   0  0  0  0  0  0  0  0  0  0  0  0
  -88.9826   25.6681    2.4887 C   0  0  0  0  0  0  0  0  0  0  0  0
  -87.7896   26.1140    1.9125 O   0  0  0  0  0  0  0  0  0  0  0  0
  -90.1093   26.1755    1.6272 C   0  0  0  0  0  0  0  0  0  0  0  0
  -91.2506   25.4177    1.7541 O   0  0  0  0  0  0  0  0  0  0  0  0
  -90.2994   27.6370    1.8298 C   0  0  0  0  0  0  0  0  0  0  0  0
  -89.2434   28.2913    1.1530 O   0  0  0  0  0  0  0  0  0  0  0  0
  -90.3493   28.0982    3.2273 C   0  0  0  0  0  0  0  0  0  0  0  0
  -91.6460   28.6003    3.4905 O   0  0  0  0  0  0  0  0  0  0  0  0
  -90.0670   27.0712    4.2716 C   0  0  0  0  0  0  0  0  0  0  0  0
  -91.2614   26.4757    4.7380 O   0  0  0  0  0  0  0  0  0  0  0  0
  -87.6001   25.6746    1.0639 H   0  0  0  0  0  0  0  0  0  0  0  0
  -92.0521   25.8929    2.0088 H   0  0  0  0  0  0  0  0  0  0  0  0
  -89.1882   29.2275    1.5024 H   0  0  0  0  0  0  0  0  0  0  0  0
  -92.3427   28.0491    3.1038 H   0  0  0  0  0  0  0  0  0  0  0  0
  -91.8052   27.2281    5.0868 H   0  0  0  0  0  0  0  0  0  0  0  0
  -88.3163   23.9191    4.7976 O   0  0  0  0  0  0  0  0  0  0  0  0
  -89.3891   24.7732    4.7335 C   0  0  0  0  0  0  0  0  0  0  0  0
  -88.0456   23.7142    5.7472 H   0  0  0  0  0  0  0  0  0  0  0  0
 17 18  1  0  0  0
 18  1  1  0  0  0
  1  2  1  0  0  0
  2  3  1  0  0  0
  2  4  1  0  0  0
  4  5  1  0  0  0
  4  6  1  0  0  0
  6  7  1  0  0  0
  6  8  1  0  0  0
  8  9  1  0  0  0
  8 10  1  0  0  0
 10 11  1  0  0  0
 10  1  1  0  0  0
 17 19  1  0  0  0
  3 12  1  0  0  0
  5 13  1  0  0  0
  7 14  1  0  0  0
  9 15  1  0  0  0
 11 16  1  0  0  0
M  END
> <minimizedAffinity>
-5.22866

> <CNNscore>
0.2767288089

> <CNNaffinity>
2.9531335831

> <CNN_VS>
0.8172171116

> <CNNaffinity_variance>
0.0756547004

$$$$
[H]OC([H])([H])[C@]1([H])[C@]([H])(O[H])[C@]([H])(O[H])[C@@]([H])(O[H])[C@]([H])(O[H])[C@@]1([H])O[H]


 19 19  0  0  0  0  0  0  0  0999 V2000
  -91.2032   25.3357    0.2160 C   0  0  0  0  0  0  0  0  0  0  0  0
  -91.0646   25.6529   -1.2205 C   0  0  0  0  0  0  0  0  0  0  0  0
  -92.2405   25.4073   -1.9355 O   0  0  0  0  0  0  0  0  0  0  0  0
  -89.9548   24.9156   -1.9234 C   0  0  0  0  0  0  0  0  0  0  0  0
  -88.7173   25.4590   -1.6660 O   0  0  0  0  0  0  0  0  0  0  0  0
  -90.0638   23.4534   -1.6729 C   0  0  0  0  0  0  0  0  0  0  0  0
  -91.1323   22.9741   -2.4666 O   0  0  0  0  0  0  0  0  0  0  0  0
  -90.2699   23.0474   -0.2726 C   0  0  0  0  0  0  0  0  0  0  0  0
  -89.1298   22.3301    0.1615 O   0  0  0  0  0  0  0  0  0  0  0  0
  -90.4825   24.1498    0.7095 C   0  0  0  0  0  0  0  0  0  0  0  0
  -89.2643   24.5378    1.3132 O   0  0  0  0  0  0  0  0  0  0  0  0
  -92.2412   25.8392   -2.8088 H   0  0  0  0  0  0  0  0  0  0  0  0
  -88.0542   24.8572   -1.3035 H   0  0  0  0  0  0  0  0  0  0  0  0
  -91.4013   22.0782   -2.1108 H   0  0  0  0  0  0  0  0  0  0  0  0
  -88.3017   22.7300   -0.1432 H   0  0  0  0  0  0  0  0  0  0  0  0
  -88.9151   23.7141    1.7411 H   0  0  0  0  0  0  0  0  0  0  0  0
  -89.8049   27.2928    0.4177 O   0  0  0  0  0  0  0  0  0  0  0  0
  -90.7757   26.5493    1.0417 C   0  0  0  0  0  0  0  0  0  0  0  0
  -90.0787   28.2557    0.2956 H   0  0  0  0  0  0  0  0  0  0  0  0
 17 18  1  0  0  0
 18  1  1  0  0  0
  1  2  1  0  0  0
  2  3  1  0  0  0
  2  4  1  0  0  0
  4  5  1  0  0  0
  4  6  1  0  0  0
  6  7  1  0  0  0
  6  8  1  0  0  0
  8  9  1  0  0  0
  8 10  1  0  0  0
 10 11  1  0  0  0
 10  1  1  0  0  0
 17 19  1  0  0  0
  3 12  1  0  0  0
  5 13  1  0  0  0
  7 14  1  0  0  0
  9 15  1  0  0  0
 11 16  1  0  0  0
M  END
> <minimizedAffinity>
-4.42782

> <CNNscore>
0.2720726132

> <CNNaffinity>
2.7519974709

> <CNN_VS>
0.7487431169

> <CNNaffinity_variance>
0.1103360504

$$$$
[H]OC([H])([H])[C@]1([H])[C@]([H])(O[H])[C@]([H])(O[H])[C@@]([H])(O[H])[C@]([H])(O[H])[C@@]1([H])O[H]


 19 19  0  0  0  0  0  0  0  0999 V2000
  -90.6198   26.3869    4.2946 C   0  0  0  0  0  0  0  0  0  0  0  0
  -90.3740   27.7261    3.7207 C   0  0  0  0  0  0  0  0  0  0  0  0
  -91.5563   28.4448    3.5213 O   0  0  0  0  0  0  0  0  0  0  0  0
  -89.6297   27.7224    2.4110 C   0  0  0  0  0  0  0  0  0  0  0  0
  -88.2780   27.5251    2.5751 O   0  0  0  0  0  0  0  0  0  0  0  0
  -90.2865   26.8023    1.4441 C   0  0  0  0  0  0  0  0  0  0  0  0
  -91.4586   27.4485    0.9858 O   0  0  0  0  0  0  0  0  0  0  0  0
  -90.6287   25.4629    1.9511 C   0  0  0  0  0  0  0  0  0  0  0  0
  -89.8465   24.5062    1.2614 O   0  0  0  0  0  0  0  0  0  0  0  0
  -90.4037   25.2313    3.4074 C   0  0  0  0  0  0  0  0  0  0  0  0
  -89.1283   24.6689    3.6438 O   0  0  0  0  0  0  0  0  0  0  0  0
  -91.3943   29.3959    3.3856 H   0  0  0  0  0  0  0  0  0  0  0  0
  -87.8931   26.7838    2.0899 H   0  0  0  0  0  0  0  0  0  0  0  0
  -92.0476   26.7558    0.5677 H   0  0  0  0  0  0  0  0  0  0  0  0
  -88.9291   24.7937    1.1418 H   0  0  0  0  0  0  0  0  0  0  0  0
  -89.1180   23.8255    3.1222 H   0  0  0  0  0  0  0  0  0  0  0  0
  -89.9297   27.2355    6.4463 O   0  0  0  0  0  0  0  0  0  0  0  0
  -89.7609   26.2119    5.5473 C   0  0  0  0  0  0  0  0  0  0  0  0
  -90.2155   26.9044    7.3550 H   0  0  0  0  0  0  0  0  0  0  0  0
 17 18  1  0  0  0
 18  1  1  0  0  0
  1  2  1  0  0  0
  2  3  1  0  0  0
  2  4  1  0  0  0
  4  5  1  0  0  0
  4  6  1  0  0  0
  6  7  1  0  0  0
  6  8  1  0  0  0
  8  9  1  0  0  0
  8 10  1  0  0  0
 10 11  1  0  0  0
 10  1  1  0  0  0
 17 19  1  0  0  0
  3 12  1  0  0  0
  5 13  1  0  0  0
  7 14  1  0  0  0
  9 15  1  0  0  0
 11 16  1  0  0  0
M  END
> <minimizedAffinity>
-5.52014

> <CNNscore>
0.2499233931

> <CNNaffinity>
2.8339788914

> <CNN_VS>
0.7082776427

> <CNNaffinity_variance>
0.0985318348

$$$$
[H]OC([H])([H])[C@]1([H])[C@]([H])(O[H])[C@]([H])(O[H])[C@@]([H])(O[H])[C@]([H])(O[H])[C@@]1([H])O[H]


 19 19  0  0  0  0  0  0  0  0999 V2000
  -88.5576   28.0008    1.1313 C   0  0  0  0  0  0  0  0  0  0  0  0
  -89.9137   28.2201    0.5870 C   0  0  0  0  0  0  0  0  0  0  0  0
  -90.2734   29.5710    0.5830 O   0  0  0  0  0  0  0  0  0  0  0  0
  -91.0074   27.4710    1.3024 C   0  0  0  0  0  0  0  0  0  0  0  0
  -91.0583   26.1441    0.9421 O   0  0  0  0  0  0  0  0  0  0  0  0
  -90.9360   27.7224    2.7668 C   0  0  0  0  0  0  0  0  0  0  0  0
  -91.4336   29.0279    2.9892 O   0  0  0  0  0  0  0  0  0  0  0  0
  -89.6061   27.5905    3.3848 C   0  0  0  0  0  0  0  0  0  0  0  0
  -89.6314   26.4946    4.2799 O   0  0  0  0  0  0  0  0  0  0  0  0
  -88.4655   27.3562    2.4524 C   0  0  0  0  0  0  0  0  0  0  0  0
  -88.2044   25.9749    2.3021 O   0  0  0  0  0  0  0  0  0  0  0  0
  -91.0402   29.7494    0.0092 H   0  0  0  0  0  0  0  0  0  0  0  0
  -90.9940   25.5037    1.6624 H   0  0  0  0  0  0  0  0  0  0  0  0
  -91.1385   29.3179    3.9004 H   0  0  0  0  0  0  0  0  0  0  0  0
  -90.1113   25.7335    3.9209 H   0  0  0  0  0  0  0  0  0  0  0  0
  -88.0150   25.6473    3.2188 H   0  0  0  0  0  0  0  0  0  0  0  0
  -88.5154   26.3152   -0.5959 O   0  0  0  0  0  0  0  0  0  0  0  0
  -87.7400   27.1857    0.1290 C   0  0  0  0  0  0  0  0  0  0  0  0
  -88.4272   26.4599   -1.5901 H   0  0  0  0  0  0  0  0  0  0  0  0
 17 18  1  0  0  0
 18  1  1  0  0  0
  1  2  1  0  0  0
  2  3  1  0  0  0
  2  4  1  0  0  0
  4  5  1  0  0  0
  4  6  1  0  0  0
  6  7  1  0  0  0
  6  8  1  0  0  0
  8  9  1  0  0  0
  8 10  1  0  0  0
 10 11  1  0  0  0
 10  1  1  0  0  0
 17 19  1  0  0  0
  3 12  1  0  0  0
  5 13  1  0  0  0
  7 14  1  0  0  0
  9 15  1  0  0  0
 11 16  1  0  0  0
M  END
> <minimizedAffinity>
-4.55892

> <CNNscore>
0.2426336408

> <CNNaffinity>
2.7828116417

> <CNN_VS>
0.6752037406

> <CNNaffinity_variance>
0.1099430770

$$$$
[H]OC([H])([H])[C@]1([H])[C@]([H])(O[H])[C@]([H])(O[H])[C@@]([H])(O[H])[C@]([H])(O[H])[C@@]1([H])O[H]


 19 19  0  0  0  0  0  0  0  0999 V2000
  -87.0854   32.8955   -3.0069 C   0  0  0  0  0  0  0  0  0  0  0  0
  -87.7858   32.3079   -1.8461 C   0  0  0  0  0  0  0  0  0  0  0  0
  -86.9651   31.4505   -1.1075 O   0  0  0  0  0  0  0  0  0  0  0  0
  -89.0364   31.5410   -2.1882 C   0  0  0  0  0  0  0  0  0  0  0  0
  -90.1077   32.3671   -2.4388 O   0  0  0  0  0  0  0  0  0  0  0  0
  -88.7550   30.5370   -3.2492 C   0  0  0  0  0  0  0  0  0  0  0  0
  -88.0501   29.4732   -2.6385 O   0  0  0  0  0  0  0  0  0  0  0  0
  -88.0012   31.0205   -4.4180 C   0  0  0  0  0  0  0  0  0  0  0  0
  -88.8418   30.9568   -5.5547 O   0  0  0  0  0  0  0  0  0  0  0  0
  -87.4899   32.4196   -4.3407 C   0  0  0  0  0  0  0  0  0  0  0  0
  -88.4007   33.3291   -4.9256 O   0  0  0  0  0  0  0  0  0  0  0  0
  -87.3265   31.2611   -0.2228 H   0  0  0  0  0  0  0  0  0  0  0  0
  -90.5435   32.2531   -3.2934 H   0  0  0  0  0  0  0  0  0  0  0  0
  -87.6134   28.9384   -3.3630 H   0  0  0  0  0  0  0  0  0  0  0  0
  -89.7450   31.2518   -5.3651 H   0  0  0  0  0  0  0  0  0  0  0  0
  -88.5095   33.0189   -5.8612 H   0  0  0  0  0  0  0  0  0  0  0  0
  -86.4687   35.0439   -3.9181 O   0  0  0  0  0  0  0  0  0  0  0  0
  -87.2301   34.4169   -2.9633 C   0  0  0  0  0  0  0  0  0  0  0  0
  -87.0205   35.6335   -4.5222 H   0  0  0  0  0  0  0  0  0  0  0  0
 17 18  1  0  0  0
 18  1  1  0  0  0
  1  2  1  0  0  0
  2  3  1  0  0  0
  2  4  1  0  0  0
  4  5  1  0  0  0
  4  6  1  0  0  0
  6  7  1  0  0  0
  6  8  1  0  0  0
  8  9  1  0  0  0
  8 10  1  0  0  0
 10 11  1  0  0  0
 10  1  1  0  0  0
 17 19  1  0  0  0
  3 12  1  0  0  0
  5 13  1  0  0  0
  7 14  1  0  0  0
  9 15  1  0  0  0
 11 16  1  0  0  0
M  END
> <minimizedAffinity>
-5.23960

> <CNNscore>
0.2288928777

> <CNNaffinity>
2.6729602814

> <CNN_VS>
0.6118215919

> <CNNaffinity_variance>
0.2508430183

$$$$
[H]OC([H])([H])[C@]1([H])[C@]([H])(O[H])[C@]([H])(O[H])[C@@]([H])(O[H])[C@]([H])(O[H])[C@@]1([H])O[H]


 19 19  0  0  0  0  0  0  0  0999 V2000
  -89.8576   31.1388   -2.9018 C   0  0  0  0  0  0  0  0  0  0  0  0
  -88.3903   31.3002   -2.8357 C   0  0  0  0  0  0  0  0  0  0  0  0
  -88.0005   32.2329   -1.8701 O   0  0  0  0  0  0  0  0  0  0  0  0
  -87.7431   31.7072   -4.1337 C   0  0  0  0  0  0  0  0  0  0  0  0
  -87.6055   30.6522   -5.0060 O   0  0  0  0  0  0  0  0  0  0  0  0
  -88.4211   32.9051   -4.6979 C   0  0  0  0  0  0  0  0  0  0  0  0
  -88.0056   34.0182   -3.9300 O   0  0  0  0  0  0  0  0  0  0  0  0
  -89.8922   32.8588   -4.7419 C   0  0  0  0  0  0  0  0  0  0  0  0
  -90.3028   32.8512   -6.0962 O   0  0  0  0  0  0  0  0  0  0  0  0
  -90.5350   31.6798   -4.0924 C   0  0  0  0  0  0  0  0  0  0  0  0
  -90.7713   30.6470   -5.0285 O   0  0  0  0  0  0  0  0  0  0  0  0
  -87.0546   32.1635   -1.6472 H   0  0  0  0  0  0  0  0  0  0  0  0
  -88.0010   30.7668   -5.8798 H   0  0  0  0  0  0  0  0  0  0  0  0
  -88.6476   34.7665   -4.1016 H   0  0  0  0  0  0  0  0  0  0  0  0
  -89.7517   32.2761   -6.6477 H   0  0  0  0  0  0  0  0  0  0  0  0
  -91.3491   31.0561   -5.7230 H   0  0  0  0  0  0  0  0  0  0  0  0
  -89.1930   28.8382   -3.2047 O   0  0  0  0  0  0  0  0  0  0  0  0
  -90.2061   29.6560   -2.7696 C   0  0  0  0  0  0  0  0  0  0  0  0
  -88.8917   28.1896   -2.4936 H   0  0  0  0  0  0  0  0  0  0  0  0
 17 18  1  0  0  0
 18  1  1  0  0  0
  1  2  1  0  0  0
  2  3  1  0  0  0
  2  4  1  0  0  0
  4  5  1  0  0  0
  4  6  1  0  0  0
  6  7  1  0  0  0
  6  8  1  0  0  0
  8  9  1  0  0  0
  8 10  1  0  0  0
 10 11  1  0  0  0
 10  1  1  0  0  0
 17 19  1  0  0  0
  3 12  1  0  0  0
  5 13  1  0  0  0
  7 14  1  0  0  0
  9 15  1  0  0  0
 11 16  1  0  0  0
M  END
> <minimizedAffinity>
-4.73992

> <CNNscore>
0.2021414638

> <CNNaffinity>
2.6547443867

> <CNN_VS>
0.5366339087

> <CNNaffinity_variance>
0.1450570077

$$$$
[H]OC([H])([H])[C@]1([H])[C@]([H])(O[H])[C@]([H])(O[H])[C@@]([H])(O[H])[C@]([H])(O[H])[C@@]1([H])O[H]


 19 19  0  0  0  0  0  0  0  0999 V2000
  -87.6573   31.9458   -3.8830 C   0  0  0  0  0  0  0  0  0  0  0  0
  -87.4541   33.2708   -3.2616 C   0  0  0  0  0  0  0  0  0  0  0  0
  -86.1068   33.6422   -3.2287 O   0  0  0  0  0  0  0  0  0  0  0  0
  -87.9838   33.3947   -1.8568 C   0  0  0  0  0  0  0  0  0  0  0  0
  -89.3482   33.5684   -1.8229 O   0  0  0  0  0  0  0  0  0  0  0  0
  -87.4700   32.2855   -1.0092 C   0  0  0  0  0  0  0  0  0  0  0  0
  -86.1161   32.5762   -0.7198 O   0  0  0  0  0  0  0  0  0  0  0  0
  -87.5721   30.9315   -1.5787 C   0  0  0  0  0  0  0  0  0  0  0  0
  -88.4786   30.1794   -0.7942 O   0  0  0  0  0  0  0  0  0  0  0  0
  -88.0500   30.8431   -2.9890 C   0  0  0  0  0  0  0  0  0  0  0  0
  -89.4493   30.6487   -3.0427 O   0  0  0  0  0  0  0  0  0  0  0  0
  -85.9880   34.5940   -3.0581 H   0  0  0  0  0  0  0  0  0  0  0  0
  -89.8465   32.9301   -1.2961 H   0  0  0  0  0  0  0  0  0  0  0  0
  -85.6820   31.7323   -0.4021 H   0  0  0  0  0  0  0  0  0  0  0  0
  -89.2599   30.6913   -0.5372 H   0  0  0  0  0  0  0  0  0  0  0  0
  -89.6126   29.8117   -2.5365 H   0  0  0  0  0  0  0  0  0  0  0  0
  -88.7540   30.9458   -5.7865 O   0  0  0  0  0  0  0  0  0  0  0  0
  -88.6964   32.0680   -4.9979 C   0  0  0  0  0  0  0  0  0  0  0  0
  -89.6801   30.5479   -5.8198 H   0  0  0  0  0  0  0  0  0  0  0  0
 17 18  1  0  0  0
 18  1  1  0  0  0
  1  2  1  0  0  0
  2  3  1  0  0  0
  2  4  1  0  0  0
  4  5  1  0  0  0
  4  6  1  0  0  0
  6  7  1  0  0  0
  6  8  1  0  0  0
  8  9  1  0  0  0
  8 10  1  0  0  0
 10 11  1  0  0  0
 10  1  1  0  0  0
 17 19  1  0  0  0
  3 12  1  0  0  0
  5 13  1  0  0  0
  7 14  1  0  0  0
  9 15  1  0  0  0
 11 16  1  0  0  0
M  END
> <minimizedAffinity>
-5.35578

> <CNNscore>
0.1959669590

> <CNNaffinity>
2.6805050373

> <CNN_VS>
0.5252904296

> <CNNaffinity_variance>
0.1993176192

$$$$
[H]/C(=C1/C(=O)N([H])c2c([H])c([H])c(F)c([H])c21)c1c([H])c([H])c(N2C([H])([H])C([H])([H])N(C([H])([H])[H])C([H])([H])C2([H])[H])c([H])c1[H]


 26 29  0  0  0  0  0  0  0  0999 V2000
  -89.7240   33.5822   -4.8293 C   0  0  0  0  0  0  0  0  0  0  0  0
  -88.7234   32.6648   -5.0362 C   0  0  0  0  0  0  0  0  0  0  0  0
  -87.7287   32.4750   -4.1031 C   0  0  0  0  0  0  0  0  0  0  0  0
  -87.7152   33.2200   -2.9121 C   0  0  0  0  0  0  0  0  0  0  0  0
  -88.7330   34.1270   -2.7416 C   0  0  0  0  0  0  0  0  0  0  0  0
  -89.7244   34.3151   -3.6738 C   0  0  0  0  0  0  0  0  0  0  0  0
  -86.6844   32.9225   -1.9504 C   0  0  0  0  0  0  0  0  0  0  0  0
  -86.7678   31.9615   -1.0749 C   0  0  0  0  0  0  0  0  0  0  0  0
  -87.8565   31.0374   -0.8803 C   0  0  0  0  0  0  0  0  0  0  0  0
  -88.9775   30.9485   -1.4743 O   0  0  0  0  0  0  0  0  0  0  0  0
  -87.4539   30.1526    0.1831 N   0  0  0  0  0  0  0  0  0  0  0  0
  -86.1600   30.5266    0.6243 C   0  0  0  0  0  0  0  0  0  0  0  0
  -85.3195   30.0082    1.6160 C   0  0  0  0  0  0  0  0  0  0  0  0
  -84.0824   30.5594    1.8586 C   0  0  0  0  0  0  0  0  0  0  0  0
  -83.6274   31.6397    1.1353 C   0  0  0  0  0  0  0  0  0  0  0  0
  -82.4107   32.1615    1.3928 F   0  0  0  0  0  0  0  0  0  0  0  0
  -84.4619   32.1501    0.1547 C   0  0  0  0  0  0  0  0  0  0  0  0
  -85.7040   31.6049   -0.0967 C   0  0  0  0  0  0  0  0  0  0  0  0
  -88.0336   29.3705    0.5542 H   0  0  0  0  0  0  0  0  0  0  0  0
  -93.4707   33.3381   -8.7363 C   0  0  0  0  0  0  0  0  0  0  0  0
  -92.8322   34.1519   -7.6900 N   0  0  0  0  0  0  0  0  0  0  0  0
  -91.4557   34.2878   -8.0103 C   0  0  0  0  0  0  0  0  0  0  0  0
  -90.5624   34.6621   -6.8787 C   0  0  0  0  0  0  0  0  0  0  0  0
  -90.7360   33.7659   -5.7815 N   0  0  0  0  0  0  0  0  0  0  0  0
  -91.9725   33.0550   -5.6604 C   0  0  0  0  0  0  0  0  0  0  0  0
  -93.1311   33.6397   -6.3993 C   0  0  0  0  0  0  0  0  0  0  0  0
 20 21  1  0  0  0
 21 22  1  0  0  0
 22 23  1  0  0  0
 23 24  1  0  0  0
 24 25  1  0  0  0
 25 26  1  0  0  0
 24  1  1  0  0  0
  1  2  2  0  0  0
  2  3  1  0  0  0
  3  4  2  0  0  0
  4  7  1  0  0  0
  7  8  2  0  0  0
  8  9  1  0  0  0
  9 10  2  0  0  0
  9 11  1  0  0  0
 11 12  1  0  0  0
 12 13  2  0  0  0
 13 14  1  0  0  0
 14 15  2  0  0  0
 15 16  1  0  0  0
 15 17  1  0  0  0
 17 18  2  0  0  0
  4  5  1  0  0  0
  5  6  2  0  0  0
 26 21  1  0  0  0
  6  1  1  0  0  0
 18  8  1  0  0  0
 18 12  1  0  0  0
 11 19  1  0  0  0
M  END
> <minimizedAffinity>
-8.18932

> <CNNscore>
0.3725135028

> <CNNaffinity>
5.5437479019

> <CNN_VS>
2.0651209354

> <CNNaffinity_variance>
0.0744429454

$$$$
[H]/C(=C1/C(=O)N([H])c2c([H])c([H])c(F)c([H])c21)c1c([H])c([H])c(N2C([H])([H])C([H])([H])N(C([H])([H])[H])C([H])([H])C2([H])[H])c([H])c1[H]


 26 29  0  0  0  0  0  0  0  0999 V2000
  -89.4801   35.3413   -4.9398 C   0  0  0  0  0  0  0  0  0  0  0  0
  -88.7553   34.2150   -5.2430 C   0  0  0  0  0  0  0  0  0  0  0  0
  -87.7614   33.7621   -4.4046 C   0  0  0  0  0  0  0  0  0  0  0  0
  -87.4649   34.4459   -3.2137 C   0  0  0  0  0  0  0  0  0  0  0  0
  -88.2119   35.5673   -2.9452 C   0  0  0  0  0  0  0  0  0  0  0  0
  -89.2030   36.0178   -3.7831 C   0  0  0  0  0  0  0  0  0  0  0  0
  -86.4599   33.8788   -2.3509 C   0  0  0  0  0  0  0  0  0  0  0  0
  -86.6996   32.9380   -1.4824 C   0  0  0  0  0  0  0  0  0  0  0  0
  -87.9593   32.2961   -1.2022 C   0  0  0  0  0  0  0  0  0  0  0  0
  -89.1141   32.4979   -1.6952 O   0  0  0  0  0  0  0  0  0  0  0  0
  -87.6952   31.3066   -0.1891 N   0  0  0  0  0  0  0  0  0  0  0  0
  -86.3170   31.3448    0.1396 C   0  0  0  0  0  0  0  0  0  0  0  0
  -85.5469   30.6080    1.0467 C   0  0  0  0  0  0  0  0  0  0  0  0
  -84.1975   30.8384    1.1846 C   0  0  0  0  0  0  0  0  0  0  0  0
  -83.5569   31.8009    0.4360 C   0  0  0  0  0  0  0  0  0  0  0  0
  -82.2330   32.0070    0.5903 F   0  0  0  0  0  0  0  0  0  0  0  0
  -84.3222   32.5280   -0.4606 C   0  0  0  0  0  0  0  0  0  0  0  0
  -85.6758   32.3051   -0.6067 C   0  0  0  0  0  0  0  0  0  0  0  0
  -88.4136   30.6746    0.2232 H   0  0  0  0  0  0  0  0  0  0  0  0
  -93.6513   37.6787   -7.4890 C   0  0  0  0  0  0  0  0  0  0  0  0
  -92.5301   36.7299   -7.5738 N   0  0  0  0  0  0  0  0  0  0  0  0
  -92.7455   35.7005   -6.6200 C   0  0  0  0  0  0  0  0  0  0  0  0
  -91.5387   34.9213   -6.2259 C   0  0  0  0  0  0  0  0  0  0  0  0
  -90.4939   35.7932   -5.7957 N   0  0  0  0  0  0  0  0  0  0  0  0
  -90.4903   37.1472   -6.2598 C   0  0  0  0  0  0  0  0  0  0  0  0
  -91.2858   37.4105   -7.4960 C   0  0  0  0  0  0  0  0  0  0  0  0
 20 21  1  0  0  0
 21 22  1  0  0  0
 22 23  1  0  0  0
 23 24  1  0  0  0
 24 25  1  0  0  0
 25 26  1  0  0  0
 24  1  1  0  0  0
  1  2  2  0  0  0
  2  3  1  0  0  0
  3  4  2  0  0  0
  4  7  1  0  0  0
  7  8  2  0  0  0
  8  9  1  0  0  0
  9 10  2  0  0  0
  9 11  1  0  0  0
 11 12  1  0  0  0
 12 13  2  0  0  0
 13 14  1  0  0  0
 14 15  2  0  0  0
 15 16  1  0  0  0
 15 17  1  0  0  0
 17 18  2  0  0  0
  4  5  1  0  0  0
  5  6  2  0  0  0
 26 21  1  0  0  0
  6  1  1  0  0  0
 18  8  1  0  0  0
 18 12  1  0  0  0
 11 19  1  0  0  0
M  END
> <minimizedAffinity>
-7.55792

> <CNNscore>
0.3497115672

> <CNNaffinity>
5.3164086342

> <CNN_VS>
1.8592095375

> <CNNaffinity_variance>
0.1077397242

$$$$
[H]/C(=C1/C(=O)N([H])c2c([H])c([H])c(F)c([H])c21)c1c([H])c([H])c(N2C([H])([H])C([H])([H])N(C([H])([H])[H])C([H])([H])C2([H])[H])c([H])c1[H]


 26 29  0  0  0  0  0  0  0  0999 V2000
  -88.7680   33.5279   -3.4355 C   0  0  0  0  0  0  0  0  0  0  0  0
  -88.0760   32.4380   -3.9036 C   0  0  0  0  0  0  0  0  0  0  0  0
  -87.4849   31.5455   -3.0376 C   0  0  0  0  0  0  0  0  0  0  0  0
  -87.5768   31.7311   -1.6480 C   0  0  0  0  0  0  0  0  0  0  0  0
  -88.2776   32.8323   -1.2189 C   0  0  0  0  0  0  0  0  0  0  0  0
  -88.8664   33.7218   -2.0845 C   0  0  0  0  0  0  0  0  0  0  0  0
  -86.9933   30.7232   -0.7999 C   0  0  0  0  0  0  0  0  0  0  0  0
  -85.8431   30.8574   -0.2032 C   0  0  0  0  0  0  0  0  0  0  0  0
  -84.9439   31.9822   -0.2635 C   0  0  0  0  0  0  0  0  0  0  0  0
  -85.0322   33.0733   -0.9108 O   0  0  0  0  0  0  0  0  0  0  0  0
  -83.8297   31.6585    0.5904 N   0  0  0  0  0  0  0  0  0  0  0  0
  -84.0422   30.3752    1.1531 C   0  0  0  0  0  0  0  0  0  0  0  0
  -83.2819   29.5986    2.0349 C   0  0  0  0  0  0  0  0  0  0  0  0
  -83.7134   28.3570    2.4415 C   0  0  0  0  0  0  0  0  0  0  0  0
  -84.9075   27.8345    1.9961 C   0  0  0  0  0  0  0  0  0  0  0  0
  -85.3078   26.6149    2.4098 F   0  0  0  0  0  0  0  0  0  0  0  0
  -85.6572   28.6058    1.1235 C   0  0  0  0  0  0  0  0  0  0  0  0
  -85.2338   29.8519    0.7096 C   0  0  0  0  0  0  0  0  0  0  0  0
  -83.0097   32.2797    0.7551 H   0  0  0  0  0  0  0  0  0  0  0  0
  -90.2645   36.9105   -7.3953 C   0  0  0  0  0  0  0  0  0  0  0  0
  -90.6395   36.2377   -6.1418 N   0  0  0  0  0  0  0  0  0  0  0  0
  -89.7431   36.6600   -5.1249 C   0  0  0  0  0  0  0  0  0  0  0  0
  -89.6537   35.7723   -3.9322 C   0  0  0  0  0  0  0  0  0  0  0  0
  -89.3716   34.4290   -4.3233 N   0  0  0  0  0  0  0  0  0  0  0  0
  -89.7230   34.0072   -5.6452 C   0  0  0  0  0  0  0  0  0  0  0  0
  -90.7555   34.8354   -6.3366 C   0  0  0  0  0  0  0  0  0  0  0  0
 20 21  1  0  0  0
 21 22  1  0  0  0
 22 23  1  0  0  0
 23 24  1  0  0  0
 24 25  1  0  0  0
 25 26  1  0  0  0
 24  1  1  0  0  0
  1  2  2  0  0  0
  2  3  1  0  0  0
  3  4  2  0  0  0
  4  7  1  0  0  0
  7  8  2  0  0  0
  8  9  1  0  0  0
  9 10  2  0  0  0
  9 11  1  0  0  0
 11 12  1  0  0  0
 12 13  2  0  0  0
 13 14  1  0  0  0
 14 15  2  0  0  0
 15 16  1  0  0  0
 15 17  1  0  0  0
 17 18  2  0  0  0
  4  5  1  0  0  0
  5  6  2  0  0  0
 26 21  1  0  0  0
  6  1  1  0  0  0
 18  8  1  0  0  0
 18 12  1  0  0  0
 11 19  1  0  0  0
M  END
> <minimizedAffinity>
-8.77289

> <CNNscore>
0.3388762176

> <CNNaffinity>
5.7823195457

> <CNN_VS>
1.9594905376

> <CNNaffinity_variance>
0.1571663022

$$$$
[H]/C(=C1/C(=O)N([H])c2c([H])c([H])c(F)c([H])c21)c1c([H])c([H])c(N2C([H])([H])C([H])([H])N(C([H])([H])[H])C([H])([H])C2([H])[H])c([H])c1[H]


 26 29  0  0  0  0  0  0  0  0999 V2000
  -89.1695   25.5975    0.4252 C   0  0  0  0  0  0  0  0  0  0  0  0
  -88.3186   25.8147   -0.6305 C   0  0  0  0  0  0  0  0  0  0  0  0
  -87.6064   26.9881   -0.7398 C   0  0  0  0  0  0  0  0  0  0  0  0
  -87.7352   27.9949    0.2315 C   0  0  0  0  0  0  0  0  0  0  0  0
  -88.5953   27.7400    1.2722 C   0  0  0  0  0  0  0  0  0  0  0  0
  -89.3052   26.5688    1.3794 C   0  0  0  0  0  0  0  0  0  0  0  0
  -86.9101   29.1677    0.0908 C   0  0  0  0  0  0  0  0  0  0  0  0
  -85.7427   29.3023    0.6529 C   0  0  0  0  0  0  0  0  0  0  0  0
  -85.0585   28.3598    1.5019 C   0  0  0  0  0  0  0  0  0  0  0  0
  -85.4205   27.2149    1.9209 O   0  0  0  0  0  0  0  0  0  0  0  0
  -83.7930   28.9602    1.8391 N   0  0  0  0  0  0  0  0  0  0  0  0
  -83.7087   30.2303    1.2159 C   0  0  0  0  0  0  0  0  0  0  0  0
  -82.7112   31.2120    1.2155 C   0  0  0  0  0  0  0  0  0  0  0  0
  -82.8704   32.3867    0.5170 C   0  0  0  0  0  0  0  0  0  0  0  0
  -84.0155   32.6383   -0.2059 C   0  0  0  0  0  0  0  0  0  0  0  0
  -84.1468   33.7978   -0.8821 F   0  0  0  0  0  0  0  0  0  0  0  0
  -85.0005   31.6646   -0.2032 C   0  0  0  0  0  0  0  0  0  0  0  0
  -84.8510   30.4834    0.4937 C   0  0  0  0  0  0  0  0  0  0  0  0
  -83.0699   28.5173    2.4444 H   0  0  0  0  0  0  0  0  0  0  0  0
  -91.3136   20.7573    1.5815 C   0  0  0  0  0  0  0  0  0  0  0  0
  -91.3914   21.9753    0.7598 N   0  0  0  0  0  0  0  0  0  0  0  0
  -90.1948   22.0782    0.0026 C   0  0  0  0  0  0  0  0  0  0  0  0
  -89.8758   23.4356   -0.5213 C   0  0  0  0  0  0  0  0  0  0  0  0
  -89.8871   24.3983    0.5323 N   0  0  0  0  0  0  0  0  0  0  0  0
  -90.6542   24.1240    1.7092 C   0  0  0  0  0  0  0  0  0  0  0  0
  -91.7314   23.1010    1.5567 C   0  0  0  0  0  0  0  0  0  0  0  0
 20 21  1  0  0  0
 21 22  1  0  0  0
 22 23  1  0  0  0
 23 24  1  0  0  0
 24 25  1  0  0  0
 25 26  1  0  0  0
 24  1  1  0  0  0
  1  2  2  0  0  0
  2  3  1  0  0  0
  3  4  2  0  0  0
  4  7  1  0  0  0
  7  8  2  0  0  0
  8  9  1  0  0  0
  9 10  2  0  0  0
  9 11  1  0  0  0
 11 12  1  0  0  0
 12 13  2  0  0  0
 13 14  1  0  0  0
 14 15  2  0  0  0
 15 16  1  0  0  0
 15 17  1  0  0  0
 17 18  2  0  0  0
  4  5  1  0  0  0
  5  6  2  0  0  0
 26 21  1  0  0  0
  6  1  1  0  0  0
 18  8  1  0  0  0
 18 12  1  0  0  0
 11 19  1  0  0  0
M  END
> <minimizedAffinity>
-8.83863

> <CNNscore>
0.3204944134

> <CNNaffinity>
5.9124822617

> <CNN_VS>
1.8949174881

> <CNNaffinity_variance>
0.1673961282

$$$$
[H]/C(=C1/C(=O)N([H])c2c([H])c([H])c(F)c([H])c21)c1c([H])c([H])c(N2C([H])([H])C([H])([H])N(C([H])([H])[H])C([H])([H])C2([H])[H])c([H])c1[H]


 26 29  0  0  0  0  0  0  0  0999 V2000
  -89.4062   25.3939    0.6768 C   0  0  0  0  0  0  0  0  0  0  0  0
  -89.5067   26.4780    1.5136 C   0  0  0  0  0  0  0  0  0  0  0  0
  -88.6688   27.5620    1.3766 C   0  0  0  0  0  0  0  0  0  0  0  0
  -87.6868   27.5832    0.3721 C   0  0  0  0  0  0  0  0  0  0  0  0
  -87.6180   26.4808   -0.4451 C   0  0  0  0  0  0  0  0  0  0  0  0
  -88.4548   25.4001   -0.3066 C   0  0  0  0  0  0  0  0  0  0  0  0
  -86.8900   28.7766    0.2426 C   0  0  0  0  0  0  0  0  0  0  0  0
  -85.7458   28.9506    0.8405 C   0  0  0  0  0  0  0  0  0  0  0  0
  -85.0642   28.0382    1.7238 C   0  0  0  0  0  0  0  0  0  0  0  0
  -85.4083   26.8890    2.1461 O   0  0  0  0  0  0  0  0  0  0  0  0
  -83.8275   28.6777    2.0938 N   0  0  0  0  0  0  0  0  0  0  0  0
  -83.7576   29.9419    1.4569 C   0  0  0  0  0  0  0  0  0  0  0  0
  -82.7879   30.9509    1.4757 C   0  0  0  0  0  0  0  0  0  0  0  0
  -82.9562   32.1119    0.7568 C   0  0  0  0  0  0  0  0  0  0  0  0
  -84.0834   32.3225   -0.0063 C   0  0  0  0  0  0  0  0  0  0  0  0
  -84.2242   33.4694   -0.7018 F   0  0  0  0  0  0  0  0  0  0  0  0
  -85.0409   31.3218   -0.0226 C   0  0  0  0  0  0  0  0  0  0  0  0
  -84.8820   30.1540    0.6946 C   0  0  0  0  0  0  0  0  0  0  0  0
  -83.1127   28.2628    2.7282 H   0  0  0  0  0  0  0  0  0  0  0  0
  -92.9295   21.2978    0.2636 C   0  0  0  0  0  0  0  0  0  0  0  0
  -91.9849   22.0292    1.1224 N   0  0  0  0  0  0  0  0  0  0  0  0
  -92.4388   23.3692    1.2423 C   0  0  0  0  0  0  0  0  0  0  0  0
  -91.4137   24.3636    1.6654 C   0  0  0  0  0  0  0  0  0  0  0  0
  -90.2664   24.2964    0.8191 N   0  0  0  0  0  0  0  0  0  0  0  0
  -89.9984   23.0789    0.1158 C   0  0  0  0  0  0  0  0  0  0  0  0
  -90.6504   21.8543    0.6684 C   0  0  0  0  0  0  0  0  0  0  0  0
 20 21  1  0  0  0
 21 22  1  0  0  0
 22 23  1  0  0  0
 23 24  1  0  0  0
 24 25  1  0  0  0
 25 26  1  0  0  0
 24  1  1  0  0  0
  1  2  2  0  0  0
  2  3  1  0  0  0
  3  4  2  0  0  0
  4  7  1  0  0  0
  7  8  2  0  0  0
  8  9  1  0  0  0
  9 10  2  0  0  0
  9 11  1  0  0  0
 11 12  1  0  0  0
 12 13  2  0  0  0
 13 14  1  0  0  0
 14 15  2  0  0  0
 15 16  1  0  0  0
 15 17  1  0  0  0
 17 18  2  0  0  0
  4  5  1  0  0  0
  5  6  2  0  0  0
 26 21  1  0  0  0
  6  1  1  0  0  0
 18  8  1  0  0  0
 18 12  1  0  0  0
 11 19  1  0  0  0
M  END
> <minimizedAffinity>
-8.94832

> <CNNscore>
0.2623551786

> <CNNaffinity>
5.8677940369

> <CNN_VS>
1.5394461155

> <CNNaffinity_variance>
0.2017686367

$$$$
[H]/C(=C1/C(=O)N([H])c2c([H])c([H])c(F)c([H])c21)c1c([H])c([H])c(N2C([H])([H])C([H])([H])N(C([H])([H])[H])C([H])([H])C2([H])[H])c([H])c1[H]


 26 29  0  0  0  0  0  0  0  0999 V2000
  -90.9249   30.6507   -2.8687 C   0  0  0  0  0  0  0  0  0  0  0  0
  -90.8626   30.6186   -1.4972 C   0  0  0  0  0  0  0  0  0  0  0  0
  -89.6804   30.3471   -0.8455 C   0  0  0  0  0  0  0  0  0  0  0  0
  -88.5052   30.0953   -1.5730 C   0  0  0  0  0  0  0  0  0  0  0  0
  -88.6080   30.1370   -2.9424 C   0  0  0  0  0  0  0  0  0  0  0  0
  -89.7884   30.4078   -3.5909 C   0  0  0  0  0  0  0  0  0  0  0  0
  -87.2905   29.8855   -0.8272 C   0  0  0  0  0  0  0  0  0  0  0  0
  -86.4403   30.8324   -0.5486 C   0  0  0  0  0  0  0  0  0  0  0  0
  -86.5195   32.2245   -0.9132 C   0  0  0  0  0  0  0  0  0  0  0  0
  -87.3927   32.8488   -1.5951 O   0  0  0  0  0  0  0  0  0  0  0  0
  -85.3590   32.8607   -0.3441 N   0  0  0  0  0  0  0  0  0  0  0  0
  -84.5948   31.8863    0.3453 C   0  0  0  0  0  0  0  0  0  0  0  0
  -83.3959   31.9678    1.0627 C   0  0  0  0  0  0  0  0  0  0  0  0
  -82.8438   30.8544    1.6531 C   0  0  0  0  0  0  0  0  0  0  0  0
  -83.4505   29.6214    1.5597 C   0  0  0  0  0  0  0  0  0  0  0  0
  -82.8887   28.5454    2.1476 F   0  0  0  0  0  0  0  0  0  0  0  0
  -84.6368   29.5444    0.8490 C   0  0  0  0  0  0  0  0  0  0  0  0
  -85.1988   30.6546    0.2531 C   0  0  0  0  0  0  0  0  0  0  0  0
  -85.1346   33.8740   -0.4352 H   0  0  0  0  0  0  0  0  0  0  0  0
  -95.2178   32.6617   -5.4933 C   0  0  0  0  0  0  0  0  0  0  0  0
  -94.5818   31.4765   -4.8971 N   0  0  0  0  0  0  0  0  0  0  0  0
  -94.3974   31.7209   -3.5106 C   0  0  0  0  0  0  0  0  0  0  0  0
  -93.3783   30.8708   -2.8342 C   0  0  0  0  0  0  0  0  0  0  0  0
  -92.1308   30.9331   -3.5248 N   0  0  0  0  0  0  0  0  0  0  0  0
  -92.1274   31.2843   -4.9125 C   0  0  0  0  0  0  0  0  0  0  0  0
  -93.4242   31.1022   -5.6302 C   0  0  0  0  0  0  0  0  0  0  0  0
 20 21  1  0  0  0
 21 22  1  0  0  0
 22 23  1  0  0  0
 23 24  1  0  0  0
 24 25  1  0  0  0
 25 26  1  0  0  0
 24  1  1  0  0  0
  1  2  2  0  0  0
  2  3  1  0  0  0
  3  4  2  0  0  0
  4  7  1  0  0  0
  7  8  2  0  0  0
  8  9  1  0  0  0
  9 10  2  0  0  0
  9 11  1  0  0  0
 11 12  1  0  0  0
 12 13  2  0  0  0
 13 14  1  0  0  0
 14 15  2  0  0  0
 15 16  1  0  0  0
 15 17  1  0  0  0
 17 18  2  0  0  0
  4  5  1  0  0  0
  5  6  2  0  0  0
 26 21  1  0  0  0
  6  1  1  0  0  0
 18  8  1  0  0  0
 18 12  1  0  0  0
 11 19  1  0  0  0
M  END
> <minimizedAffinity>
-7.94442

> <CNNscore>
0.2150032669

> <CNNaffinity>
5.5594339371

> <CNN_VS>
1.1952964067

> <CNNaffinity_variance>
0.1364687979

$$$$
[H]/C(=C1/C(=O)N([H])c2c([H])c([H])c(F)c([H])c21)c1c([H])c([H])c(N2C([H])([H])C([H])([H])N(C([H])([H])[H])C([H])([H])C2([H])[H])c([H])c1[H]


 26 29  0  0  0  0  0  0  0  0999 V2000
  -87.8475   34.6627   -3.0360 C   0  0  0  0  0  0  0  0  0  0  0  0
  -86.6972   34.0678   -2.5790 C   0  0  0  0  0  0  0  0  0  0  0  0
  -86.7447   32.9339   -1.7992 C   0  0  0  0  0  0  0  0  0  0  0  0
  -87.9777   32.3572   -1.4516 C   0  0  0  0  0  0  0  0  0  0  0  0
  -89.1053   32.9809   -1.9283 C   0  0  0  0  0  0  0  0  0  0  0  0
  -89.0560   34.1123   -2.7060 C   0  0  0  0  0  0  0  0  0  0  0  0
  -87.9517   31.1341   -0.6906 C   0  0  0  0  0  0  0  0  0  0  0  0
  -87.9038   29.9486   -1.2284 C   0  0  0  0  0  0  0  0  0  0  0  0
  -87.8761   29.6165   -2.6306 C   0  0  0  0  0  0  0  0  0  0  0  0
  -87.9166   30.3679   -3.6559 O   0  0  0  0  0  0  0  0  0  0  0  0
  -87.7919   28.1803   -2.7069 N   0  0  0  0  0  0  0  0  0  0  0  0
  -87.7702   27.6528   -1.3916 C   0  0  0  0  0  0  0  0  0  0  0  0
  -87.6978   26.3420   -0.9064 C   0  0  0  0  0  0  0  0  0  0  0  0
  -87.6921   26.0838    0.4450 C   0  0  0  0  0  0  0  0  0  0  0  0
  -87.7574   27.1044    1.3676 C   0  0  0  0  0  0  0  0  0  0  0  0
  -87.7504   26.8245    2.6869 F   0  0  0  0  0  0  0  0  0  0  0  0
  -87.8291   28.4002    0.8838 C   0  0  0  0  0  0  0  0  0  0  0  0
  -87.8354   28.6702   -0.4691 C   0  0  0  0  0  0  0  0  0  0  0  0
  -87.7541   27.6356   -3.5941 H   0  0  0  0  0  0  0  0  0  0  0  0
  -86.6639   38.8895   -6.2132 C   0  0  0  0  0  0  0  0  0  0  0  0
  -87.7071   38.1436   -5.4921 N   0  0  0  0  0  0  0  0  0  0  0  0
  -87.3921   38.1640   -4.1079 C   0  0  0  0  0  0  0  0  0  0  0  0
  -88.0387   37.1064   -3.2820 C   0  0  0  0  0  0  0  0  0  0  0  0
  -87.7909   35.8136   -3.8338 N   0  0  0  0  0  0  0  0  0  0  0  0
  -87.4876   35.7056   -5.2285 C   0  0  0  0  0  0  0  0  0  0  0  0
  -87.9059   36.8632   -6.0742 C   0  0  0  0  0  0  0  0  0  0  0  0
 20 21  1  0  0  0
 21 22  1  0  0  0
 22 23  1  0  0  0
 23 24  1  0  0  0
 24 25  1  0  0  0
 25 26  1  0  0  0
 24  1  1  0  0  0
  1  2  2  0  0  0
  2  3  1  0  0  0
  3  4  2  0  0  0
  4  7  1  0  0  0
  7  8  2  0  0  0
  8  9  1  0  0  0
  9 10  2  0  0  0
  9 11  1  0  0  0
 11 12  1  0  0  0
 12 13  2  0  0  0
 13 14  1  0  0  0
 14 15  2  0  0  0
 15 16  1  0  0  0
 15 17  1  0  0  0
 17 18  2  0  0  0
  4  5  1  0  0  0
  5  6  2  0  0  0
 26 21  1  0  0  0
  6  1  1  0  0  0
 18  8  1  0  0  0
 18 12  1  0  0  0
 11 19  1  0  0  0
M  END
> <minimizedAffinity>
-8.16407

> <CNNscore>
0.1712829471

> <CNNaffinity>
5.1321153641

> <CNN_VS>
0.8790438175

> <CNNaffinity_variance>
0.3712376356

$$$$
[H]/C(=C1/C(=O)N([H])c2c([H])c([H])c(F)c([H])c21)c1c([H])c([H])c(N2C([H])([H])C([H])([H])N(C([H])([H])[H])C([H])([H])C2([H])[H])c([H])c1[H]


 26 29  0  0  0  0  0  0  0  0999 V2000
  -90.3126   26.5199   -0.4322 C   0  0  0  0  0  0  0  0  0  0  0  0
  -89.2561   26.5032   -1.3093 C   0  0  0  0  0  0  0  0  0  0  0  0
  -88.2641   27.4561   -1.2458 C   0  0  0  0  0  0  0  0  0  0  0  0
  -88.3110   28.4724   -0.2769 C   0  0  0  0  0  0  0  0  0  0  0  0
  -89.3829   28.4549    0.5824 C   0  0  0  0  0  0  0  0  0  0  0  0
  -90.3718   27.5035    0.5173 C   0  0  0  0  0  0  0  0  0  0  0  0
  -87.2062   29.3957   -0.2240 C   0  0  0  0  0  0  0  0  0  0  0  0
  -86.1351   29.2014    0.4915 C   0  0  0  0  0  0  0  0  0  0  0  0
  -85.8383   28.0821    1.3495 C   0  0  0  0  0  0  0  0  0  0  0  0
  -86.5326   27.0550    1.6331 O   0  0  0  0  0  0  0  0  0  0  0  0
  -84.5241   28.3205    1.8893 N   0  0  0  0  0  0  0  0  0  0  0  0
  -84.0350   29.5483    1.3773 C   0  0  0  0  0  0  0  0  0  0  0  0
  -82.8331   30.2372    1.5770 C   0  0  0  0  0  0  0  0  0  0  0  0
  -82.5905   31.4387    0.9522 C   0  0  0  0  0  0  0  0  0  0  0  0
  -83.5201   32.0060    0.1089 C   0  0  0  0  0  0  0  0  0  0  0  0
  -83.2577   33.1849   -0.4913 F   0  0  0  0  0  0  0  0  0  0  0  0
  -84.7083   31.3215   -0.0863 C   0  0  0  0  0  0  0  0  0  0  0  0
  -84.9617   30.1162    0.5352 C   0  0  0  0  0  0  0  0  0  0  0  0
  -84.0296   27.6826    2.5480 H   0  0  0  0  0  0  0  0  0  0  0  0
  -94.7833   23.4597   -0.3375 C   0  0  0  0  0  0  0  0  0  0  0  0
  -93.3562   23.5464   -0.6847 N   0  0  0  0  0  0  0  0  0  0  0  0
  -92.6238   23.8004    0.5048 C   0  0  0  0  0  0  0  0  0  0  0  0
  -91.2619   24.3733    0.3157 C   0  0  0  0  0  0  0  0  0  0  0  0
  -91.3157   25.5434   -0.4997 N   0  0  0  0  0  0  0  0  0  0  0  0
  -92.4150   25.7054   -1.4021 C   0  0  0  0  0  0  0  0  0  0  0  0
  -93.1518   24.4557   -1.7566 C   0  0  0  0  0  0  0  0  0  0  0  0
 20 21  1  0  0  0
 21 22  1  0  0  0
 22 23  1  0  0  0
 23 24  1  0  0  0
 24 25  1  0  0  0
 25 26  1  0  0  0
 24  1  1  0  0  0
  1  2  2  0  0  0
  2  3  1  0  0  0
  3  4  2  0  0  0
  4  7  1  0  0  0
  7  8  2  0  0  0
  8  9  1  0  0  0
  9 10  2  0  0  0
  9 11  1  0  0  0
 11 12  1  0  0  0
 12 13  2  0  0  0
 13 14  1  0  0  0
 14 15  2  0  0  0
 15 16  1  0  0  0
 15 17  1  0  0  0
 17 18  2  0  0  0
  4  5  1  0  0  0
  5  6  2  0  0  0
 26 21  1  0  0  0
  6  1  1  0  0  0
 18  8  1  0  0  0
 18 12  1  0  0  0
 11 19  1  0  0  0
M  END
> <minimizedAffinity>
-8.32672

> <CNNscore>
0.1618169099

> <CNNaffinity>
5.5738821030

> <CNN_VS>
0.9019483924

> <CNNaffinity_variance>
0.2404917479

$$$$
[H]/C(=C1/C(=O)N([H])c2c([H])c([H])c(F)c([H])c21)c1c([H])c([H])c(N2C([H])([H])C([H])([H])N(C([H])([H])[H])C([H])([H])C2([H])[H])c([H])c1[H]


 26 29  0  0  0  0  0  0  0  0999 V2000
  -86.7299   32.2013   -0.5901 C   0  0  0  0  0  0  0  0  0  0  0  0
  -88.0979   32.0831   -0.5746 C   0  0  0  0  0  0  0  0  0  0  0  0
  -88.8892   32.8769   -1.3744 C   0  0  0  0  0  0  0  0  0  0  0  0
  -88.3115   33.8308   -2.2289 C   0  0  0  0  0  0  0  0  0  0  0  0
  -86.9404   33.9184   -2.2164 C   0  0  0  0  0  0  0  0  0  0  0  0
  -86.1526   33.1258   -1.4174 C   0  0  0  0  0  0  0  0  0  0  0  0
  -89.1939   34.5796   -3.0871 C   0  0  0  0  0  0  0  0  0  0  0  0
  -89.6045   34.1561   -4.2485 C   0  0  0  0  0  0  0  0  0  0  0  0
  -89.2769   32.9132   -4.9006 C   0  0  0  0  0  0  0  0  0  0  0  0
  -88.5129   31.9658   -4.5314 O   0  0  0  0  0  0  0  0  0  0  0  0
  -90.0041   32.9022   -6.1442 N   0  0  0  0  0  0  0  0  0  0  0  0
  -90.7511   34.1022   -6.2480 C   0  0  0  0  0  0  0  0  0  0  0  0
  -91.6125   34.5898   -7.2375 C   0  0  0  0  0  0  0  0  0  0  0  0
  -92.2309   35.8114   -7.1023 C   0  0  0  0  0  0  0  0  0  0  0  0
  -92.0248   36.5972   -5.9900 C   0  0  0  0  0  0  0  0  0  0  0  0
  -92.6431   37.7910   -5.8818 F   0  0  0  0  0  0  0  0  0  0  0  0
  -91.1717   36.1116   -5.0130 C   0  0  0  0  0  0  0  0  0  0  0  0
  -90.5466   34.8881   -5.1385 C   0  0  0  0  0  0  0  0  0  0  0  0
  -89.9731   32.1288   -6.8416 H   0  0  0  0  0  0  0  0  0  0  0  0
  -82.9127   29.2866    1.9189 C   0  0  0  0  0  0  0  0  0  0  0  0
  -84.3089   29.7503    1.9201 N   0  0  0  0  0  0  0  0  0  0  0  0
  -84.9402   29.2637    0.7451 C   0  0  0  0  0  0  0  0  0  0  0  0
  -86.1759   29.9840    0.3293 C   0  0  0  0  0  0  0  0  0  0  0  0
  -85.9308   31.3860    0.2231 N   0  0  0  0  0  0  0  0  0  0  0  0
  -84.8517   31.9562    0.9710 C   0  0  0  0  0  0  0  0  0  0  0  0
  -84.3750   31.1527    2.1359 C   0  0  0  0  0  0  0  0  0  0  0  0
 20 21  1  0  0  0
 21 22  1  0  0  0
 22 23  1  0  0  0
 23 24  1  0  0  0
 24 25  1  0  0  0
 25 26  1  0  0  0
 24  1  1  0  0  0
  1  2  2  0  0  0
  2  3  1  0  0  0
  3  4  2  0  0  0
  4  7  1  0  0  0
  7  8  2  0  0  0
  8  9  1  0  0  0
  9 10  2  0  0  0
  9 11  1  0  0  0
 11 12  1  0  0  0
 12 13  2  0  0  0
 13 14  1  0  0  0
 14 15  2  0  0  0
 15 16  1  0  0  0
 15 17  1  0  0  0
 17 18  2  0  0  0
  4  5  1  0  0  0
  5  6  2  0  0  0
 26 21  1  0  0  0
  6  1  1  0  0  0
 18  8  1  0  0  0
 18 12  1  0  0  0
 11 19  1  0  0  0
M  END
> <minimizedAffinity>
-7.97160

> <CNNscore>
0.1570574194

> <CNNaffinity>
5.2875008583

> <CNN_VS>
0.8304412365

> <CNNaffinity_variance>
0.0895607099

$$$$
[H]OC(=O)C([H])([H])N([H])C(=O)[C@@]([H])(N([H])C(=O)[C@@]([H])(N([H])C(=O)c1c([H])c(OC([H])([H])[H])c(OC([H])([H])[H])c(OC([H])([H])[H])c1[H])C([H])([H])c1c([H])c([H])c([H])c([H])c1[H])C([H])([H])c1c([H])c([H])c([H])c([H])c1[H]


 45 47  0  0  0  0  0  0  0  0999 V2000
  -86.6666   32.9174   -1.7743 C   0  0  0  0  0  0  0  0  0  0  0  0
  -87.5923   33.5806   -3.9771 C   0  0  0  0  0  0  0  0  0  0  0  0
  -87.5608   32.3653   -4.3204 O   0  0  0  0  0  0  0  0  0  0  0  0
  -87.1445   33.9228   -2.6784 N   0  0  0  0  0  0  0  0  0  0  0  0
  -87.1595   34.9251   -2.3608 H   0  0  0  0  0  0  0  0  0  0  0  0
  -89.7536   35.2955   -6.5210 C   0  0  0  0  0  0  0  0  0  0  0  0
  -89.3104   34.3861   -5.5824 C   0  0  0  0  0  0  0  0  0  0  0  0
  -88.0896   34.5175   -4.9556 C   0  0  0  0  0  0  0  0  0  0  0  0
  -87.3138   35.6015   -5.2994 C   0  0  0  0  0  0  0  0  0  0  0  0
  -87.7323   36.5350   -6.2409 C   0  0  0  0  0  0  0  0  0  0  0  0
  -88.9732   36.3738   -6.8583 C   0  0  0  0  0  0  0  0  0  0  0  0
  -91.0985   34.4114   -8.3377 C   0  0  0  0  0  0  0  0  0  0  0  0
  -90.9895   35.1049   -7.1131 O   0  0  0  0  0  0  0  0  0  0  0  0
  -86.9030   37.5897   -6.5312 O   0  0  0  0  0  0  0  0  0  0  0  0
  -86.8772   38.7525   -5.7276 C   0  0  0  0  0  0  0  0  0  0  0  0
  -89.3696   37.3024   -7.7840 O   0  0  0  0  0  0  0  0  0  0  0  0
  -90.2064   38.3993   -7.4782 C   0  0  0  0  0  0  0  0  0  0  0  0
  -87.7489   31.9652   -1.3940 C   0  0  0  0  0  0  0  0  0  0  0  0
  -88.6529   32.2818   -0.5714 O   0  0  0  0  0  0  0  0  0  0  0  0
  -87.7697   30.6844   -1.9613 N   0  0  0  0  0  0  0  0  0  0  0  0
  -87.0562   30.3763   -2.6363 H   0  0  0  0  0  0  0  0  0  0  0  0
  -88.8318   29.7150   -1.6077 C   0  0  0  0  0  0  0  0  0  0  0  0
  -90.0704   30.1920   -2.2236 C   0  0  0  0  0  0  0  0  0  0  0  0
  -91.1308   30.2210   -1.5568 O   0  0  0  0  0  0  0  0  0  0  0  0
  -90.1051   30.6302   -3.5633 N   0  0  0  0  0  0  0  0  0  0  0  0
  -89.1888   30.6295   -4.1014 H   0  0  0  0  0  0  0  0  0  0  0  0
  -91.2963   31.1019   -4.2273 C   0  0  0  0  0  0  0  0  0  0  0  0
  -92.0056   30.0815   -5.0104 C   0  0  0  0  0  0  0  0  0  0  0  0
  -92.7641   30.4999   -6.1048 O   0  0  0  0  0  0  0  0  0  0  0  0
  -91.9732   28.8631   -4.7588 O   0  0  0  0  0  0  0  0  0  0  0  0
  -92.2350   30.5397   -6.9858 H   0  0  0  0  0  0  0  0  0  0  0  0
  -88.8091   29.6914   -0.1078 C   0  0  0  0  0  0  0  0  0  0  0  0
  -88.0437   28.6485    0.5485 C   0  0  0  0  0  0  0  0  0  0  0  0
  -88.6522   27.4520    0.9483 C   0  0  0  0  0  0  0  0  0  0  0  0
  -87.9515   26.4494    1.5687 C   0  0  0  0  0  0  0  0  0  0  0  0
  -86.6026   26.5698    1.8322 C   0  0  0  0  0  0  0  0  0  0  0  0
  -86.0096   27.7481    1.4368 C   0  0  0  0  0  0  0  0  0  0  0  0
  -86.6927   28.7625    0.8150 C   0  0  0  0  0  0  0  0  0  0  0  0
  -86.0785   33.4759   -0.5195 C   0  0  0  0  0  0  0  0  0  0  0  0
  -84.9700   32.6714    0.0250 C   0  0  0  0  0  0  0  0  0  0  0  0
  -83.7467   32.7336   -0.6087 C   0  0  0  0  0  0  0  0  0  0  0  0
  -82.6687   32.0068   -0.1526 C   0  0  0  0  0  0  0  0  0  0  0  0
  -82.8002   31.2094    0.9423 C   0  0  0  0  0  0  0  0  0  0  0  0
  -84.0169   31.1149    1.6150 C   0  0  0  0  0  0  0  0  0  0  0  0
  -85.0667   31.8541    1.1298 C   0  0  0  0  0  0  0  0  0  0  0  0
 12 13  1  0  0  0
 13  6  1  0  0  0
  6  7  2  0  0  0
  7  8  1  0  0  0
  8  9  2  0  0  0
  9 10  1  0  0  0
 10 14  1  0  0  0
 14 15  1  0  0  0
 10 11  2  0  0  0
 11 16  1  0  0  0
 16 17  1  0  0  0
  8  2  1  0  0  0
  2  3  2  0  0  0
  2  4  1  0  0  0
  4  1  1  0  0  0
  1 39  1  0  0  0
 39 40  1  0  0  0
 40 41  2  0  0  0
 41 42  1  0  0  0
 42 43  2  0  0  0
 43 44  1  0  0  0
 44 45  2  0  0  0
  1 18  1  0  0  0
 18 19  2  0  0  0
 18 20  1  0  0  0
 20 22  1  0  0  0
 22 32  1  0  0  0
 32 33  1  0  0  0
 33 34  2  0  0  0
 34 35  1  0  0  0
 35 36  2  0  0  0
 36 37  1  0  0  0
 37 38  2  0  0  0
 22 23  1  0  0  0
 23 24  2  0  0  0
 23 25  1  0  0  0
 25 27  1  0  0  0
 27 28  1  0  0  0
 28 29  1  0  0  0
 28 30  2  0  0  0
 11  6  1  0  0  0
 45 40  1  0  0  0
 38 33  1  0  0  0
  4  5  1  0  0  0
 20 21  1  0  0  0
 25 26  1  0  0  0
 29 31  1  0  0  0
M  END
> <minimizedAffinity>
-8.44097

> <CNNscore>
0.2419566661

> <CNNaffinity>
6.2467088699

> <CNN_VS>
1.5114328861

> <CNNaffinity_variance>
0.4790957570

$$$$
[H]OC(=O)C([H])([H])N([H])C(=O)[C@@]([H])(N([H])C(=O)[C@@]([H])(N([H])C(=O)c1c([H])c(OC([H])([H])[H])c(OC([H])([H])[H])c(OC([H])([H])[H])c1[H])C([H])([H])c1c([H])c([H])c([H])c([H])c1[H])C([H])([H])c1c([H])c([H])c([H])c([H])c1[H]


 45 47  0  0  0  0  0  0  0  0999 V2000
  -86.5477   32.6697   -1.5384 C   0  0  0  0  0  0  0  0  0  0  0  0
  -87.4056   33.4124   -3.7433 C   0  0  0  0  0  0  0  0  0  0  0  0
  -87.3586   32.2109   -4.1305 O   0  0  0  0  0  0  0  0  0  0  0  0
  -87.0005   33.7069   -2.4191 N   0  0  0  0  0  0  0  0  0  0  0  0
  -87.0293   34.6966   -2.0650 H   0  0  0  0  0  0  0  0  0  0  0  0
  -87.6253   36.4033   -5.9993 C   0  0  0  0  0  0  0  0  0  0  0  0
  -87.1437   35.4874   -5.0862 C   0  0  0  0  0  0  0  0  0  0  0  0
  -87.8751   34.3840   -4.7015 C   0  0  0  0  0  0  0  0  0  0  0  0
  -89.1202   34.2204   -5.2655 C   0  0  0  0  0  0  0  0  0  0  0  0
  -89.6331   35.1253   -6.1881 C   0  0  0  0  0  0  0  0  0  0  0  0
  -88.8685   36.2328   -6.5567 C   0  0  0  0  0  0  0  0  0  0  0  0
  -86.3105   38.3354   -5.3437 C   0  0  0  0  0  0  0  0  0  0  0  0
  -86.8401   37.4897   -6.3423 O   0  0  0  0  0  0  0  0  0  0  0  0
  -90.8829   34.8946   -6.7069 O   0  0  0  0  0  0  0  0  0  0  0  0
  -92.0534   35.2768   -6.0124 C   0  0  0  0  0  0  0  0  0  0  0  0
  -89.3893   37.1146   -7.4664 O   0  0  0  0  0  0  0  0  0  0  0  0
  -90.0540   38.3075   -7.1028 C   0  0  0  0  0  0  0  0  0  0  0  0
  -87.6572   31.7465   -1.1651 C   0  0  0  0  0  0  0  0  0  0  0  0
  -88.6270   32.1281   -0.4523 O   0  0  0  0  0  0  0  0  0  0  0  0
  -87.6297   30.4198   -1.6146 N   0  0  0  0  0  0  0  0  0  0  0  0
  -86.8620   30.0584   -2.1974 H   0  0  0  0  0  0  0  0  0  0  0  0
  -88.7168   29.4772   -1.2645 C   0  0  0  0  0  0  0  0  0  0  0  0
  -88.0926   28.3255   -0.6125 C   0  0  0  0  0  0  0  0  0  0  0  0
  -86.8448   28.2574   -0.5217 O   0  0  0  0  0  0  0  0  0  0  0  0
  -88.8654   27.2773   -0.0721 N   0  0  0  0  0  0  0  0  0  0  0  0
  -89.9224   27.3700   -0.1293 H   0  0  0  0  0  0  0  0  0  0  0  0
  -88.3075   26.1134    0.5733 C   0  0  0  0  0  0  0  0  0  0  0  0
  -88.0126   26.2876    2.0017 C   0  0  0  0  0  0  0  0  0  0  0  0
  -86.6786   26.2417    2.4096 O   0  0  0  0  0  0  0  0  0  0  0  0
  -88.8801   26.4739    2.8744 O   0  0  0  0  0  0  0  0  0  0  0  0
  -86.2077   27.1558    2.3927 H   0  0  0  0  0  0  0  0  0  0  0  0
  -89.3904   29.2053   -2.5771 C   0  0  0  0  0  0  0  0  0  0  0  0
  -90.5761   29.9722   -2.9094 C   0  0  0  0  0  0  0  0  0  0  0  0
  -91.8240   29.6395   -2.3674 C   0  0  0  0  0  0  0  0  0  0  0  0
  -92.9599   30.3489   -2.6634 C   0  0  0  0  0  0  0  0  0  0  0  0
  -92.9304   31.4333   -3.5158 C   0  0  0  0  0  0  0  0  0  0  0  0
  -91.7008   31.7559   -4.0454 C   0  0  0  0  0  0  0  0  0  0  0  0
  -90.5534   31.0593   -3.7619 C   0  0  0  0  0  0  0  0  0  0  0  0
  -85.9299   33.1849   -0.2794 C   0  0  0  0  0  0  0  0  0  0  0  0
  -84.8955   32.2966    0.2803 C   0  0  0  0  0  0  0  0  0  0  0  0
  -83.6247   32.3595   -0.2517 C   0  0  0  0  0  0  0  0  0  0  0  0
  -82.6111   31.5568    0.2242 C   0  0  0  0  0  0  0  0  0  0  0  0
  -82.8552   30.6817    1.2374 C   0  0  0  0  0  0  0  0  0  0  0  0
  -84.1236   30.5832    1.8059 C   0  0  0  0  0  0  0  0  0  0  0  0
  -85.1065   31.3995    1.3043 C   0  0  0  0  0  0  0  0  0  0  0  0
 12 13  1  0  0  0
 13  6  1  0  0  0
  6  7  2  0  0  0
  7  8  1  0  0  0
  8  9  2  0  0  0
  9 10  1  0  0  0
 10 14  1  0  0  0
 14 15  1  0  0  0
 10 11  2  0  0  0
 11 16  1  0  0  0
 16 17  1  0  0  0
  8  2  1  0  0  0
  2  3  2  0  0  0
  2  4  1  0  0  0
  4  1  1  0  0  0
  1 39  1  0  0  0
 39 40  1  0  0  0
 40 41  2  0  0  0
 41 42  1  0  0  0
 42 43  2  0  0  0
 43 44  1  0  0  0
 44 45  2  0  0  0
  1 18  1  0  0  0
 18 19  2  0  0  0
 18 20  1  0  0  0
 20 22  1  0  0  0
 22 32  1  0  0  0
 32 33  1  0  0  0
 33 34  2  0  0  0
 34 35  1  0  0  0
 35 36  2  0  0  0
 36 37  1  0  0  0
 37 38  2  0  0  0
 22 23  1  0  0  0
 23 24  2  0  0  0
 23 25  1  0  0  0
 25 27  1  0  0  0
 27 28  1  0  0  0
 28 29  1  0  0  0
 28 30  2  0  0  0
 11  6  1  0  0  0
 45 40  1  0  0  0
 38 33  1  0  0  0
  4  5  1  0  0  0
 20 21  1  0  0  0
 25 26  1  0  0  0
 29 31  1  0  0  0
M  END
> <minimizedAffinity>
-7.77978

> <CNNscore>
0.2125383019

> <CNNaffinity>
6.3867497444

> <CNN_VS>
1.3574289083

> <CNNaffinity_variance>
0.4257245660

$$$$
[H]OC(=O)C([H])([H])N([H])C(=O)[C@@]([H])(N([H])C(=O)[C@@]([H])(N([H])C(=O)c1c([H])c(OC([H])([H])[H])c(OC([H])([H])[H])c(OC([H])([H])[H])c1[H])C([H])([H])c1c([H])c([H])c([H])c([H])c1[H])C([H])([H])c1c([H])c([H])c([H])c([H])c1[H]


 45 47  0  0  0  0  0  0  0  0999 V2000
  -87.5006   30.4177   -1.2131 C   0  0  0  0  0  0  0  0  0  0  0  0
  -88.1107   31.5385   -3.3394 C   0  0  0  0  0  0  0  0  0  0  0  0
  -87.6311   30.5492   -3.9614 O   0  0  0  0  0  0  0  0  0  0  0  0
  -88.0707   31.5249   -1.9243 N   0  0  0  0  0  0  0  0  0  0  0  0
  -88.4632   32.3321   -1.3763 H   0  0  0  0  0  0  0  0  0  0  0  0
  -90.4514   33.6369   -5.3890 C   0  0  0  0  0  0  0  0  0  0  0  0
  -89.9568   32.6066   -4.6155 C   0  0  0  0  0  0  0  0  0  0  0  0
  -88.6619   32.6033   -4.1424 C   0  0  0  0  0  0  0  0  0  0  0  0
  -87.8646   33.6767   -4.4697 C   0  0  0  0  0  0  0  0  0  0  0  0
  -88.3335   34.7299   -5.2468 C   0  0  0  0  0  0  0  0  0  0  0  0
  -89.6491   34.7036   -5.7112 C   0  0  0  0  0  0  0  0  0  0  0  0
  -92.6000   32.5094   -5.4502 C   0  0  0  0  0  0  0  0  0  0  0  0
  -91.7609   33.5784   -5.8321 O   0  0  0  0  0  0  0  0  0  0  0  0
  -87.4785   35.7654   -5.5314 O   0  0  0  0  0  0  0  0  0  0  0  0
  -86.9778   36.6109   -4.5151 C   0  0  0  0  0  0  0  0  0  0  0  0
  -90.0945   35.7490   -6.4761 O   0  0  0  0  0  0  0  0  0  0  0  0
  -90.1902   35.6983   -7.8850 C   0  0  0  0  0  0  0  0  0  0  0  0
  -88.5059   29.3416   -0.9805 C   0  0  0  0  0  0  0  0  0  0  0  0
  -89.7339   29.5183   -1.2146 O   0  0  0  0  0  0  0  0  0  0  0  0
  -88.0832   28.0990   -0.4902 N   0  0  0  0  0  0  0  0  0  0  0  0
  -87.0941   27.9036   -0.2826 H   0  0  0  0  0  0  0  0  0  0  0  0
  -89.0548   27.0076   -0.2504 C   0  0  0  0  0  0  0  0  0  0  0  0
  -88.7671   26.4609    1.0761 C   0  0  0  0  0  0  0  0  0  0  0  0
  -87.5840   26.3949    1.4832 O   0  0  0  0  0  0  0  0  0  0  0  0
  -89.7974   26.0038    1.9232 N   0  0  0  0  0  0  0  0  0  0  0  0
  -90.7961   26.0993    1.5732 H   0  0  0  0  0  0  0  0  0  0  0  0
  -89.5752   25.4470    3.2358 C   0  0  0  0  0  0  0  0  0  0  0  0
  -90.7985   25.1926    4.0081 C   0  0  0  0  0  0  0  0  0  0  0  0
  -91.4836   23.9976    3.7828 O   0  0  0  0  0  0  0  0  0  0  0  0
  -91.2647   25.9781    4.8534 O   0  0  0  0  0  0  0  0  0  0  0  0
  -91.1697   23.2205    4.3788 H   0  0  0  0  0  0  0  0  0  0  0  0
  -88.8391   26.0766   -1.4069 C   0  0  0  0  0  0  0  0  0  0  0  0
  -89.9895   25.3752   -1.9443 C   0  0  0  0  0  0  0  0  0  0  0  0
  -90.1402   23.9945   -1.7634 C   0  0  0  0  0  0  0  0  0  0  0  0
  -91.2188   23.3076   -2.2592 C   0  0  0  0  0  0  0  0  0  0  0  0
  -92.2166   23.9463   -2.9661 C   0  0  0  0  0  0  0  0  0  0  0  0
  -92.0634   25.3037   -3.1406 C   0  0  0  0  0  0  0  0  0  0  0  0
  -90.9924   26.0088   -2.6527 C   0  0  0  0  0  0  0  0  0  0  0  0
  -86.9134   30.7969    0.1073 C   0  0  0  0  0  0  0  0  0  0  0  0
  -85.5186   31.2658    0.0232 C   0  0  0  0  0  0  0  0  0  0  0  0
  -85.2886   32.5514   -0.4201 C   0  0  0  0  0  0  0  0  0  0  0  0
  -84.0094   33.0527   -0.5232 C   0  0  0  0  0  0  0  0  0  0  0  0
  -82.9448   32.2756   -0.1845 C   0  0  0  0  0  0  0  0  0  0  0  0
  -83.1286   30.9706    0.2683 C   0  0  0  0  0  0  0  0  0  0  0  0
  -84.4178   30.5078    0.3570 C   0  0  0  0  0  0  0  0  0  0  0  0
 12 13  1  0  0  0
 13  6  1  0  0  0
  6  7  2  0  0  0
  7  8  1  0  0  0
  8  9  2  0  0  0
  9 10  1  0  0  0
 10 14  1  0  0  0
 14 15  1  0  0  0
 10 11  2  0  0  0
 11 16  1  0  0  0
 16 17  1  0  0  0
  8  2  1  0  0  0
  2  3  2  0  0  0
  2  4  1  0  0  0
  4  1  1  0  0  0
  1 39  1  0  0  0
 39 40  1  0  0  0
 40 41  2  0  0  0
 41 42  1  0  0  0
 42 43  2  0  0  0
 43 44  1  0  0  0
 44 45  2  0  0  0
  1 18  1  0  0  0
 18 19  2  0  0  0
 18 20  1  0  0  0
 20 22  1  0  0  0
 22 32  1  0  0  0
 32 33  1  0  0  0
 33 34  2  0  0  0
 34 35  1  0  0  0
 35 36  2  0  0  0
 36 37  1  0  0  0
 37 38  2  0  0  0
 22 23  1  0  0  0
 23 24  2  0  0  0
 23 25  1  0  0  0
 25 27  1  0  0  0
 27 28  1  0  0  0
 28 29  1  0  0  0
 28 30  2  0  0  0
 11  6  1  0  0  0
 45 40  1  0  0  0
 38 33  1  0  0  0
  4  5  1  0  0  0
 20 21  1  0  0  0
 25 26  1  0  0  0
 29 31  1  0  0  0
M  END
> <minimizedAffinity>
-8.63347

> <CNNscore>
0.1980000883

> <CNNaffinity>
6.1995577812

> <CNN_VS>
1.2275129557

> <CNNaffinity_variance>
0.4949362278

$$$$
[H]OC(=O)C([H])([H])N([H])C(=O)[C@@]([H])(N([H])C(=O)[C@@]([H])(N([H])C(=O)c1c([H])c(OC([H])([H])[H])c(OC([H])([H])[H])c(OC([H])([H])[H])c1[H])C([H])([H])c1c([H])c([H])c([H])c([H])c1[H])C([H])([H])c1c([H])c([H])c([H])c([H])c1[H]


 45 47  0  0  0  0  0  0  0  0999 V2000
  -86.5119   32.9359   -1.4806 C   0  0  0  0  0  0  0  0  0  0  0  0
  -87.2428   33.9020   -3.6443 C   0  0  0  0  0  0  0  0  0  0  0  0
  -87.3884   32.7266   -4.0835 O   0  0  0  0  0  0  0  0  0  0  0  0
  -86.7945   34.0697   -2.3120 N   0  0  0  0  0  0  0  0  0  0  0  0
  -86.6648   35.0349   -1.9151 H   0  0  0  0  0  0  0  0  0  0  0  0
  -87.2153   37.1975   -5.4393 C   0  0  0  0  0  0  0  0  0  0  0  0
  -86.8890   36.1856   -4.5596 C   0  0  0  0  0  0  0  0  0  0  0  0
  -87.5524   34.9771   -4.5558 C   0  0  0  0  0  0  0  0  0  0  0  0
  -88.5660   34.8073   -5.4717 C   0  0  0  0  0  0  0  0  0  0  0  0
  -88.9182   35.8074   -6.3711 C   0  0  0  0  0  0  0  0  0  0  0  0
  -88.2281   37.0200   -6.3494 C   0  0  0  0  0  0  0  0  0  0  0  0
  -85.0987   38.3855   -5.4294 C   0  0  0  0  0  0  0  0  0  0  0  0
  -86.5098   38.3868   -5.3903 O   0  0  0  0  0  0  0  0  0  0  0  0
  -89.9402   35.5638   -7.2545 O   0  0  0  0  0  0  0  0  0  0  0  0
  -91.2808   35.4501   -6.8206 C   0  0  0  0  0  0  0  0  0  0  0  0
  -88.5885   37.9946   -7.2419 O   0  0  0  0  0  0  0  0  0  0  0  0
  -87.9249   38.2097   -8.4708 C   0  0  0  0  0  0  0  0  0  0  0  0
  -87.7427   32.1417   -1.2026 C   0  0  0  0  0  0  0  0  0  0  0  0
  -88.7509   32.6542   -0.6414 O   0  0  0  0  0  0  0  0  0  0  0  0
  -87.7885   30.7910   -1.5721 N   0  0  0  0  0  0  0  0  0  0  0  0
  -86.9939   30.3251   -2.0315 H   0  0  0  0  0  0  0  0  0  0  0  0
  -88.9961   29.9741   -1.3131 C   0  0  0  0  0  0  0  0  0  0  0  0
  -88.7554   29.2333   -0.0744 C   0  0  0  0  0  0  0  0  0  0  0  0
  -89.6987   29.0225    0.7228 O   0  0  0  0  0  0  0  0  0  0  0  0
  -87.4755   28.7390    0.2508 N   0  0  0  0  0  0  0  0  0  0  0  0
  -86.6964   28.8990   -0.4538 H   0  0  0  0  0  0  0  0  0  0  0  0
  -87.1752   28.0108    1.4600 C   0  0  0  0  0  0  0  0  0  0  0  0
  -87.4103   26.5632    1.3773 C   0  0  0  0  0  0  0  0  0  0  0  0
  -87.9012   25.9096    2.5087 O   0  0  0  0  0  0  0  0  0  0  0  0
  -87.1985   25.8801    0.3588 O   0  0  0  0  0  0  0  0  0  0  0  0
  -88.9280   25.8842    2.5606 H   0  0  0  0  0  0  0  0  0  0  0  0
  -89.1418   29.1475   -2.5567 C   0  0  0  0  0  0  0  0  0  0  0  0
  -90.1647   28.1192   -2.5786 C   0  0  0  0  0  0  0  0  0  0  0  0
  -89.8278   26.7656   -2.4523 C   0  0  0  0  0  0  0  0  0  0  0  0
  -90.7751   25.7739   -2.4679 C   0  0  0  0  0  0  0  0  0  0  0  0
  -92.1170   26.0616   -2.6098 C   0  0  0  0  0  0  0  0  0  0  0  0
  -92.4423   27.3940   -2.7333 C   0  0  0  0  0  0  0  0  0  0  0  0
  -91.5101   28.4005   -2.7200 C   0  0  0  0  0  0  0  0  0  0  0  0
  -85.8882   33.2976   -0.1720 C   0  0  0  0  0  0  0  0  0  0  0  0
  -84.8242   32.3709    0.2539 C   0  0  0  0  0  0  0  0  0  0  0  0
  -85.1263   31.4282    1.2141 C   0  0  0  0  0  0  0  0  0  0  0  0
  -84.1785   30.5321    1.6578 C   0  0  0  0  0  0  0  0  0  0  0  0
  -82.9176   30.5670    1.1472 C   0  0  0  0  0  0  0  0  0  0  0  0
  -82.5664   31.5018    0.1753 C   0  0  0  0  0  0  0  0  0  0  0  0
  -83.5383   32.3773   -0.2404 C   0  0  0  0  0  0  0  0  0  0  0  0
 12 13  1  0  0  0
 13  6  1  0  0  0
  6  7  2  0  0  0
  7  8  1  0  0  0
  8  9  2  0  0  0
  9 10  1  0  0  0
 10 14  1  0  0  0
 14 15  1  0  0  0
 10 11  2  0  0  0
 11 16  1  0  0  0
 16 17  1  0  0  0
  8  2  1  0  0  0
  2  3  2  0  0  0
  2  4  1  0  0  0
  4  1  1  0  0  0
  1 39  1  0  0  0
 39 40  1  0  0  0
 40 41  2  0  0  0
 41 42  1  0  0  0
 42 43  2  0  0  0
 43 44  1  0  0  0
 44 45  2  0  0  0
  1 18  1  0  0  0
 18 19  2  0  0  0
 18 20  1  0  0  0
 20 22  1  0  0  0
 22 32  1  0  0  0
 32 33  1  0  0  0
 33 34  2  0  0  0
 34 35  1  0  0  0
 35 36  2  0  0  0
 36 37  1  0  0  0
 37 38  2  0  0  0
 22 23  1  0  0  0
 23 24  2  0  0  0
 23 25  1  0  0  0
 25 27  1  0  0  0
 27 28  1  0  0  0
 28 29  1  0  0  0
 28 30  2  0  0  0
 11  6  1  0  0  0
 45 40  1  0  0  0
 38 33  1  0  0  0
  4  5  1  0  0  0
 20 21  1  0  0  0
 25 26  1  0  0  0
 29 31  1  0  0  0
M  END
> <minimizedAffinity>
-8.10126

> <CNNscore>
0.1706376970

> <CNNaffinity>
6.0060696602

> <CNN_VS>
1.0248619318

> <CNNaffinity_variance>
0.6801985502

$$$$
[H]OC(=O)C([H])([H])N([H])C(=O)[C@@]([H])(N([H])C(=O)[C@@]([H])(N([H])C(=O)c1c([H])c(OC([H])([H])[H])c(OC([H])([H])[H])c(OC([H])([H])[H])c1[H])C([H])([H])c1c([H])c([H])c([H])c([H])c1[H])C([H])([H])c1c([H])c([H])c([H])c([H])c1[H]


 45 47  0  0  0  0  0  0  0  0999 V2000
  -86.3579   32.9083   -1.3052 C   0  0  0  0  0  0  0  0  0  0  0  0
  -87.3127   34.0732   -3.2751 C   0  0  0  0  0  0  0  0  0  0  0  0
  -87.2493   32.9832   -3.9104 O   0  0  0  0  0  0  0  0  0  0  0  0
  -86.8680   34.0935   -1.9312 N   0  0  0  0  0  0  0  0  0  0  0  0
  -86.9090   34.9842   -1.3739 H   0  0  0  0  0  0  0  0  0  0  0  0
  -88.4441   37.5407   -4.1581 C   0  0  0  0  0  0  0  0  0  0  0  0
  -87.9255   36.4756   -3.4502 C   0  0  0  0  0  0  0  0  0  0  0  0
  -87.8406   35.2100   -3.9903 C   0  0  0  0  0  0  0  0  0  0  0  0
  -88.2953   35.0385   -5.2783 C   0  0  0  0  0  0  0  0  0  0  0  0
  -88.8227   36.0915   -6.0173 C   0  0  0  0  0  0  0  0  0  0  0  0
  -88.8958   37.3608   -5.4422 C   0  0  0  0  0  0  0  0  0  0  0  0
  -87.3363   39.3777   -3.0224 C   0  0  0  0  0  0  0  0  0  0  0  0
  -88.5010   38.7857   -3.5569 O   0  0  0  0  0  0  0  0  0  0  0  0
  -89.2559   35.8423   -7.2958 O   0  0  0  0  0  0  0  0  0  0  0  0
  -90.5325   35.2904   -7.5491 C   0  0  0  0  0  0  0  0  0  0  0  0
  -89.4188   38.3866   -6.1841 O   0  0  0  0  0  0  0  0  0  0  0  0
  -90.7758   38.7767   -6.1267 C   0  0  0  0  0  0  0  0  0  0  0  0
  -87.3875   31.8313   -1.2530 C   0  0  0  0  0  0  0  0  0  0  0  0
  -88.5304   32.0292   -0.7544 O   0  0  0  0  0  0  0  0  0  0  0  0
  -87.0855   30.5646   -1.7698 N   0  0  0  0  0  0  0  0  0  0  0  0
  -86.1687   30.3510   -2.1864 H   0  0  0  0  0  0  0  0  0  0  0  0
  -88.0858   29.4732   -1.7363 C   0  0  0  0  0  0  0  0  0  0  0  0
  -89.0790   29.7698   -2.7691 C   0  0  0  0  0  0  0  0  0  0  0  0
  -88.7282   29.8567   -3.9689 O   0  0  0  0  0  0  0  0  0  0  0  0
  -90.4392   29.9592   -2.4497 N   0  0  0  0  0  0  0  0  0  0  0  0
  -90.7219   29.8483   -1.4314 H   0  0  0  0  0  0  0  0  0  0  0  0
  -91.4616   30.2628   -3.4218 C   0  0  0  0  0  0  0  0  0  0  0  0
  -91.7126   31.6966   -3.6191 C   0  0  0  0  0  0  0  0  0  0  0  0
  -92.9662   32.2005   -3.2688 O   0  0  0  0  0  0  0  0  0  0  0  0
  -90.8753   32.4933   -4.0806 O   0  0  0  0  0  0  0  0  0  0  0  0
  -93.0289   32.5150   -2.2917 H   0  0  0  0  0  0  0  0  0  0  0  0
  -88.5834   29.4879   -0.3211 C   0  0  0  0  0  0  0  0  0  0  0  0
  -88.1208   28.4473    0.5775 C   0  0  0  0  0  0  0  0  0  0  0  0
  -86.7659   28.0971    0.6368 C   0  0  0  0  0  0  0  0  0  0  0  0
  -86.3019   27.1187    1.4785 C   0  0  0  0  0  0  0  0  0  0  0  0
  -87.1521   26.4252    2.3150 C   0  0  0  0  0  0  0  0  0  0  0  0
  -88.4829   26.7739    2.2526 C   0  0  0  0  0  0  0  0  0  0  0  0
  -88.9668   27.7493    1.4180 C   0  0  0  0  0  0  0  0  0  0  0  0
  -85.8556   33.1372    0.0831 C   0  0  0  0  0  0  0  0  0  0  0  0
  -84.8557   32.1476    0.5226 C   0  0  0  0  0  0  0  0  0  0  0  0
  -83.6366   32.1221   -0.1217 C   0  0  0  0  0  0  0  0  0  0  0  0
  -82.6575   31.2222    0.2385 C   0  0  0  0  0  0  0  0  0  0  0  0
  -82.8847   30.3371    1.2469 C   0  0  0  0  0  0  0  0  0  0  0  0
  -84.1012   30.3258    1.9265 C   0  0  0  0  0  0  0  0  0  0  0  0
  -85.0510   31.2374    1.5382 C   0  0  0  0  0  0  0  0  0  0  0  0
 12 13  1  0  0  0
 13  6  1  0  0  0
  6  7  2  0  0  0
  7  8  1  0  0  0
  8  9  2  0  0  0
  9 10  1  0  0  0
 10 14  1  0  0  0
 14 15  1  0  0  0
 10 11  2  0  0  0
 11 16  1  0  0  0
 16 17  1  0  0  0
  8  2  1  0  0  0
  2  3  2  0  0  0
  2  4  1  0  0  0
  4  1  1  0  0  0
  1 39  1  0  0  0
 39 40  1  0  0  0
 40 41  2  0  0  0
 41 42  1  0  0  0
 42 43  2  0  0  0
 43 44  1  0  0  0
 44 45  2  0  0  0
  1 18  1  0  0  0
 18 19  2  0  0  0
 18 20  1  0  0  0
 20 22  1  0  0  0
 22 32  1  0  0  0
 32 33  1  0  0  0
 33 34  2  0  0  0
 34 35  1  0  0  0
 35 36  2  0  0  0
 36 37  1  0  0  0
 37 38  2  0  0  0
 22 23  1  0  0  0
 23 24  2  0  0  0
 23 25  1  0  0  0
 25 27  1  0  0  0
 27 28  1  0  0  0
 28 29  1  0  0  0
 28 30  2  0  0  0
 11  6  1  0  0  0
 45 40  1  0  0  0
 38 33  1  0  0  0
  4  5  1  0  0  0
 20 21  1  0  0  0
 25 26  1  0  0  0
 29 31  1  0  0  0
M  END
> <minimizedAffinity>
-8.18089

> <CNNscore>
0.1470761597

> <CNNaffinity>
6.2559471130

> <CNN_VS>
0.9201006889

> <CNNaffinity_variance>
0.4078235030

$$$$
[H]OC(=O)C([H])([H])N([H])C(=O)[C@@]([H])(N([H])C(=O)[C@@]([H])(N([H])C(=O)c1c([H])c(OC([H])([H])[H])c(OC([H])([H])[H])c(OC([H])([H])[H])c1[H])C([H])([H])c1c([H])c([H])c([H])c([H])c1[H])C([H])([H])c1c([H])c([H])c([H])c([H])c1[H]


 45 47  0  0  0  0  0  0  0  0999 V2000
  -89.8551   27.3287   -0.7736 C   0  0  0  0  0  0  0  0  0  0  0  0
  -88.4351   29.3047   -0.2956 C   0  0  0  0  0  0  0  0  0  0  0  0
  -89.4532   30.0351   -0.4559 O   0  0  0  0  0  0  0  0  0  0  0  0
  -88.5831   27.9048   -0.4467 N   0  0  0  0  0  0  0  0  0  0  0  0
  -87.7558   27.2686   -0.3181 H   0  0  0  0  0  0  0  0  0  0  0  0
  -85.7701   31.9198    0.0814 C   0  0  0  0  0  0  0  0  0  0  0  0
  -86.9658   31.3085   -0.2364 C   0  0  0  0  0  0  0  0  0  0  0  0
  -87.2006   29.9767    0.0315 C   0  0  0  0  0  0  0  0  0  0  0  0
  -86.1901   29.2638    0.6363 C   0  0  0  0  0  0  0  0  0  0  0  0
  -84.9746   29.8510    0.9690 C   0  0  0  0  0  0  0  0  0  0  0  0
  -84.7672   31.2012    0.6842 C   0  0  0  0  0  0  0  0  0  0  0  0
  -85.7887   33.7337   -1.5313 C   0  0  0  0  0  0  0  0  0  0  0  0
  -85.5988   33.2604   -0.2149 O   0  0  0  0  0  0  0  0  0  0  0  0
  -84.0150   29.0751    1.5703 O   0  0  0  0  0  0  0  0  0  0  0  0
  -84.3209   28.2423    2.6709 C   0  0  0  0  0  0  0  0  0  0  0  0
  -83.5636   31.7635    1.0181 O   0  0  0  0  0  0  0  0  0  0  0  0
  -82.4756   31.8649    0.1221 C   0  0  0  0  0  0  0  0  0  0  0  0
  -90.2620   27.6586   -2.1695 C   0  0  0  0  0  0  0  0  0  0  0  0
  -89.9362   26.9278   -3.1462 O   0  0  0  0  0  0  0  0  0  0  0  0
  -91.0267   28.8075   -2.4104 N   0  0  0  0  0  0  0  0  0  0  0  0
  -91.3180   29.4369   -1.6497 H   0  0  0  0  0  0  0  0  0  0  0  0
  -91.4500   29.1630   -3.7841 C   0  0  0  0  0  0  0  0  0  0  0  0
  -91.1384   30.5798   -3.9759 C   0  0  0  0  0  0  0  0  0  0  0  0
  -91.8357   31.2752   -4.7506 O   0  0  0  0  0  0  0  0  0  0  0  0
  -90.0637   31.1950   -3.3016 N   0  0  0  0  0  0  0  0  0  0  0  0
  -89.5055   30.5967   -2.6238 H   0  0  0  0  0  0  0  0  0  0  0  0
  -89.7025   32.5835   -3.4569 C   0  0  0  0  0  0  0  0  0  0  0  0
  -88.6645   32.8371   -4.4648 C   0  0  0  0  0  0  0  0  0  0  0  0
  -87.5341   32.0183   -4.4672 O   0  0  0  0  0  0  0  0  0  0  0  0
  -88.7293   33.7392   -5.3197 O   0  0  0  0  0  0  0  0  0  0  0  0
  -87.6318   31.1775   -5.0511 H   0  0  0  0  0  0  0  0  0  0  0  0
  -92.9051   28.7991   -3.8152 C   0  0  0  0  0  0  0  0  0  0  0  0
  -93.3005   27.6244   -4.5690 C   0  0  0  0  0  0  0  0  0  0  0  0
  -93.5754   26.4128   -3.9223 C   0  0  0  0  0  0  0  0  0  0  0  0
  -93.9529   25.2883   -4.6108 C   0  0  0  0  0  0  0  0  0  0  0  0
  -94.0816   25.2937   -5.9844 C   0  0  0  0  0  0  0  0  0  0  0  0
  -93.8102   26.4877   -6.6147 C   0  0  0  0  0  0  0  0  0  0  0  0
  -93.4316   27.6233   -5.9445 C   0  0  0  0  0  0  0  0  0  0  0  0
  -90.9552   27.7550    0.1429 C   0  0  0  0  0  0  0  0  0  0  0  0
  -90.7905   27.2796    1.5283 C   0  0  0  0  0  0  0  0  0  0  0  0
  -90.6110   25.9282    1.7368 C   0  0  0  0  0  0  0  0  0  0  0  0
  -90.4515   25.4167    3.0062 C   0  0  0  0  0  0  0  0  0  0  0  0
  -90.4694   26.2495    4.0823 C   0  0  0  0  0  0  0  0  0  0  0  0
  -90.6479   27.6220    3.9203 C   0  0  0  0  0  0  0  0  0  0  0  0
  -90.8034   28.0927    2.6403 C   0  0  0  0  0  0  0  0  0  0  0  0
 12 13  1  0  0  0
 13  6  1  0  0  0
  6  7  2  0  0  0
  7  8  1  0  0  0
  8  9  2  0  0  0
  9 10  1  0  0  0
 10 14  1  0  0  0
 14 15  1  0  0  0
 10 11  2  0  0  0
 11 16  1  0  0  0
 16 17  1  0  0  0
  8  2  1  0  0  0
  2  3  2  0  0  0
  2  4  1  0  0  0
  4  1  1  0  0  0
  1 39  1  0  0  0
 39 40  1  0  0  0
 40 41  2  0  0  0
 41 42  1  0  0  0
 42 43  2  0  0  0
 43 44  1  0  0  0
 44 45  2  0  0  0
  1 18  1  0  0  0
 18 19  2  0  0  0
 18 20  1  0  0  0
 20 22  1  0  0  0
 22 32  1  0  0  0
 32 33  1  0  0  0
 33 34  2  0  0  0
 34 35  1  0  0  0
 35 36  2  0  0  0
 36 37  1  0  0  0
 37 38  2  0  0  0
 22 23  1  0  0  0
 23 24  2  0  0  0
 23 25  1  0  0  0
 25 27  1  0  0  0
 27 28  1  0  0  0
 28 29  1  0  0  0
 28 30  2  0  0  0
 11  6  1  0  0  0
 45 40  1  0  0  0
 38 33  1  0  0  0
  4  5  1  0  0  0
 20 21  1  0  0  0
 25 26  1  0  0  0
 29 31  1  0  0  0
M  END
> <minimizedAffinity>
-7.57746

> <CNNscore>
0.1435746104

> <CNNaffinity>
6.2582149506

> <CNN_VS>
0.8985207677

> <CNNaffinity_variance>
0.2842016816

$$$$
[H]OC(=O)C([H])([H])N([H])C(=O)[C@@]([H])(N([H])C(=O)[C@@]([H])(N([H])C(=O)c1c([H])c(OC([H])([H])[H])c(OC([H])([H])[H])c(OC([H])([H])[H])c1[H])C([H])([H])c1c([H])c([H])c([H])c([H])c1[H])C([H])([H])c1c([H])c([H])c([H])c([H])c1[H]


 45 47  0  0  0  0  0  0  0  0999 V2000
  -86.3280   27.3752    1.0989 C   0  0  0  0  0  0  0  0  0  0  0  0
  -87.1287   28.5999   -0.9031 C   0  0  0  0  0  0  0  0  0  0  0  0
  -87.0636   27.5178   -1.5517 O   0  0  0  0  0  0  0  0  0  0  0  0
  -86.7625   28.5856    0.4643 N   0  0  0  0  0  0  0  0  0  0  0  0
  -86.8072   29.4690    1.0331 H   0  0  0  0  0  0  0  0  0  0  0  0
  -88.7332   30.8306   -3.4590 C   0  0  0  0  0  0  0  0  0  0  0  0
  -88.3269   29.6978   -2.7837 C   0  0  0  0  0  0  0  0  0  0  0  0
  -87.5773   29.7639   -1.6285 C   0  0  0  0  0  0  0  0  0  0  0  0
  -87.2417   31.0146   -1.1612 C   0  0  0  0  0  0  0  0  0  0  0  0
  -87.6359   32.1744   -1.8187 C   0  0  0  0  0  0  0  0  0  0  0  0
  -88.3936   32.0742   -2.9862 C   0  0  0  0  0  0  0  0  0  0  0  0
  -90.8921   30.7811   -4.5672 C   0  0  0  0  0  0  0  0  0  0  0  0
  -89.4839   30.6943   -4.6133 O   0  0  0  0  0  0  0  0  0  0  0  0
  -87.2625   33.3856   -1.2915 O   0  0  0  0  0  0  0  0  0  0  0  0
  -86.0228   33.5543   -0.6333 C   0  0  0  0  0  0  0  0  0  0  0  0
  -88.7729   33.2269   -3.6216 O   0  0  0  0  0  0  0  0  0  0  0  0
  -87.9856   33.8712   -4.6024 C   0  0  0  0  0  0  0  0  0  0  0  0
  -87.4289   26.7417    1.8797 C   0  0  0  0  0  0  0  0  0  0  0  0
  -87.3596   26.6032    3.1327 O   0  0  0  0  0  0  0  0  0  0  0  0
  -88.5733   26.2870    1.2116 N   0  0  0  0  0  0  0  0  0  0  0  0
  -88.6794   26.3754    0.1915 H   0  0  0  0  0  0  0  0  0  0  0  0
  -89.6864   25.6557    1.9568 C   0  0  0  0  0  0  0  0  0  0  0  0
  -90.1318   24.5055    1.1694 C   0  0  0  0  0  0  0  0  0  0  0  0
  -91.2309   23.9603    1.4235 O   0  0  0  0  0  0  0  0  0  0  0  0
  -89.3511   23.9881    0.1154 N   0  0  0  0  0  0  0  0  0  0  0  0
  -88.4383   24.4851   -0.1060 H   0  0  0  0  0  0  0  0  0  0  0  0
  -89.7325   22.8524   -0.6890 C   0  0  0  0  0  0  0  0  0  0  0  0
  -89.4977   21.5476   -0.0566 C   0  0  0  0  0  0  0  0  0  0  0  0
  -88.1871   21.2041    0.2787 O   0  0  0  0  0  0  0  0  0  0  0  0
  -90.3966   20.7260    0.1999 O   0  0  0  0  0  0  0  0  0  0  0  0
  -87.9085   21.5018    1.2228 H   0  0  0  0  0  0  0  0  0  0  0  0
  -90.6818   26.7661    2.1210 C   0  0  0  0  0  0  0  0  0  0  0  0
  -90.9499   27.6188    0.9785 C   0  0  0  0  0  0  0  0  0  0  0  0
  -90.6127   28.9781    0.9996 C   0  0  0  0  0  0  0  0  0  0  0  0
  -90.8534   29.8056   -0.0672 C   0  0  0  0  0  0  0  0  0  0  0  0
  -91.4441   29.3378   -1.2230 C   0  0  0  0  0  0  0  0  0  0  0  0
  -91.7732   28.0007   -1.2381 C   0  0  0  0  0  0  0  0  0  0  0  0
  -91.5407   27.1566   -0.1819 C   0  0  0  0  0  0  0  0  0  0  0  0
  -85.1623   27.5675    2.0135 C   0  0  0  0  0  0  0  0  0  0  0  0
  -84.7563   28.9759    2.1684 C   0  0  0  0  0  0  0  0  0  0  0  0
  -83.7078   29.4403    1.4023 C   0  0  0  0  0  0  0  0  0  0  0  0
  -83.2771   30.7455    1.4981 C   0  0  0  0  0  0  0  0  0  0  0  0
  -83.8889   31.6023    2.3604 C   0  0  0  0  0  0  0  0  0  0  0  0
  -84.9523   31.1778    3.1546 C   0  0  0  0  0  0  0  0  0  0  0  0
  -85.3518   29.8705    3.0304 C   0  0  0  0  0  0  0  0  0  0  0  0
 12 13  1  0  0  0
 13  6  1  0  0  0
  6  7  2  0  0  0
  7  8  1  0  0  0
  8  9  2  0  0  0
  9 10  1  0  0  0
 10 14  1  0  0  0
 14 15  1  0  0  0
 10 11  2  0  0  0
 11 16  1  0  0  0
 16 17  1  0  0  0
  8  2  1  0  0  0
  2  3  2  0  0  0
  2  4  1  0  0  0
  4  1  1  0  0  0
  1 39  1  0  0  0
 39 40  1  0  0  0
 40 41  2  0  0  0
 41 42  1  0  0  0
 42 43  2  0  0  0
 43 44  1  0  0  0
 44 45  2  0  0  0
  1 18  1  0  0  0
 18 19  2  0  0  0
 18 20  1  0  0  0
 20 22  1  0  0  0
 22 32  1  0  0  0
 32 33  1  0  0  0
 33 34  2  0  0  0
 34 35  1  0  0  0
 35 36  2  0  0  0
 36 37  1  0  0  0
 37 38  2  0  0  0
 22 23  1  0  0  0
 23 24  2  0  0  0
 23 25  1  0  0  0
 25 27  1  0  0  0
 27 28  1  0  0  0
 28 29  1  0  0  0
 28 30  2  0  0  0
 11  6  1  0  0  0
 45 40  1  0  0  0
 38 33  1  0  0  0
  4  5  1  0  0  0
 20 21  1  0  0  0
 25 26  1  0  0  0
 29 31  1  0  0  0
M  END
> <minimizedAffinity>
-8.93922

> <CNNscore>
0.1370870918

> <CNNaffinity>
6.5445313454

> <CNN_VS>
0.8971707821

> <CNNaffinity_variance>
0.4881575704

$$$$
[H]OC(=O)C([H])([H])N([H])C(=O)[C@@]([H])(N([H])C(=O)[C@@]([H])(N([H])C(=O)c1c([H])c(OC([H])([H])[H])c(OC([H])([H])[H])c(OC([H])([H])[H])c1[H])C([H])([H])c1c([H])c([H])c([H])c([H])c1[H])C([H])([H])c1c([H])c([H])c([H])c([H])c1[H]


 45 47  0  0  0  0  0  0  0  0999 V2000
  -87.0662   32.7314   -1.4754 C   0  0  0  0  0  0  0  0  0  0  0  0
  -87.6079   33.5267   -3.7609 C   0  0  0  0  0  0  0  0  0  0  0  0
  -87.5481   32.3288   -4.1574 O   0  0  0  0  0  0  0  0  0  0  0  0
  -87.3689   33.7928   -2.3911 N   0  0  0  0  0  0  0  0  0  0  0  0
  -87.4128   34.7788   -2.0284 H   0  0  0  0  0  0  0  0  0  0  0  0
  -89.3113   35.4468   -6.4985 C   0  0  0  0  0  0  0  0  0  0  0  0
  -89.0468   34.4814   -5.5485 C   0  0  0  0  0  0  0  0  0  0  0  0
  -87.9191   34.5238   -4.7565 C   0  0  0  0  0  0  0  0  0  0  0  0
  -87.0515   35.5759   -4.9446 C   0  0  0  0  0  0  0  0  0  0  0  0
  -87.2900   36.5641   -5.8930 C   0  0  0  0  0  0  0  0  0  0  0  0
  -88.4402   36.4927   -6.6798 C   0  0  0  0  0  0  0  0  0  0  0  0
  -91.4727   34.4232   -6.9133 C   0  0  0  0  0  0  0  0  0  0  0  0
  -90.4615   35.3450   -7.2608 O   0  0  0  0  0  0  0  0  0  0  0  0
  -86.3782   37.5820   -6.0221 O   0  0  0  0  0  0  0  0  0  0  0  0
  -86.2160   38.5609   -5.0152 C   0  0  0  0  0  0  0  0  0  0  0  0
  -88.6594   37.4742   -7.6098 O   0  0  0  0  0  0  0  0  0  0  0  0
  -89.3920   38.6524   -7.3413 C   0  0  0  0  0  0  0  0  0  0  0  0
  -88.2940   31.9837   -1.0801 C   0  0  0  0  0  0  0  0  0  0  0  0
  -89.2667   32.5564   -0.5145 O   0  0  0  0  0  0  0  0  0  0  0  0
  -88.3773   30.6097   -1.3410 N   0  0  0  0  0  0  0  0  0  0  0  0
  -87.6124   30.0953   -1.7991 H   0  0  0  0  0  0  0  0  0  0  0  0
  -89.5832   29.8375   -0.9639 C   0  0  0  0  0  0  0  0  0  0  0  0
  -89.2383   29.0566    0.2245 C   0  0  0  0  0  0  0  0  0  0  0  0
  -88.0364   28.8375    0.5029 O   0  0  0  0  0  0  0  0  0  0  0  0
  -90.2328   28.5396    1.0798 N   0  0  0  0  0  0  0  0  0  0  0  0
  -91.2444   28.7647    0.8450 H   0  0  0  0  0  0  0  0  0  0  0  0
  -89.9550   27.7557    2.2592 C   0  0  0  0  0  0  0  0  0  0  0  0
  -90.6769   28.1854    3.4641 C   0  0  0  0  0  0  0  0  0  0  0  0
  -91.6713   29.1551    3.3259 O   0  0  0  0  0  0  0  0  0  0  0  0
  -90.4571   27.7381    4.6045 O   0  0  0  0  0  0  0  0  0  0  0  0
  -92.6043   28.7682    3.1322 H   0  0  0  0  0  0  0  0  0  0  0  0
  -89.9035   29.0491   -2.1995 C   0  0  0  0  0  0  0  0  0  0  0  0
  -90.8506   29.6115   -3.1435 C   0  0  0  0  0  0  0  0  0  0  0  0
  -92.0270   28.9283   -3.4767 C   0  0  0  0  0  0  0  0  0  0  0  0
  -92.9397   29.4383   -4.3644 C   0  0  0  0  0  0  0  0  0  0  0  0
  -92.7437   30.6583   -4.9781 C   0  0  0  0  0  0  0  0  0  0  0  0
  -91.5856   31.3255   -4.6465 C   0  0  0  0  0  0  0  0  0  0  0  0
  -90.6606   30.8328   -3.7612 C   0  0  0  0  0  0  0  0  0  0  0  0
  -86.3849   33.1959   -0.2295 C   0  0  0  0  0  0  0  0  0  0  0  0
  -85.1833   32.4151    0.1156 C   0  0  0  0  0  0  0  0  0  0  0  0
  -83.9703   32.8246   -0.3971 C   0  0  0  0  0  0  0  0  0  0  0  0
  -82.8084   32.1400   -0.1149 C   0  0  0  0  0  0  0  0  0  0  0  0
  -82.8447   31.0383    0.6831 C   0  0  0  0  0  0  0  0  0  0  0  0
  -84.0473   30.5874    1.2236 C   0  0  0  0  0  0  0  0  0  0  0  0
  -85.1826   31.2961    0.9191 C   0  0  0  0  0  0  0  0  0  0  0  0
 12 13  1  0  0  0
 13  6  1  0  0  0
  6  7  2  0  0  0
  7  8  1  0  0  0
  8  9  2  0  0  0
  9 10  1  0  0  0
 10 14  1  0  0  0
 14 15  1  0  0  0
 10 11  2  0  0  0
 11 16  1  0  0  0
 16 17  1  0  0  0
  8  2  1  0  0  0
  2  3  2  0  0  0
  2  4  1  0  0  0
  4  1  1  0  0  0
  1 39  1  0  0  0
 39 40  1  0  0  0
 40 41  2  0  0  0
 41 42  1  0  0  0
 42 43  2  0  0  0
 43 44  1  0  0  0
 44 45  2  0  0  0
  1 18  1  0  0  0
 18 19  2  0  0  0
 18 20  1  0  0  0
 20 22  1  0  0  0
 22 32  1  0  0  0
 32 33  1  0  0  0
 33 34  2  0  0  0
 34 35  1  0  0  0
 35 36  2  0  0  0
 36 37  1  0  0  0
 37 38  2  0  0  0
 22 23  1  0  0  0
 23 24  2  0  0  0
 23 25  1  0  0  0
 25 27  1  0  0  0
 27 28  1  0  0  0
 28 29  1  0  0  0
 28 30  2  0  0  0
 11  6  1  0  0  0
 45 40  1  0  0  0
 38 33  1  0  0  0
  4  5  1  0  0  0
 20 21  1  0  0  0
 25 26  1  0  0  0
 29 31  1  0  0  0
M  END
> <minimizedAffinity>
-8.15481

> <CNNscore>
0.1224346906

> <CNNaffinity>
5.9572491646

> <CNN_VS>
0.7293739319

> <CNNaffinity_variance>
0.5859913826

$$$$
[H]OC(=O)C([H])([H])N([H])C(=O)[C@@]([H])(N([H])C(=O)[C@@]([H])(N([H])C(=O)c1c([H])c(OC([H])([H])[H])c(OC([H])([H])[H])c(OC([H])([H])[H])c1[H])C([H])([H])c1c([H])c([H])c([H])c([H])c1[H])C([H])([H])c1c([H])c([H])c([H])c([H])c1[H]


 45 47  0  0  0  0  0  0  0  0999 V2000
  -87.4121   30.0523   -0.9240 C   0  0  0  0  0  0  0  0  0  0  0  0
  -88.1528   31.0991   -3.0464 C   0  0  0  0  0  0  0  0  0  0  0  0
  -87.8907   30.0132   -3.6363 O   0  0  0  0  0  0  0  0  0  0  0  0
  -87.9263   31.1764   -1.6511 N   0  0  0  0  0  0  0  0  0  0  0  0
  -88.1359   32.0652   -1.1297 H   0  0  0  0  0  0  0  0  0  0  0  0
  -88.4062   34.2098   -5.1302 C   0  0  0  0  0  0  0  0  0  0  0  0
  -87.8825   33.1925   -4.3586 C   0  0  0  0  0  0  0  0  0  0  0  0
  -88.6662   32.1723   -3.8631 C   0  0  0  0  0  0  0  0  0  0  0  0
  -90.0086   32.1992   -4.1671 C   0  0  0  0  0  0  0  0  0  0  0  0
  -90.5661   33.2100   -4.9420 C   0  0  0  0  0  0  0  0  0  0  0  0
  -89.7464   34.2292   -5.4283 C   0  0  0  0  0  0  0  0  0  0  0  0
  -87.1001   36.2158   -4.7279 C   0  0  0  0  0  0  0  0  0  0  0  0
  -87.5642   35.2041   -5.5961 O   0  0  0  0  0  0  0  0  0  0  0  0
  -91.9132   33.1685   -5.2024 O   0  0  0  0  0  0  0  0  0  0  0  0
  -92.7326   32.1348   -4.6941 C   0  0  0  0  0  0  0  0  0  0  0  0
  -90.3121   35.2175   -6.1895 O   0  0  0  0  0  0  0  0  0  0  0  0
  -90.4945   35.1165   -7.5871 C   0  0  0  0  0  0  0  0  0  0  0  0
  -88.4891   29.0754   -0.5945 C   0  0  0  0  0  0  0  0  0  0  0  0
  -89.6602   29.4501   -0.3079 O   0  0  0  0  0  0  0  0  0  0  0  0
  -88.2008   27.7044   -0.6021 N   0  0  0  0  0  0  0  0  0  0  0  0
  -87.2625   27.3467   -0.8283 H   0  0  0  0  0  0  0  0  0  0  0  0
  -89.2476   26.7071   -0.2823 C   0  0  0  0  0  0  0  0  0  0  0  0
  -89.0403   26.2983    1.1074 C   0  0  0  0  0  0  0  0  0  0  0  0
  -87.8859   26.2972    1.5944 O   0  0  0  0  0  0  0  0  0  0  0  0
  -90.1176   25.9039    1.9272 N   0  0  0  0  0  0  0  0  0  0  0  0
  -91.0923   25.9438    1.5059 H   0  0  0  0  0  0  0  0  0  0  0  0
  -89.9746   25.4823    3.2999 C   0  0  0  0  0  0  0  0  0  0  0  0
  -90.0337   26.5710    4.2841 C   0  0  0  0  0  0  0  0  0  0  0  0
  -89.4256   27.7852    3.9612 O   0  0  0  0  0  0  0  0  0  0  0  0
  -90.5934   26.4790    5.3919 O   0  0  0  0  0  0  0  0  0  0  0  0
  -90.0468   28.4439    3.4736 H   0  0  0  0  0  0  0  0  0  0  0  0
  -89.0529   25.6397   -1.3184 C   0  0  0  0  0  0  0  0  0  0  0  0
  -90.2294   25.0964   -1.9703 C   0  0  0  0  0  0  0  0  0  0  0  0
  -90.5058   23.7239   -1.9298 C   0  0  0  0  0  0  0  0  0  0  0  0
  -91.6117   23.1847   -2.5358 C   0  0  0  0  0  0  0  0  0  0  0  0
  -92.5139   23.9724   -3.2207 C   0  0  0  0  0  0  0  0  0  0  0  0
  -92.2371   25.3209   -3.2570 C   0  0  0  0  0  0  0  0  0  0  0  0
  -91.1369   25.8796   -2.6574 C   0  0  0  0  0  0  0  0  0  0  0  0
  -86.7238   30.4298    0.3473 C   0  0  0  0  0  0  0  0  0  0  0  0
  -85.4058   31.0575    0.1441 C   0  0  0  0  0  0  0  0  0  0  0  0
  -85.3664   32.3539   -0.3248 C   0  0  0  0  0  0  0  0  0  0  0  0
  -84.1682   33.0000   -0.5375 C   0  0  0  0  0  0  0  0  0  0  0  0
  -82.9951   32.3585   -0.2841 C   0  0  0  0  0  0  0  0  0  0  0  0
  -82.9857   31.0484    0.1907 C   0  0  0  0  0  0  0  0  0  0  0  0
  -84.1995   30.4392    0.3896 C   0  0  0  0  0  0  0  0  0  0  0  0
 12 13  1  0  0  0
 13  6  1  0  0  0
  6  7  2  0  0  0
  7  8  1  0  0  0
  8  9  2  0  0  0
  9 10  1  0  0  0
 10 14  1  0  0  0
 14 15  1  0  0  0
 10 11  2  0  0  0
 11 16  1  0  0  0
 16 17  1  0  0  0
  8  2  1  0  0  0
  2  3  2  0  0  0
  2  4  1  0  0  0
  4  1  1  0  0  0
  1 39  1  0  0  0
 39 40  1  0  0  0
 40 41  2  0  0  0
 41 42  1  0  0  0
 42 43  2  0  0  0
 43 44  1  0  0  0
 44 45  2  0  0  0
  1 18  1  0  0  0
 18 19  2  0  0  0
 18 20  1  0  0  0
 20 22  1  0  0  0
 22 32  1  0  0  0
 32 33  1  0  0  0
 33 34  2  0  0  0
 34 35  1  0  0  0
 35 36  2  0  0  0
 36 37  1  0  0  0
 37 38  2  0  0  0
 22 23  1  0  0  0
 23 24  2  0  0  0
 23 25  1  0  0  0
 25 27  1  0  0  0
 27 28  1  0  0  0
 28 29  1  0  0  0
 28 30  2  0  0  0
 11  6  1  0  0  0
 45 40  1  0  0  0
 38 33  1  0  0  0
  4  5  1  0  0  0
 20 21  1  0  0  0
 25 26  1  0  0  0
 29 31  1  0  0  0
M  END
> <minimizedAffinity>
-8.33313

> <CNNscore>
0.1030377969

> <CNNaffinity>
5.9809374809

> <CNN_VS>
0.6162626147

> <CNNaffinity_variance>
0.5615181923

$$$$
[H]c1nc(N([H])c2c([H])c([H])c(C(=O)N([H])C3([H])C([H])([H])C([H])([H])N(C([H])([H])[H])C([H])([H])C3([H])[H])c([H])c2OC([H])([H])[H])nc2c1N(C([H])([H])[H])C(=O)[C@@]([H])(C([H])([H])[H])N2C1([H])C([H])([H])C([H])([H])C([H])([H])C1([H])[H]


 39 43  0  0  0  0  0  0  0  0999 V2000
  -86.4731   34.1591   -3.0732 N   0  0  0  0  0  0  0  0  0  0  0  0
  -85.6085   34.6998   -2.7560 H   0  0  0  0  0  0  0  0  0  0  0  0
  -87.1988   34.7309   -4.1470 C   0  0  0  0  0  0  0  0  0  0  0  0
  -88.2602   34.2156   -4.7436 N   0  0  0  0  0  0  0  0  0  0  0  0
  -88.9331   34.7744   -5.7469 C   0  0  0  0  0  0  0  0  0  0  0  0
  -88.4717   36.0169   -6.2066 C   0  0  0  0  0  0  0  0  0  0  0  0
  -89.1703   36.6515   -7.2637 N   0  0  0  0  0  0  0  0  0  0  0  0
  -90.3447   36.0330   -7.8915 C   0  0  0  0  0  0  0  0  0  0  0  0
  -88.6786   37.9134   -7.6877 C   0  0  0  0  0  0  0  0  0  0  0  0
  -89.0044   38.3364   -8.8483 O   0  0  0  0  0  0  0  0  0  0  0  0
  -87.8065   38.7179   -6.7934 C   0  0  0  0  0  0  0  0  0  0  0  0
  -88.7259   39.4699   -5.8670 C   0  0  0  0  0  0  0  0  0  0  0  0
  -86.8624   37.8838   -6.0880 N   0  0  0  0  0  0  0  0  0  0  0  0
  -87.3725   36.6082   -5.6306 C   0  0  0  0  0  0  0  0  0  0  0  0
  -86.7840   35.9498   -4.6327 N   0  0  0  0  0  0  0  0  0  0  0  0
  -85.5128   38.1668   -5.8039 C   0  0  0  0  0  0  0  0  0  0  0  0
  -84.7659   38.9537   -6.8527 C   0  0  0  0  0  0  0  0  0  0  0  0
  -83.3826   38.9500   -6.1772 C   0  0  0  0  0  0  0  0  0  0  0  0
  -83.7271   39.1984   -4.7259 C   0  0  0  0  0  0  0  0  0  0  0  0
  -85.2514   39.0525   -4.6045 C   0  0  0  0  0  0  0  0  0  0  0  0
  -86.1097   32.6892   -1.1923 C   0  0  0  0  0  0  0  0  0  0  0  0
  -86.3722   31.5290   -0.5053 C   0  0  0  0  0  0  0  0  0  0  0  0
  -87.2686   30.5928   -0.9256 C   0  0  0  0  0  0  0  0  0  0  0  0
  -87.9299   30.8514   -2.1042 C   0  0  0  0  0  0  0  0  0  0  0  0
  -87.6774   32.0270   -2.8198 C   0  0  0  0  0  0  0  0  0  0  0  0
  -86.7852   32.9703   -2.4103 C   0  0  0  0  0  0  0  0  0  0  0  0
  -87.5363   29.3866   -0.1658 C   0  0  0  0  0  0  0  0  0  0  0  0
  -86.9268   29.2139    0.9169 O   0  0  0  0  0  0  0  0  0  0  0  0
  -88.4501   28.4450   -0.6364 N   0  0  0  0  0  0  0  0  0  0  0  0
  -88.9447   28.6103   -1.5426 H   0  0  0  0  0  0  0  0  0  0  0  0
  -88.7965   27.2100    0.0369 C   0  0  0  0  0  0  0  0  0  0  0  0
  -89.2805   26.1674   -0.9678 C   0  0  0  0  0  0  0  0  0  0  0  0
  -89.3367   24.8648   -0.1875 C   0  0  0  0  0  0  0  0  0  0  0  0
  -90.3182   24.9336    0.8745 N   0  0  0  0  0  0  0  0  0  0  0  0
  -91.6715   24.8043    0.3802 C   0  0  0  0  0  0  0  0  0  0  0  0
  -90.1205   26.0478    1.7518 C   0  0  0  0  0  0  0  0  0  0  0  0
  -89.8286   27.3516    1.0963 C   0  0  0  0  0  0  0  0  0  0  0  0
  -83.8283   33.3510   -0.5622 C   0  0  0  0  0  0  0  0  0  0  0  0
  -85.2041   33.6186   -0.7545 O   0  0  0  0  0  0  0  0  0  0  0  0
 38 39  1  0  0  0
 39 21  1  0  0  0
 21 22  2  0  0  0
 22 23  1  0  0  0
 23 24  2  0  0  0
 24 25  1  0  0  0
 25 26  2  0  0  0
 26  1  1  0  0  0
  1  3  1  0  0  0
  3  4  2  0  0  0
  4  5  1  0  0  0
  5  6  2  0  0  0
  6  7  1  0  0  0
  7  8  1  0  0  0
  7  9  1  0  0  0
  9 10  2  0  0  0
  9 11  1  0  0  0
 11 12  1  0  0  0
 11 13  1  0  0  0
 13 16  1  0  0  0
 16 17  1  0  0  0
 17 18  1  0  0  0
 18 19  1  0  0  0
 19 20  1  0  0  0
 13 14  1  0  0  0
 14 15  2  0  0  0
 23 27  1  0  0  0
 27 28  2  0  0  0
 27 29  1  0  0  0
 29 31  1  0  0  0
 31 32  1  0  0  0
 32 33  1  0  0  0
 33 34  1  0  0  0
 34 35  1  0  0  0
 34 36  1  0  0  0
 36 37  1  0  0  0
 26 21  1  0  0  0
 15  3  1  0  0  0
 37 31  1  0  0  0
 14  6  1  0  0  0
 20 16  1  0  0  0
  1  2  1  0  0  0
 29 30  1  0  0  0
M  END
> <minimizedAffinity>
-8.26818

> <CNNscore>
0.2530839145

> <CNNaffinity>
6.5328035355

> <CNN_VS>
1.6533474922

> <CNNaffinity_variance>
0.1305766106

$$$$
[H]c1nc(N([H])c2c([H])c([H])c(C(=O)N([H])C3([H])C([H])([H])C([H])([H])N(C([H])([H])[H])C([H])([H])C3([H])[H])c([H])c2OC([H])([H])[H])nc2c1N(C([H])([H])[H])C(=O)[C@@]([H])(C([H])([H])[H])N2C1([H])C([H])([H])C([H])([H])C([H])([H])C1([H])[H]


 39 43  0  0  0  0  0  0  0  0999 V2000
  -88.1807   33.2487   -1.6750 N   0  0  0  0  0  0  0  0  0  0  0  0
  -88.3568   34.3008   -1.6247 H   0  0  0  0  0  0  0  0  0  0  0  0
  -86.9733   32.7965   -1.0879 C   0  0  0  0  0  0  0  0  0  0  0  0
  -85.7988   33.4018   -1.1357 N   0  0  0  0  0  0  0  0  0  0  0  0
  -84.6771   32.9630   -0.5692 C   0  0  0  0  0  0  0  0  0  0  0  0
  -84.7539   31.7540    0.1381 C   0  0  0  0  0  0  0  0  0  0  0  0
  -83.5843   31.2609    0.7683 N   0  0  0  0  0  0  0  0  0  0  0  0
  -82.3039   31.9745    0.6824 C   0  0  0  0  0  0  0  0  0  0  0  0
  -83.7100   30.0426    1.4852 C   0  0  0  0  0  0  0  0  0  0  0  0
  -82.6536   29.3672    1.7301 O   0  0  0  0  0  0  0  0  0  0  0  0
  -85.0447   29.5727    1.9379 C   0  0  0  0  0  0  0  0  0  0  0  0
  -85.3265   30.2807    3.2373 C   0  0  0  0  0  0  0  0  0  0  0  0
  -86.0568   29.8168    0.9376 N   0  0  0  0  0  0  0  0  0  0  0  0
  -85.9448   31.0730    0.2261 C   0  0  0  0  0  0  0  0  0  0  0  0
  -86.9985   31.6146   -0.3835 N   0  0  0  0  0  0  0  0  0  0  0  0
  -87.1259   28.9753    0.5758 C   0  0  0  0  0  0  0  0  0  0  0  0
  -86.9652   28.2202   -0.7207 C   0  0  0  0  0  0  0  0  0  0  0  0
  -88.3426   27.5328   -0.7394 C   0  0  0  0  0  0  0  0  0  0  0  0
  -88.5190   27.1157    0.7033 C   0  0  0  0  0  0  0  0  0  0  0  0
  -87.4057   27.8108    1.5014 C   0  0  0  0  0  0  0  0  0  0  0  0
  -89.1670   32.4235   -3.7186 C   0  0  0  0  0  0  0  0  0  0  0  0
  -90.0984   31.6621   -4.3817 C   0  0  0  0  0  0  0  0  0  0  0  0
  -91.0357   30.9016   -3.7493 C   0  0  0  0  0  0  0  0  0  0  0  0
  -91.0236   30.9181   -2.3735 C   0  0  0  0  0  0  0  0  0  0  0  0
  -90.0836   31.6869   -1.6784 C   0  0  0  0  0  0  0  0  0  0  0  0
  -89.1418   32.4500   -2.2982 C   0  0  0  0  0  0  0  0  0  0  0  0
  -91.9933   30.0936   -4.4801 C   0  0  0  0  0  0  0  0  0  0  0  0
  -92.4948   30.5633   -5.5297 O   0  0  0  0  0  0  0  0  0  0  0  0
  -92.3440   28.8259   -4.0186 N   0  0  0  0  0  0  0  0  0  0  0  0
  -91.9137   28.4565   -3.1402 H   0  0  0  0  0  0  0  0  0  0  0  0
  -93.2840   27.9333   -4.6655 C   0  0  0  0  0  0  0  0  0  0  0  0
  -94.0626   27.1287   -3.6278 C   0  0  0  0  0  0  0  0  0  0  0  0
  -95.1827   26.4602   -4.4071 C   0  0  0  0  0  0  0  0  0  0  0  0
  -94.6573   25.5240   -5.3784 N   0  0  0  0  0  0  0  0  0  0  0  0
  -94.2185   24.2883   -4.7677 C   0  0  0  0  0  0  0  0  0  0  0  0
  -93.6973   26.1114   -6.2637 C   0  0  0  0  0  0  0  0  0  0  0  0
  -92.6713   26.9830   -5.6293 C   0  0  0  0  0  0  0  0  0  0  0  0
  -88.5365   34.3619   -5.0915 C   0  0  0  0  0  0  0  0  0  0  0  0
  -88.2327   33.1826   -4.3715 O   0  0  0  0  0  0  0  0  0  0  0  0
 38 39  1  0  0  0
 39 21  1  0  0  0
 21 22  2  0  0  0
 22 23  1  0  0  0
 23 24  2  0  0  0
 24 25  1  0  0  0
 25 26  2  0  0  0
 26  1  1  0  0  0
  1  3  1  0  0  0
  3  4  2  0  0  0
  4  5  1  0  0  0
  5  6  2  0  0  0
  6  7  1  0  0  0
  7  8  1  0  0  0
  7  9  1  0  0  0
  9 10  2  0  0  0
  9 11  1  0  0  0
 11 12  1  0  0  0
 11 13  1  0  0  0
 13 16  1  0  0  0
 16 17  1  0  0  0
 17 18  1  0  0  0
 18 19  1  0  0  0
 19 20  1  0  0  0
 13 14  1  0  0  0
 14 15  2  0  0  0
 23 27  1  0  0  0
 27 28  2  0  0  0
 27 29  1  0  0  0
 29 31  1  0  0  0
 31 32  1  0  0  0
 32 33  1  0  0  0
 33 34  1  0  0  0
 34 35  1  0  0  0
 34 36  1  0  0  0
 36 37  1  0  0  0
 26 21  1  0  0  0
 15  3  1  0  0  0
 37 31  1  0  0  0
 14  6  1  0  0  0
 20 16  1  0  0  0
  1  2  1  0  0  0
 29 30  1  0  0  0
M  END
> <minimizedAffinity>
-8.89089

> <CNNscore>
0.1965043545

> <CNNaffinity>
6.6979689598

> <CNN_VS>
1.3161801100

> <CNNaffinity_variance>
0.1803051978

$$$$
[H]c1nc(N([H])c2c([H])c([H])c(C(=O)N([H])C3([H])C([H])([H])C([H])([H])N(C([H])([H])[H])C([H])([H])C3([H])[H])c([H])c2OC([H])([H])[H])nc2c1N(C([H])([H])[H])C(=O)[C@@]([H])(C([H])([H])[H])N2C1([H])C([H])([H])C([H])([H])C([H])([H])C1([H])[H]


 39 43  0  0  0  0  0  0  0  0999 V2000
  -88.6115   32.0021   -1.4850 N   0  0  0  0  0  0  0  0  0  0  0  0
  -89.4159   31.4170   -1.0966 H   0  0  0  0  0  0  0  0  0  0  0  0
  -87.3452   31.7830   -0.8889 C   0  0  0  0  0  0  0  0  0  0  0  0
  -86.3054   32.5987   -0.9253 N   0  0  0  0  0  0  0  0  0  0  0  0
  -85.1256   32.3768   -0.3504 C   0  0  0  0  0  0  0  0  0  0  0  0
  -84.9788   31.1721    0.3533 C   0  0  0  0  0  0  0  0  0  0  0  0
  -83.7423   30.9055    0.9921 N   0  0  0  0  0  0  0  0  0  0  0  0
  -82.6185   31.8477    0.9188 C   0  0  0  0  0  0  0  0  0  0  0  0
  -83.6419   29.6825    1.7049 C   0  0  0  0  0  0  0  0  0  0  0  0
  -82.4792   29.2171    1.9571 O   0  0  0  0  0  0  0  0  0  0  0  0
  -84.8678   28.9679    2.1452 C   0  0  0  0  0  0  0  0  0  0  0  0
  -85.2880   29.6050    3.4439 C   0  0  0  0  0  0  0  0  0  0  0  0
  -85.8999   29.0210    1.1370 N   0  0  0  0  0  0  0  0  0  0  0  0
  -86.0208   30.2787    0.4295 C   0  0  0  0  0  0  0  0  0  0  0  0
  -87.1529   30.6147   -0.1876 N   0  0  0  0  0  0  0  0  0  0  0  0
  -86.7886   27.9948    0.7641 C   0  0  0  0  0  0  0  0  0  0  0  0
  -86.4498   26.6114    1.2627 C   0  0  0  0  0  0  0  0  0  0  0  0
  -87.5959   25.8495    0.5731 C   0  0  0  0  0  0  0  0  0  0  0  0
  -88.7723   26.7783    0.7729 C   0  0  0  0  0  0  0  0  0  0  0  0
  -88.2013   28.1048    1.2962 C   0  0  0  0  0  0  0  0  0  0  0  0
  -89.4311   32.3774   -3.7251 C   0  0  0  0  0  0  0  0  0  0  0  0
  -89.7137   33.2144   -4.7770 C   0  0  0  0  0  0  0  0  0  0  0  0
  -89.5032   34.5602   -4.7445 C   0  0  0  0  0  0  0  0  0  0  0  0
  -88.9785   35.0789   -3.5829 C   0  0  0  0  0  0  0  0  0  0  0  0
  -88.6833   34.2440   -2.4995 C   0  0  0  0  0  0  0  0  0  0  0  0
  -88.8896   32.8984   -2.5191 C   0  0  0  0  0  0  0  0  0  0  0  0
  -89.8307   35.4187   -5.8668 C   0  0  0  0  0  0  0  0  0  0  0  0
  -88.9570   35.6143   -6.7454 O   0  0  0  0  0  0  0  0  0  0  0  0
  -91.0896   36.0103   -5.9584 N   0  0  0  0  0  0  0  0  0  0  0  0
  -91.8010   35.8334   -5.2128 H   0  0  0  0  0  0  0  0  0  0  0  0
  -91.5263   36.8803   -7.0312 C   0  0  0  0  0  0  0  0  0  0  0  0
  -92.4495   37.9720   -6.4960 C   0  0  0  0  0  0  0  0  0  0  0  0
  -92.6008   38.9571   -7.6429 C   0  0  0  0  0  0  0  0  0  0  0  0
  -93.2632   38.3439   -8.7748 N   0  0  0  0  0  0  0  0  0  0  0  0
  -94.6899   38.2167   -8.5727 C   0  0  0  0  0  0  0  0  0  0  0  0
  -92.6257   37.1397   -9.2149 C   0  0  0  0  0  0  0  0  0  0  0  0
  -92.2214   36.1864   -8.1461 C   0  0  0  0  0  0  0  0  0  0  0  0
  -90.9322   30.4318   -3.7549 C   0  0  0  0  0  0  0  0  0  0  0  0
  -89.6486   31.0263   -3.7765 O   0  0  0  0  0  0  0  0  0  0  0  0
 38 39  1  0  0  0
 39 21  1  0  0  0
 21 22  2  0  0  0
 22 23  1  0  0  0
 23 24  2  0  0  0
 24 25  1  0  0  0
 25 26  2  0  0  0
 26  1  1  0  0  0
  1  3  1  0  0  0
  3  4  2  0  0  0
  4  5  1  0  0  0
  5  6  2  0  0  0
  6  7  1  0  0  0
  7  8  1  0  0  0
  7  9  1  0  0  0
  9 10  2  0  0  0
  9 11  1  0  0  0
 11 12  1  0  0  0
 11 13  1  0  0  0
 13 16  1  0  0  0
 16 17  1  0  0  0
 17 18  1  0  0  0
 18 19  1  0  0  0
 19 20  1  0  0  0
 13 14  1  0  0  0
 14 15  2  0  0  0
 23 27  1  0  0  0
 27 28  2  0  0  0
 27 29  1  0  0  0
 29 31  1  0  0  0
 31 32  1  0  0  0
 32 33  1  0  0  0
 33 34  1  0  0  0
 34 35  1  0  0  0
 34 36  1  0  0  0
 36 37  1  0  0  0
 26 21  1  0  0  0
 15  3  1  0  0  0
 37 31  1  0  0  0
 14  6  1  0  0  0
 20 16  1  0  0  0
  1  2  1  0  0  0
 29 30  1  0  0  0
M  END
> <minimizedAffinity>
-8.16448

> <CNNscore>
0.1421540976

> <CNNaffinity>
6.4759979248

> <CNN_VS>
0.9205896258

> <CNNaffinity_variance>
0.0932920203

$$$$
[H]c1nc(N([H])c2c([H])c([H])c(C(=O)N([H])C3([H])C([H])([H])C([H])([H])N(C([H])([H])[H])C([H])([H])C3([H])[H])c([H])c2OC([H])([H])[H])nc2c1N(C([H])([H])[H])C(=O)[C@@]([H])(C([H])([H])[H])N2C1([H])C([H])([H])C([H])([H])C([H])([H])C1([H])[H]


 39 43  0  0  0  0  0  0  0  0999 V2000
  -87.2361   31.1461   -2.9058 N   0  0  0  0  0  0  0  0  0  0  0  0
  -86.3759   30.6724   -3.3255 H   0  0  0  0  0  0  0  0  0  0  0  0
  -87.8755   30.4443   -1.8544 C   0  0  0  0  0  0  0  0  0  0  0  0
  -89.1777   30.2816   -1.6932 N   0  0  0  0  0  0  0  0  0  0  0  0
  -89.7581   29.6103   -0.7012 C   0  0  0  0  0  0  0  0  0  0  0  0
  -88.9101   29.0276    0.2524 C   0  0  0  0  0  0  0  0  0  0  0  0
  -89.4891   28.2918    1.3162 N   0  0  0  0  0  0  0  0  0  0  0  0
  -90.9440   28.1431    1.4475 C   0  0  0  0  0  0  0  0  0  0  0  0
  -88.5946   27.7069    2.2498 C   0  0  0  0  0  0  0  0  0  0  0  0
  -89.0414   27.3825    3.4018 O   0  0  0  0  0  0  0  0  0  0  0  0
  -87.1724   27.4795    1.8852 C   0  0  0  0  0  0  0  0  0  0  0  0
  -87.1290   26.1729    1.1368 C   0  0  0  0  0  0  0  0  0  0  0  0
  -86.6424   28.5812    1.1171 N   0  0  0  0  0  0  0  0  0  0  0  0
  -87.5460   29.1594    0.1445 C   0  0  0  0  0  0  0  0  0  0  0  0
  -87.0852   29.8551   -0.8942 N   0  0  0  0  0  0  0  0  0  0  0  0
  -85.3601   29.1547    1.2120 C   0  0  0  0  0  0  0  0  0  0  0  0
  -85.2923   30.5257    1.8388 C   0  0  0  0  0  0  0  0  0  0  0  0
  -83.7823   30.7670    1.6612 C   0  0  0  0  0  0  0  0  0  0  0  0
  -83.1925   29.4204    2.0155 C   0  0  0  0  0  0  0  0  0  0  0  0
  -84.3669   28.4338    2.0979 C   0  0  0  0  0  0  0  0  0  0  0  0
  -87.3511   33.5453   -2.6588 C   0  0  0  0  0  0  0  0  0  0  0  0
  -87.7226   34.7846   -3.1203 C   0  0  0  0  0  0  0  0  0  0  0  0
  -88.3609   34.9845   -4.3074 C   0  0  0  0  0  0  0  0  0  0  0  0
  -88.6345   33.8664   -5.0613 C   0  0  0  0  0  0  0  0  0  0  0  0
  -88.2649   32.5946   -4.6098 C   0  0  0  0  0  0  0  0  0  0  0  0
  -87.6263   32.3817   -3.4264 C   0  0  0  0  0  0  0  0  0  0  0  0
  -88.7224   36.3093   -4.7743 C   0  0  0  0  0  0  0  0  0  0  0  0
  -88.6111   37.2744   -3.9807 O   0  0  0  0  0  0  0  0  0  0  0  0
  -89.1839   36.4967   -6.0763 N   0  0  0  0  0  0  0  0  0  0  0  0
  -89.2696   35.6764   -6.7190 H   0  0  0  0  0  0  0  0  0  0  0  0
  -89.5702   37.7699   -6.6492 C   0  0  0  0  0  0  0  0  0  0  0  0
  -90.9997   38.1274   -6.2502 C   0  0  0  0  0  0  0  0  0  0  0  0
  -91.1742   39.5778   -6.6682 C   0  0  0  0  0  0  0  0  0  0  0  0
  -91.0746   39.7233   -8.1052 N   0  0  0  0  0  0  0  0  0  0  0  0
  -92.2737   39.2856   -8.7855 C   0  0  0  0  0  0  0  0  0  0  0  0
  -89.8651   39.1774   -8.6432 C   0  0  0  0  0  0  0  0  0  0  0  0
  -89.4678   37.8383   -8.1298 C   0  0  0  0  0  0  0  0  0  0  0  0
  -85.3039   33.3549   -1.3124 C   0  0  0  0  0  0  0  0  0  0  0  0
  -86.7107   33.3637   -1.4619 O   0  0  0  0  0  0  0  0  0  0  0  0
 38 39  1  0  0  0
 39 21  1  0  0  0
 21 22  2  0  0  0
 22 23  1  0  0  0
 23 24  2  0  0  0
 24 25  1  0  0  0
 25 26  2  0  0  0
 26  1  1  0  0  0
  1  3  1  0  0  0
  3  4  2  0  0  0
  4  5  1  0  0  0
  5  6  2  0  0  0
  6  7  1  0  0  0
  7  8  1  0  0  0
  7  9  1  0  0  0
  9 10  2  0  0  0
  9 11  1  0  0  0
 11 12  1  0  0  0
 11 13  1  0  0  0
 13 16  1  0  0  0
 16 17  1  0  0  0
 17 18  1  0  0  0
 18 19  1  0  0  0
 19 20  1  0  0  0
 13 14  1  0  0  0
 14 15  2  0  0  0
 23 27  1  0  0  0
 27 28  2  0  0  0
 27 29  1  0  0  0
 29 31  1  0  0  0
 31 32  1  0  0  0
 32 33  1  0  0  0
 33 34  1  0  0  0
 34 35  1  0  0  0
 34 36  1  0  0  0
 36 37  1  0  0  0
 26 21  1  0  0  0
 15  3  1  0  0  0
 37 31  1  0  0  0
 14  6  1  0  0  0
 20 16  1  0  0  0
  1  2  1  0  0  0
 29 30  1  0  0  0
M  END
> <minimizedAffinity>
-8.39610

> <CNNscore>
0.1385402530

> <CNNaffinity>
6.5374054909

> <CNN_VS>
0.9056938291

> <CNNaffinity_variance>
0.0920270532

$$$$
[H]c1nc(N([H])c2c([H])c([H])c(C(=O)N([H])C3([H])C([H])([H])C([H])([H])N(C([H])([H])[H])C([H])([H])C3([H])[H])c([H])c2OC([H])([H])[H])nc2c1N(C([H])([H])[H])C(=O)[C@@]([H])(C([H])([H])[H])N2C1([H])C([H])([H])C([H])([H])C([H])([H])C1([H])[H]


 39 43  0  0  0  0  0  0  0  0999 V2000
  -86.6434   34.0886   -2.4873 N   0  0  0  0  0  0  0  0  0  0  0  0
  -85.6559   34.4929   -2.4473 H   0  0  0  0  0  0  0  0  0  0  0  0
  -87.6054   34.8758   -3.1669 C   0  0  0  0  0  0  0  0  0  0  0  0
  -87.5588   36.1826   -3.3617 N   0  0  0  0  0  0  0  0  0  0  0  0
  -88.4706   36.9025   -4.0113 C   0  0  0  0  0  0  0  0  0  0  0  0
  -89.5736   36.2095   -4.5319 C   0  0  0  0  0  0  0  0  0  0  0  0
  -90.5591   36.9383   -5.2432 N   0  0  0  0  0  0  0  0  0  0  0  0
  -90.4576   38.3912   -5.4296 C   0  0  0  0  0  0  0  0  0  0  0  0
  -91.6501   36.1960   -5.7652 C   0  0  0  0  0  0  0  0  0  0  0  0
  -92.7266   36.8184   -6.0584 O   0  0  0  0  0  0  0  0  0  0  0  0
  -91.5323   34.7284   -5.9643 C   0  0  0  0  0  0  0  0  0  0  0  0
  -90.8574   34.5330   -7.2968 C   0  0  0  0  0  0  0  0  0  0  0  0
  -90.8148   34.1049   -4.8777 N   0  0  0  0  0  0  0  0  0  0  0  0
  -89.6841   34.8495   -4.3641 C   0  0  0  0  0  0  0  0  0  0  0  0
  -88.7058   34.2405   -3.6953 N   0  0  0  0  0  0  0  0  0  0  0  0
  -91.0930   32.8690   -4.2634 C   0  0  0  0  0  0  0  0  0  0  0  0
  -92.5215   32.3911   -4.3534 C   0  0  0  0  0  0  0  0  0  0  0  0
  -92.3708   31.1091   -3.5146 C   0  0  0  0  0  0  0  0  0  0  0  0
  -91.0473   30.5579   -3.9953 C   0  0  0  0  0  0  0  0  0  0  0  0
  -90.3953   31.6585   -4.8457 C   0  0  0  0  0  0  0  0  0  0  0  0
  -85.9792   32.4355   -0.8574 C   0  0  0  0  0  0  0  0  0  0  0  0
  -86.1539   31.2235   -0.2349 C   0  0  0  0  0  0  0  0  0  0  0  0
  -87.1620   30.3594   -0.5411 C   0  0  0  0  0  0  0  0  0  0  0  0
  -88.0350   30.7493   -1.5307 C   0  0  0  0  0  0  0  0  0  0  0  0
  -87.8751   31.9797   -2.1777 C   0  0  0  0  0  0  0  0  0  0  0  0
  -86.8729   32.8519   -1.8805 C   0  0  0  0  0  0  0  0  0  0  0  0
  -87.3292   29.0948    0.1494 C   0  0  0  0  0  0  0  0  0  0  0  0
  -86.3107   28.3995    0.3794 O   0  0  0  0  0  0  0  0  0  0  0  0
  -88.5966   28.6686    0.5433 N   0  0  0  0  0  0  0  0  0  0  0  0
  -89.4308   29.2649    0.3391 H   0  0  0  0  0  0  0  0  0  0  0  0
  -88.8814   27.4299    1.2384 C   0  0  0  0  0  0  0  0  0  0  0  0
  -90.3874   27.1941    1.3214 C   0  0  0  0  0  0  0  0  0  0  0  0
  -90.5355   25.7617    1.8065 C   0  0  0  0  0  0  0  0  0  0  0  0
  -89.9965   25.6033    3.1407 N   0  0  0  0  0  0  0  0  0  0  0  0
  -90.8783   26.1369    4.1557 C   0  0  0  0  0  0  0  0  0  0  0  0
  -88.6392   26.0447    3.2550 C   0  0  0  0  0  0  0  0  0  0  0  0
  -88.3197   27.3480    2.6114 C   0  0  0  0  0  0  0  0  0  0  0  0
  -83.6285   32.8766   -0.2920 C   0  0  0  0  0  0  0  0  0  0  0  0
  -84.9589   33.2909   -0.5368 O   0  0  0  0  0  0  0  0  0  0  0  0
 38 39  1  0  0  0
 39 21  1  0  0  0
 21 22  2  0  0  0
 22 23  1  0  0  0
 23 24  2  0  0  0
 24 25  1  0  0  0
 25 26  2  0  0  0
 26  1  1  0  0  0
  1  3  1  0  0  0
  3  4  2  0  0  0
  4  5  1  0  0  0
  5  6  2  0  0  0
  6  7  1  0  0  0
  7  8  1  0  0  0
  7  9  1  0  0  0
  9 10  2  0  0  0
  9 11  1  0  0  0
 11 12  1  0  0  0
 11 13  1  0  0  0
 13 16  1  0  0  0
 16 17  1  0  0  0
 17 18  1  0  0  0
 18 19  1  0  0  0
 19 20  1  0  0  0
 13 14  1  0  0  0
 14 15  2  0  0  0
 23 27  1  0  0  0
 27 28  2  0  0  0
 27 29  1  0  0  0
 29 31  1  0  0  0
 31 32  1  0  0  0
 32 33  1  0  0  0
 33 34  1  0  0  0
 34 35  1  0  0  0
 34 36  1  0  0  0
 36 37  1  0  0  0
 26 21  1  0  0  0
 15  3  1  0  0  0
 37 31  1  0  0  0
 14  6  1  0  0  0
 20 16  1  0  0  0
  1  2  1  0  0  0
 29 30  1  0  0  0
M  END
> <minimizedAffinity>
-7.75341

> <CNNscore>
0.0861702710

> <CNNaffinity>
6.4394097328

> <CNN_VS>
0.5548856854

> <CNNaffinity_variance>
0.1442499459

$$$$
[H]c1nc(N([H])c2c([H])c([H])c(C(=O)N([H])C3([H])C([H])([H])C([H])([H])N(C([H])([H])[H])C([H])([H])C3([H])[H])c([H])c2OC([H])([H])[H])nc2c1N(C([H])([H])[H])C(=O)[C@@]([H])(C([H])([H])[H])N2C1([H])C([H])([H])C([H])([H])C([H])([H])C1([H])[H]


 39 43  0  0  0  0  0  0  0  0999 V2000
  -86.3215   31.4985   -0.7589 N   0  0  0  0  0  0  0  0  0  0  0  0
  -85.2833   31.6722   -0.5794 H   0  0  0  0  0  0  0  0  0  0  0  0
  -87.0091   32.5277   -1.4480 C   0  0  0  0  0  0  0  0  0  0  0  0
  -86.6345   33.7911   -1.5549 N   0  0  0  0  0  0  0  0  0  0  0  0
  -87.2922   34.7414   -2.2152 C   0  0  0  0  0  0  0  0  0  0  0  0
  -88.4847   34.3640   -2.8503 C   0  0  0  0  0  0  0  0  0  0  0  0
  -89.2066   35.3439   -3.5763 N   0  0  0  0  0  0  0  0  0  0  0  0
  -88.7444   36.7350   -3.6619 C   0  0  0  0  0  0  0  0  0  0  0  0
  -90.3992   34.9160   -4.2153 C   0  0  0  0  0  0  0  0  0  0  0  0
  -91.2679   35.7955   -4.5377 O   0  0  0  0  0  0  0  0  0  0  0  0
  -90.6223   33.4750   -4.5002 C   0  0  0  0  0  0  0  0  0  0  0  0
  -89.9109   33.1826   -5.7954 C   0  0  0  0  0  0  0  0  0  0  0  0
  -90.1640   32.6451   -3.4113 N   0  0  0  0  0  0  0  0  0  0  0  0
  -88.9318   33.0661   -2.7779 C   0  0  0  0  0  0  0  0  0  0  0  0
  -88.1846   32.2059   -2.0871 N   0  0  0  0  0  0  0  0  0  0  0  0
  -90.7789   31.4876   -2.8973 C   0  0  0  0  0  0  0  0  0  0  0  0
  -92.2645   31.3664   -3.1326 C   0  0  0  0  0  0  0  0  0  0  0  0
  -92.4960   30.0535   -2.3629 C   0  0  0  0  0  0  0  0  0  0  0  0
  -91.2982   29.2231   -2.7658 C   0  0  0  0  0  0  0  0  0  0  0  0
  -90.3310   30.1698   -3.4922 C   0  0  0  0  0  0  0  0  0  0  0  0
  -86.0136   29.3638    0.3267 C   0  0  0  0  0  0  0  0  0  0  0  0
  -86.5055   28.1644    0.7811 C   0  0  0  0  0  0  0  0  0  0  0  0
  -87.8114   27.7939    0.6623 C   0  0  0  0  0  0  0  0  0  0  0  0
  -88.6578   28.6896    0.0500 C   0  0  0  0  0  0  0  0  0  0  0  0
  -88.1773   29.9168   -0.4201 C   0  0  0  0  0  0  0  0  0  0  0  0
  -86.8755   30.2990   -0.3069 C   0  0  0  0  0  0  0  0  0  0  0  0
  -88.3022   26.5271    1.1704 C   0  0  0  0  0  0  0  0  0  0  0  0
  -87.9270   26.1528    2.3073 O   0  0  0  0  0  0  0  0  0  0  0  0
  -89.1694   25.7488    0.4054 N   0  0  0  0  0  0  0  0  0  0  0  0
  -89.4669   26.0812   -0.5403 H   0  0  0  0  0  0  0  0  0  0  0  0
  -89.7225   24.4727    0.8108 C   0  0  0  0  0  0  0  0  0  0  0  0
  -89.7824   23.5120   -0.3740 C   0  0  0  0  0  0  0  0  0  0  0  0
  -90.1049   22.1570    0.2335 C   0  0  0  0  0  0  0  0  0  0  0  0
  -91.4118   22.1612    0.8564 N   0  0  0  0  0  0  0  0  0  0  0  0
  -92.4822   22.0853   -0.1136 C   0  0  0  0  0  0  0  0  0  0  0  0
  -91.5713   23.2064    1.8221 C   0  0  0  0  0  0  0  0  0  0  0  0
  -91.0764   24.5503    1.4177 C   0  0  0  0  0  0  0  0  0  0  0  0
  -83.9014   29.4090    1.5823 C   0  0  0  0  0  0  0  0  0  0  0  0
  -84.6971   29.7186    0.4543 O   0  0  0  0  0  0  0  0  0  0  0  0
 38 39  1  0  0  0
 39 21  1  0  0  0
 21 22  2  0  0  0
 22 23  1  0  0  0
 23 24  2  0  0  0
 24 25  1  0  0  0
 25 26  2  0  0  0
 26  1  1  0  0  0
  1  3  1  0  0  0
  3  4  2  0  0  0
  4  5  1  0  0  0
  5  6  2  0  0  0
  6  7  1  0  0  0
  7  8  1  0  0  0
  7  9  1  0  0  0
  9 10  2  0  0  0
  9 11  1  0  0  0
 11 12  1  0  0  0
 11 13  1  0  0  0
 13 16  1  0  0  0
 16 17  1  0  0  0
 17 18  1  0  0  0
 18 19  1  0  0  0
 19 20  1  0  0  0
 13 14  1  0  0  0
 14 15  2  0  0  0
 23 27  1  0  0  0
 27 28  2  0  0  0
 27 29  1  0  0  0
 29 31  1  0  0  0
 31 32  1  0  0  0
 32 33  1  0  0  0
 33 34  1  0  0  0
 34 35  1  0  0  0
 34 36  1  0  0  0
 36 37  1  0  0  0
 26 21  1  0  0  0
 15  3  1  0  0  0
 37 31  1  0  0  0
 14  6  1  0  0  0
 20 16  1  0  0  0
  1  2  1  0  0  0
 29 30  1  0  0  0
M  END
> <minimizedAffinity>
-7.68728

> <CNNscore>
0.0597633980

> <CNNaffinity>
6.5585126877

> <CNN_VS>
0.3919590116

> <CNNaffinity_variance>
0.1381295770

$$$$
[H]c1nc(N([H])c2c([H])c([H])c(C(=O)N([H])C3([H])C([H])([H])C([H])([H])N(C([H])([H])[H])C([H])([H])C3([H])[H])c([H])c2OC([H])([H])[H])nc2c1N(C([H])([H])[H])C(=O)[C@@]([H])(C([H])([H])[H])N2C1([H])C([H])([H])C([H])([H])C([H])([H])C1([H])[H]


 39 43  0  0  0  0  0  0  0  0999 V2000
  -87.1381   33.6392   -4.2496 N   0  0  0  0  0  0  0  0  0  0  0  0
  -86.5958   33.3342   -5.1174 H   0  0  0  0  0  0  0  0  0  0  0  0
  -87.7433   34.9182   -4.3181 C   0  0  0  0  0  0  0  0  0  0  0  0
  -87.5763   35.9156   -3.4665 N   0  0  0  0  0  0  0  0  0  0  0  0
  -88.1489   37.1140   -3.5543 C   0  0  0  0  0  0  0  0  0  0  0  0
  -89.0019   37.3315   -4.6466 C   0  0  0  0  0  0  0  0  0  0  0  0
  -89.6192   38.5998   -4.7836 N   0  0  0  0  0  0  0  0  0  0  0  0
  -89.3989   39.6733   -3.8064 C   0  0  0  0  0  0  0  0  0  0  0  0
  -90.4624   38.7815   -5.9105 C   0  0  0  0  0  0  0  0  0  0  0  0
  -91.3251   39.7233   -5.8812 O   0  0  0  0  0  0  0  0  0  0  0  0
  -90.3355   37.8921   -7.0938 C   0  0  0  0  0  0  0  0  0  0  0  0
  -89.2179   38.4561   -7.9317 C   0  0  0  0  0  0  0  0  0  0  0  0
  -90.1032   36.5223   -6.7013 N   0  0  0  0  0  0  0  0  0  0  0  0
  -89.2200   36.3359   -5.5690 C   0  0  0  0  0  0  0  0  0  0  0  0
  -88.5886   35.1792   -5.3722 N   0  0  0  0  0  0  0  0  0  0  0  0
  -90.6393   35.3595   -7.2865 C   0  0  0  0  0  0  0  0  0  0  0  0
  -92.0664   35.0318   -6.9217 C   0  0  0  0  0  0  0  0  0  0  0  0
  -92.1844   33.7047   -7.6928 C   0  0  0  0  0  0  0  0  0  0  0  0
  -91.4789   34.0185   -8.9929 C   0  0  0  0  0  0  0  0  0  0  0  0
  -90.7703   35.3668   -8.7944 C   0  0  0  0  0  0  0  0  0  0  0  0
  -87.9275   31.5541   -3.3223 C   0  0  0  0  0  0  0  0  0  0  0  0
  -88.0215   30.6596   -2.2841 C   0  0  0  0  0  0  0  0  0  0  0  0
  -87.4382   30.8549   -1.0683 C   0  0  0  0  0  0  0  0  0  0  0  0
  -86.7241   32.0193   -0.9019 C   0  0  0  0  0  0  0  0  0  0  0  0
  -86.6158   32.9440   -1.9465 C   0  0  0  0  0  0  0  0  0  0  0  0
  -87.1930   32.7604   -3.1657 C   0  0  0  0  0  0  0  0  0  0  0  0
  -87.5412   29.8804    0.0012 C   0  0  0  0  0  0  0  0  0  0  0  0
  -86.5370   29.6787    0.7255 O   0  0  0  0  0  0  0  0  0  0  0  0
  -88.7320   29.1870    0.2112 N   0  0  0  0  0  0  0  0  0  0  0  0
  -89.5551   29.3712   -0.4067 H   0  0  0  0  0  0  0  0  0  0  0  0
  -88.9493   28.1968    1.2460 C   0  0  0  0  0  0  0  0  0  0  0  0
  -88.4029   26.8385    0.8136 C   0  0  0  0  0  0  0  0  0  0  0  0
  -88.4368   25.9826    2.0687 C   0  0  0  0  0  0  0  0  0  0  0  0
  -89.7952   25.7792    2.5262 N   0  0  0  0  0  0  0  0  0  0  0  0
  -90.5024   24.8018    1.7280 C   0  0  0  0  0  0  0  0  0  0  0  0
  -90.5121   27.0032    2.7216 C   0  0  0  0  0  0  0  0  0  0  0  0
  -90.3694   28.0226    1.6468 C   0  0  0  0  0  0  0  0  0  0  0  0
  -89.9105   31.4750   -4.7719 C   0  0  0  0  0  0  0  0  0  0  0  0
  -88.5217   31.3411   -4.5376 O   0  0  0  0  0  0  0  0  0  0  0  0
 38 39  1  0  0  0
 39 21  1  0  0  0
 21 22  2  0  0  0
 22 23  1  0  0  0
 23 24  2  0  0  0
 24 25  1  0  0  0
 25 26  2  0  0  0
 26  1  1  0  0  0
  1  3  1  0  0  0
  3  4  2  0  0  0
  4  5  1  0  0  0
  5  6  2  0  0  0
  6  7  1  0  0  0
  7  8  1  0  0  0
  7  9  1  0  0  0
  9 10  2  0  0  0
  9 11  1  0  0  0
 11 12  1  0  0  0
 11 13  1  0  0  0
 13 16  1  0  0  0
 16 17  1  0  0  0
 17 18  1  0  0  0
 18 19  1  0  0  0
 19 20  1  0  0  0
 13 14  1  0  0  0
 14 15  2  0  0  0
 23 27  1  0  0  0
 27 28  2  0  0  0
 27 29  1  0  0  0
 29 31  1  0  0  0
 31 32  1  0  0  0
 32 33  1  0  0  0
 33 34  1  0  0  0
 34 35  1  0  0  0
 34 36  1  0  0  0
 36 37  1  0  0  0
 26 21  1  0  0  0
 15  3  1  0  0  0
 37 31  1  0  0  0
 14  6  1  0  0  0
 20 16  1  0  0  0
  1  2  1  0  0  0
 29 30  1  0  0  0
M  END
> <minimizedAffinity>
-7.65065

> <CNNscore>
0.0571811907

> <CNNaffinity>
5.9599499702

> <CNN_VS>
0.3407970369

> <CNNaffinity_variance>
0.1791692674

$$$$
[H]c1nc(N([H])c2c([H])c([H])c(C(=O)N([H])C3([H])C([H])([H])C([H])([H])N(C([H])([H])[H])C([H])([H])C3([H])[H])c([H])c2OC([H])([H])[H])nc2c1N(C([H])([H])[H])C(=O)[C@@]([H])(C([H])([H])[H])N2C1([H])C([H])([H])C([H])([H])C([H])([H])C1([H])[H]


 39 43  0  0  0  0  0  0  0  0999 V2000
  -88.8877   33.2606   -1.7520 N   0  0  0  0  0  0  0  0  0  0  0  0
  -89.0402   33.7800   -0.8315 H   0  0  0  0  0  0  0  0  0  0  0  0
  -88.6768   34.0746   -2.8921 C   0  0  0  0  0  0  0  0  0  0  0  0
  -87.5097   34.4330   -3.3995 N   0  0  0  0  0  0  0  0  0  0  0  0
  -87.3338   35.1928   -4.4781 C   0  0  0  0  0  0  0  0  0  0  0  0
  -88.4899   35.6496   -5.1283 C   0  0  0  0  0  0  0  0  0  0  0  0
  -88.3446   36.4490   -6.2894 N   0  0  0  0  0  0  0  0  0  0  0  0
  -87.0222   36.8182   -6.8098 C   0  0  0  0  0  0  0  0  0  0  0  0
  -89.5395   36.8772   -6.9239 C   0  0  0  0  0  0  0  0  0  0  0  0
  -89.4867   37.8849   -7.7074 O   0  0  0  0  0  0  0  0  0  0  0  0
  -90.8180   36.1616   -6.6773 C   0  0  0  0  0  0  0  0  0  0  0  0
  -90.8316   34.9809   -7.6127 C   0  0  0  0  0  0  0  0  0  0  0  0
  -90.9488   35.7782   -5.2915 N   0  0  0  0  0  0  0  0  0  0  0  0
  -89.7351   35.3143   -4.6523 C   0  0  0  0  0  0  0  0  0  0  0  0
  -89.7810   34.5471   -3.5638 N   0  0  0  0  0  0  0  0  0  0  0  0
  -92.1115   35.8110   -4.4984 C   0  0  0  0  0  0  0  0  0  0  0  0
  -92.6212   37.1817   -4.1263 C   0  0  0  0  0  0  0  0  0  0  0  0
  -93.7969   36.7380   -3.2371 C   0  0  0  0  0  0  0  0  0  0  0  0
  -94.3761   35.5786   -4.0160 C   0  0  0  0  0  0  0  0  0  0  0  0
  -93.3680   35.2476   -5.1268 C   0  0  0  0  0  0  0  0  0  0  0  0
  -87.7176   31.1853   -1.3594 C   0  0  0  0  0  0  0  0  0  0  0  0
  -87.6816   29.8124   -1.3318 C   0  0  0  0  0  0  0  0  0  0  0  0
  -88.7485   29.0259   -1.6479 C   0  0  0  0  0  0  0  0  0  0  0  0
  -89.9092   29.6701   -2.0103 C   0  0  0  0  0  0  0  0  0  0  0  0
  -89.9673   31.0677   -2.0450 C   0  0  0  0  0  0  0  0  0  0  0  0
  -88.9090   31.8645   -1.7309 C   0  0  0  0  0  0  0  0  0  0  0  0
  -88.6824   27.5781   -1.5900 C   0  0  0  0  0  0  0  0  0  0  0  0
  -87.5612   27.0359   -1.4397 O   0  0  0  0  0  0  0  0  0  0  0  0
  -89.8430   26.8141   -1.7015 N   0  0  0  0  0  0  0  0  0  0  0  0
  -90.7661   27.2888   -1.8278 H   0  0  0  0  0  0  0  0  0  0  0  0
  -89.8968   25.3672   -1.6557 C   0  0  0  0  0  0  0  0  0  0  0  0
  -91.2138   24.8595   -2.2372 C   0  0  0  0  0  0  0  0  0  0  0  0
  -91.0254   23.3593   -2.3881 C   0  0  0  0  0  0  0  0  0  0  0  0
  -90.8448   22.7230   -1.1004 N   0  0  0  0  0  0  0  0  0  0  0  0
  -92.0894   22.5879   -0.3757 C   0  0  0  0  0  0  0  0  0  0  0  0
  -89.7813   23.2979   -0.3331 C   0  0  0  0  0  0  0  0  0  0  0  0
  -89.7303   24.7848   -0.2990 C   0  0  0  0  0  0  0  0  0  0  0  0
  -85.7792   31.7058    0.0590 C   0  0  0  0  0  0  0  0  0  0  0  0
  -86.6343   31.9596   -1.0391 O   0  0  0  0  0  0  0  0  0  0  0  0
 38 39  1  0  0  0
 39 21  1  0  0  0
 21 22  2  0  0  0
 22 23  1  0  0  0
 23 24  2  0  0  0
 24 25  1  0  0  0
 25 26  2  0  0  0
 26  1  1  0  0  0
  1  3  1  0  0  0
  3  4  2  0  0  0
  4  5  1  0  0  0
  5  6  2  0  0  0
  6  7  1  0  0  0
  7  8  1  0  0  0
  7  9  1  0  0  0
  9 10  2  0  0  0
  9 11  1  0  0  0
 11 12  1  0  0  0
 11 13  1  0  0  0
 13 16  1  0  0  0
 16 17  1  0  0  0
 17 18  1  0  0  0
 18 19  1  0  0  0
 19 20  1  0  0  0
 13 14  1  0  0  0
 14 15  2  0  0  0
 23 27  1  0  0  0
 27 28  2  0  0  0
 27 29  1  0  0  0
 29 31  1  0  0  0
 31 32  1  0  0  0
 32 33  1  0  0  0
 33 34  1  0  0  0
 34 35  1  0  0  0
 34 36  1  0  0  0
 36 37  1  0  0  0
 26 21  1  0  0  0
 15  3  1  0  0  0
 37 31  1  0  0  0
 14  6  1  0  0  0
 20 16  1  0  0  0
  1  2  1  0  0  0
 29 30  1  0  0  0
M  END
> <minimizedAffinity>
-7.19546

> <CNNscore>
0.0478771962

> <CNNaffinity>
5.7929396629

> <CNN_VS>
0.2773497105

> <CNNaffinity_variance>
0.1370221078

$$$$
[H]c1nc(N([H])c2c([H])c([H])c(C(=O)N([H])C3([H])C([H])([H])C([H])([H])N(C([H])([H])[H])C([H])([H])C3([H])[H])c([H])c2OC([H])([H])[H])nc2c1N(C([H])([H])[H])C(=O)[C@@]([H])(C([H])([H])[H])N2C1([H])C([H])([H])C([H])([H])C([H])([H])C1([H])[H]


 39 43  0  0  0  0  0  0  0  0999 V2000
  -89.1411   33.7560   -2.1109 N   0  0  0  0  0  0  0  0  0  0  0  0
  -88.9412   34.5510   -1.4264 H   0  0  0  0  0  0  0  0  0  0  0  0
  -89.4457   34.1466   -3.4381 C   0  0  0  0  0  0  0  0  0  0  0  0
  -89.9882   33.3903   -4.3772 N   0  0  0  0  0  0  0  0  0  0  0  0
  -90.2742   33.7803   -5.6173 C   0  0  0  0  0  0  0  0  0  0  0  0
  -89.9719   35.1090   -5.9507 C   0  0  0  0  0  0  0  0  0  0  0  0
  -90.2751   35.5668   -7.2571 N   0  0  0  0  0  0  0  0  0  0  0  0
  -90.8777   34.6825   -8.2626 C   0  0  0  0  0  0  0  0  0  0  0  0
  -89.9664   36.9212   -7.5472 C   0  0  0  0  0  0  0  0  0  0  0  0
  -89.8501   37.2718   -8.7702 O   0  0  0  0  0  0  0  0  0  0  0  0
  -89.7862   37.9022   -6.4461 C   0  0  0  0  0  0  0  0  0  0  0  0
  -91.1656   38.3746   -6.0677 C   0  0  0  0  0  0  0  0  0  0  0  0
  -89.0699   37.3218   -5.3349 N   0  0  0  0  0  0  0  0  0  0  0  0
  -89.4058   35.9487   -5.0211 C   0  0  0  0  0  0  0  0  0  0  0  0
  -89.1671   35.4411   -3.8125 N   0  0  0  0  0  0  0  0  0  0  0  0
  -88.0864   37.9337   -4.5347 C   0  0  0  0  0  0  0  0  0  0  0  0
  -87.1417   38.8705   -5.2467 C   0  0  0  0  0  0  0  0  0  0  0  0
  -86.2409   39.2172   -4.0473 C   0  0  0  0  0  0  0  0  0  0  0  0
  -87.2411   39.3872   -2.9261 C   0  0  0  0  0  0  0  0  0  0  0  0
  -88.5869   38.8689   -3.4548 C   0  0  0  0  0  0  0  0  0  0  0  0
  -87.8102   31.9393   -1.2400 C   0  0  0  0  0  0  0  0  0  0  0  0
  -87.6913   30.6532   -0.7722 C   0  0  0  0  0  0  0  0  0  0  0  0
  -88.7437   29.7957   -0.6543 C   0  0  0  0  0  0  0  0  0  0  0  0
  -89.9781   30.2721   -1.0321 C   0  0  0  0  0  0  0  0  0  0  0  0
  -90.1214   31.5789   -1.5114 C   0  0  0  0  0  0  0  0  0  0  0  0
  -89.0784   32.4454   -1.6331 C   0  0  0  0  0  0  0  0  0  0  0  0
  -88.5865   28.4493   -0.1383 C   0  0  0  0  0  0  0  0  0  0  0  0
  -87.4311   27.9655   -0.0711 O   0  0  0  0  0  0  0  0  0  0  0  0
  -89.6995   27.7160    0.2698 N   0  0  0  0  0  0  0  0  0  0  0  0
  -90.6528   28.1402    0.2028 H   0  0  0  0  0  0  0  0  0  0  0  0
  -89.6618   26.3689    0.8012 C   0  0  0  0  0  0  0  0  0  0  0  0
  -90.2397   25.3775   -0.2055 C   0  0  0  0  0  0  0  0  0  0  0  0
  -89.8870   24.0060    0.3453 C   0  0  0  0  0  0  0  0  0  0  0  0
  -90.5416   23.7682    1.6145 N   0  0  0  0  0  0  0  0  0  0  0  0
  -91.9433   23.4475    1.4574 C   0  0  0  0  0  0  0  0  0  0  0  0
  -90.2811   24.7911    2.5821 C   0  0  0  0  0  0  0  0  0  0  0  0
  -90.3760   26.1931    2.0921 C   0  0  0  0  0  0  0  0  0  0  0  0
  -85.7095   32.8893   -0.3888 C   0  0  0  0  0  0  0  0  0  0  0  0
  -86.7403   32.7868   -1.3524 O   0  0  0  0  0  0  0  0  0  0  0  0
 38 39  1  0  0  0
 39 21  1  0  0  0
 21 22  2  0  0  0
 22 23  1  0  0  0
 23 24  2  0  0  0
 24 25  1  0  0  0
 25 26  2  0  0  0
 26  1  1  0  0  0
  1  3  1  0  0  0
  3  4  2  0  0  0
  4  5  1  0  0  0
  5  6  2  0  0  0
  6  7  1  0  0  0
  7  8  1  0  0  0
  7  9  1  0  0  0
  9 10  2  0  0  0
  9 11  1  0  0  0
 11 12  1  0  0  0
 11 13  1  0  0  0
 13 16  1  0  0  0
 16 17  1  0  0  0
 17 18  1  0  0  0
 18 19  1  0  0  0
 19 20  1  0  0  0
 13 14  1  0  0  0
 14 15  2  0  0  0
 23 27  1  0  0  0
 27 28  2  0  0  0
 27 29  1  0  0  0
 29 31  1  0  0  0
 31 32  1  0  0  0
 32 33  1  0  0  0
 33 34  1  0  0  0
 34 35  1  0  0  0
 34 36  1  0  0  0
 36 37  1  0  0  0
 26 21  1  0  0  0
 15  3  1  0  0  0
 37 31  1  0  0  0
 14  6  1  0  0  0
 20 16  1  0  0  0
  1  2  1  0  0  0
 29 30  1  0  0  0
M  END
> <minimizedAffinity>
-7.34957

> <CNNscore>
0.0478463061

> <CNNaffinity>
6.0476770401

> <CNN_VS>
0.2893590033

> <CNNaffinity_variance>
0.0497532487

$$$$
[H]c1c([H])c([H])c(N2C([H])([H])C([H])([H])N(c3nc4c([H])c([H])c([H])c([H])c4c(=O)n3[H])C([H])([H])C2([H])[H])c(OC([H])([H])[H])c1[H]


 26 29  0  0  0  0  0  0  0  0999 V2000
  -90.3360   26.2723   -1.2007 N   0  0  0  0  0  0  0  0  0  0  0  0
  -90.5024   27.3944   -0.3336 C   0  0  0  0  0  0  0  0  0  0  0  0
  -89.2052   28.2047   -0.2756 C   0  0  0  0  0  0  0  0  0  0  0  0
  -88.0922   27.3468    0.0797 N   0  0  0  0  0  0  0  0  0  0  0  0
  -88.2593   25.9158   -0.0743 C   0  0  0  0  0  0  0  0  0  0  0  0
  -89.0133   25.6537   -1.3431 C   0  0  0  0  0  0  0  0  0  0  0  0
  -86.8584   27.8568    0.5685 C   0  0  0  0  0  0  0  0  0  0  0  0
  -86.3831   29.0485    0.1642 N   0  0  0  0  0  0  0  0  0  0  0  0
  -85.2230   29.5726    0.5974 C   0  0  0  0  0  0  0  0  0  0  0  0
  -84.7493   30.7882    0.1776 C   0  0  0  0  0  0  0  0  0  0  0  0
  -83.5457   31.2921    0.6504 C   0  0  0  0  0  0  0  0  0  0  0  0
  -82.7894   30.5955    1.5510 C   0  0  0  0  0  0  0  0  0  0  0  0
  -83.2652   29.3656    1.9781 C   0  0  0  0  0  0  0  0  0  0  0  0
  -84.4605   28.8463    1.5197 C   0  0  0  0  0  0  0  0  0  0  0  0
  -84.9467   27.6277    1.9330 C   0  0  0  0  0  0  0  0  0  0  0  0
  -84.2916   26.9489    2.7580 O   0  0  0  0  0  0  0  0  0  0  0  0
  -86.1125   27.1593    1.4629 N   0  0  0  0  0  0  0  0  0  0  0  0
  -86.4907   26.2170    1.7814 H   0  0  0  0  0  0  0  0  0  0  0  0
  -91.7438   26.2915   -3.1403 C   0  0  0  0  0  0  0  0  0  0  0  0
  -92.7574   25.7506   -3.9213 C   0  0  0  0  0  0  0  0  0  0  0  0
  -93.4238   24.5981   -3.5633 C   0  0  0  0  0  0  0  0  0  0  0  0
  -93.0451   23.9901   -2.3850 C   0  0  0  0  0  0  0  0  0  0  0  0
  -92.0331   24.5275   -1.6020 C   0  0  0  0  0  0  0  0  0  0  0  0
  -91.3705   25.6809   -1.9661 C   0  0  0  0  0  0  0  0  0  0  0  0
  -91.8738   28.6076   -3.7414 C   0  0  0  0  0  0  0  0  0  0  0  0
  -91.0959   27.4484   -3.5302 O   0  0  0  0  0  0  0  0  0  0  0  0
 25 26  1  0  0  0
 26 19  1  0  0  0
 19 20  2  0  0  0
 20 21  1  0  0  0
 21 22  2  0  0  0
 22 23  1  0  0  0
 23 24  2  0  0  0
 24  1  1  0  0  0
  1  2  1  0  0  0
  2  3  1  0  0  0
  3  4  1  0  0  0
  4  5  1  0  0  0
  5  6  1  0  0  0
  4  7  1  0  0  0
  7  8  2  0  0  0
  8  9  1  0  0  0
  9 10  2  0  0  0
 10 11  1  0  0  0
 11 12  2  0  0  0
 12 13  1  0  0  0
 13 14  2  0  0  0
 14 15  1  0  0  0
 15 16  2  0  0  0
 15 17  1  0  0  0
 24 19  1  0  0  0
  6  1  1  0  0  0
 17  7  1  0  0  0
 14  9  1  0  0  0
 17 18  1  0  0  0
M  END
> <minimizedAffinity>
-8.25202

> <CNNscore>
0.3274717629

> <CNNaffinity>
5.8510527611

> <CNN_VS>
1.9160546064

> <CNNaffinity_variance>
0.3080589473

$$$$
[H]c1c([H])c([H])c(N2C([H])([H])C([H])([H])N(c3nc4c([H])c([H])c([H])c([H])c4c(=O)n3[H])C([H])([H])C2([H])[H])c(OC([H])([H])[H])c1[H]


 26 29  0  0  0  0  0  0  0  0999 V2000
  -90.4747   26.4995   -1.4354 N   0  0  0  0  0  0  0  0  0  0  0  0
  -90.6510   27.4607   -0.3944 C   0  0  0  0  0  0  0  0  0  0  0  0
  -89.3914   28.3198   -0.2601 C   0  0  0  0  0  0  0  0  0  0  0  0
  -88.2241   27.4774   -0.0912 N   0  0  0  0  0  0  0  0  0  0  0  0
  -88.3319   26.0816   -0.4647 C   0  0  0  0  0  0  0  0  0  0  0  0
  -89.1331   25.9825   -1.7277 C   0  0  0  0  0  0  0  0  0  0  0  0
  -86.9931   27.9692    0.4228 C   0  0  0  0  0  0  0  0  0  0  0  0
  -86.5039   29.1644    0.0462 N   0  0  0  0  0  0  0  0  0  0  0  0
  -85.3458   29.6719    0.5037 C   0  0  0  0  0  0  0  0  0  0  0  0
  -84.8578   30.8912    0.1122 C   0  0  0  0  0  0  0  0  0  0  0  0
  -83.6569   31.3776    0.6096 C   0  0  0  0  0  0  0  0  0  0  0  0
  -82.9176   30.6593    1.5072 C   0  0  0  0  0  0  0  0  0  0  0  0
  -83.4079   29.4255    1.9059 C   0  0  0  0  0  0  0  0  0  0  0  0
  -84.6008   28.9235    1.4227 C   0  0  0  0  0  0  0  0  0  0  0  0
  -85.1012   27.7014    1.8076 C   0  0  0  0  0  0  0  0  0  0  0  0
  -84.4620   27.0031    2.6287 O   0  0  0  0  0  0  0  0  0  0  0  0
  -86.2642   27.2503    1.3140 N   0  0  0  0  0  0  0  0  0  0  0  0
  -86.6533   26.3053    1.6106 H   0  0  0  0  0  0  0  0  0  0  0  0
  -92.1380   24.8225   -1.8419 C   0  0  0  0  0  0  0  0  0  0  0  0
  -93.1612   24.2743   -2.6050 C   0  0  0  0  0  0  0  0  0  0  0  0
  -93.5937   24.8553   -3.7781 C   0  0  0  0  0  0  0  0  0  0  0  0
  -92.9668   26.0175   -4.1753 C   0  0  0  0  0  0  0  0  0  0  0  0
  -91.9441   26.5680   -3.4157 C   0  0  0  0  0  0  0  0  0  0  0  0
  -91.5163   25.9815   -2.2432 C   0  0  0  0  0  0  0  0  0  0  0  0
  -92.6677   24.0941    0.3788 C   0  0  0  0  0  0  0  0  0  0  0  0
  -91.7301   24.2137   -0.6700 O   0  0  0  0  0  0  0  0  0  0  0  0
 25 26  1  0  0  0
 26 19  1  0  0  0
 19 20  2  0  0  0
 20 21  1  0  0  0
 21 22  2  0  0  0
 22 23  1  0  0  0
 23 24  2  0  0  0
 24  1  1  0  0  0
  1  2  1  0  0  0
  2  3  1  0  0  0
  3  4  1  0  0  0
  4  5  1  0  0  0
  5  6  1  0  0  0
  4  7  1  0  0  0
  7  8  2  0  0  0
  8  9  1  0  0  0
  9 10  2  0  0  0
 10 11  1  0  0  0
 11 12  2  0  0  0
 12 13  1  0  0  0
 13 14  2  0  0  0
 14 15  1  0  0  0
 15 16  2  0  0  0
 15 17  1  0  0  0
 24 19  1  0  0  0
  6  1  1  0  0  0
 17  7  1  0  0  0
 14  9  1  0  0  0
 17 18  1  0  0  0
M  END
> <minimizedAffinity>
-7.89102

> <CNNscore>
0.2786018252

> <CNNaffinity>
5.8075819016

> <CNN_VS>
1.6180028915

> <CNNaffinity_variance>
0.3160598278

$$$$
[H]c1c([H])c([H])c(N2C([H])([H])C([H])([H])N(c3nc4c([H])c([H])c([H])c([H])c4c(=O)n3[H])C([H])([H])C2([H])[H])c(OC([H])([H])[H])c1[H]


 26 29  0  0  0  0  0  0  0  0999 V2000
  -90.3148   26.0303    0.3427 N   0  0  0  0  0  0  0  0  0  0  0  0
  -90.2326   26.7655    1.5639 C   0  0  0  0  0  0  0  0  0  0  0  0
  -89.1154   27.8075    1.4703 C   0  0  0  0  0  0  0  0  0  0  0  0
  -87.8707   27.1761    1.0791 N   0  0  0  0  0  0  0  0  0  0  0  0
  -87.9351   25.8614    0.4735 C   0  0  0  0  0  0  0  0  0  0  0  0
  -89.1059   25.8196   -0.4616 C   0  0  0  0  0  0  0  0  0  0  0  0
  -86.6054   27.7962    1.2681 C   0  0  0  0  0  0  0  0  0  0  0  0
  -86.3241   28.9947    0.7257 N   0  0  0  0  0  0  0  0  0  0  0  0
  -85.1436   29.6207    0.8760 C   0  0  0  0  0  0  0  0  0  0  0  0
  -84.8691   30.8420    0.3180 C   0  0  0  0  0  0  0  0  0  0  0  0
  -83.6361   31.4531    0.4982 C   0  0  0  0  0  0  0  0  0  0  0  0
  -82.6515   30.8603    1.2379 C   0  0  0  0  0  0  0  0  0  0  0  0
  -82.9253   29.6249    1.8041 C   0  0  0  0  0  0  0  0  0  0  0  0
  -84.1459   28.9999    1.6367 C   0  0  0  0  0  0  0  0  0  0  0  0
  -84.4337   27.7743    2.1912 C   0  0  0  0  0  0  0  0  0  0  0  0
  -83.5652   27.1881    2.8787 O   0  0  0  0  0  0  0  0  0  0  0  0
  -85.6322   27.2014    2.0041 N   0  0  0  0  0  0  0  0  0  0  0  0
  -85.8571   26.2536    2.4323 H   0  0  0  0  0  0  0  0  0  0  0  0
  -92.2495   26.2181   -1.0593 C   0  0  0  0  0  0  0  0  0  0  0  0
  -93.4246   25.7081   -1.5969 C   0  0  0  0  0  0  0  0  0  0  0  0
  -93.8882   24.4480   -1.2840 C   0  0  0  0  0  0  0  0  0  0  0  0
  -93.1348   23.6984   -0.4055 C   0  0  0  0  0  0  0  0  0  0  0  0
  -91.9604   24.2044    0.1337 C   0  0  0  0  0  0  0  0  0  0  0  0
  -91.5023   25.4660   -0.1836 C   0  0  0  0  0  0  0  0  0  0  0  0
  -91.4568   27.7317   -2.7395 C   0  0  0  0  0  0  0  0  0  0  0  0
  -91.8135   27.4858   -1.3957 O   0  0  0  0  0  0  0  0  0  0  0  0
 25 26  1  0  0  0
 26 19  1  0  0  0
 19 20  2  0  0  0
 20 21  1  0  0  0
 21 22  2  0  0  0
 22 23  1  0  0  0
 23 24  2  0  0  0
 24  1  1  0  0  0
  1  2  1  0  0  0
  2  3  1  0  0  0
  3  4  1  0  0  0
  4  5  1  0  0  0
  5  6  1  0  0  0
  4  7  1  0  0  0
  7  8  2  0  0  0
  8  9  1  0  0  0
  9 10  2  0  0  0
 10 11  1  0  0  0
 11 12  2  0  0  0
 12 13  1  0  0  0
 13 14  2  0  0  0
 14 15  1  0  0  0
 15 16  2  0  0  0
 15 17  1  0  0  0
 24 19  1  0  0  0
  6  1  1  0  0  0
 17  7  1  0  0  0
 14  9  1  0  0  0
 17 18  1  0  0  0
M  END
> <minimizedAffinity>
-8.28016

> <CNNscore>
0.2175745964

> <CNNaffinity>
5.7776384354

> <CNN_VS>
1.2570673227

> <CNNaffinity_variance>
0.3259291053

$$$$
[H]c1c([H])c([H])c(N2C([H])([H])C([H])([H])N(c3nc4c([H])c([H])c([H])c([H])c4c(=O)n3[H])C([H])([H])C2([H])[H])c(OC([H])([H])[H])c1[H]


 26 29  0  0  0  0  0  0  0  0999 V2000
  -90.0711   25.4157    0.3501 N   0  0  0  0  0  0  0  0  0  0  0  0
  -89.1622   25.5125   -0.7468 C   0  0  0  0  0  0  0  0  0  0  0  0
  -87.7437   25.7596   -0.2275 C   0  0  0  0  0  0  0  0  0  0  0  0
  -87.7247   26.9091    0.6551 N   0  0  0  0  0  0  0  0  0  0  0  0
  -88.9838   27.3609    1.2119 C   0  0  0  0  0  0  0  0  0  0  0  0
  -89.8024   26.1618    1.5846 C   0  0  0  0  0  0  0  0  0  0  0  0
  -86.5270   27.5992    0.9875 C   0  0  0  0  0  0  0  0  0  0  0  0
  -86.2728   28.8314    0.5112 N   0  0  0  0  0  0  0  0  0  0  0  0
  -85.1559   29.5236    0.7968 C   0  0  0  0  0  0  0  0  0  0  0  0
  -84.9083   30.7786    0.3051 C   0  0  0  0  0  0  0  0  0  0  0  0
  -83.7413   31.4581    0.6252 C   0  0  0  0  0  0  0  0  0  0  0  0
  -82.7971   30.9013    1.4416 C   0  0  0  0  0  0  0  0  0  0  0  0
  -83.0438   29.6320    1.9412 C   0  0  0  0  0  0  0  0  0  0  0  0
  -84.1988   28.9389    1.6346 C   0  0  0  0  0  0  0  0  0  0  0  0
  -84.4590   27.6789    2.1214 C   0  0  0  0  0  0  0  0  0  0  0  0
  -83.6254   27.1235    2.8745 O   0  0  0  0  0  0  0  0  0  0  0  0
  -85.5936   27.0399    1.7990 N   0  0  0  0  0  0  0  0  0  0  0  0
  -85.7970   26.0653    2.1746 H   0  0  0  0  0  0  0  0  0  0  0  0
  -92.3892   25.1664   -0.2054 C   0  0  0  0  0  0  0  0  0  0  0  0
  -93.5725   24.4388   -0.2180 C   0  0  0  0  0  0  0  0  0  0  0  0
  -93.6611   23.1728    0.3207 C   0  0  0  0  0  0  0  0  0  0  0  0
  -92.5177   22.6442    0.8816 C   0  0  0  0  0  0  0  0  0  0  0  0
  -91.3338   23.3681    0.8963 C   0  0  0  0  0  0  0  0  0  0  0  0
  -91.2522   24.6342    0.3557 C   0  0  0  0  0  0  0  0  0  0  0  0
  -92.7730   26.5988   -2.0878 C   0  0  0  0  0  0  0  0  0  0  0  0
  -92.3358   26.4333   -0.7555 O   0  0  0  0  0  0  0  0  0  0  0  0
 25 26  1  0  0  0
 26 19  1  0  0  0
 19 20  2  0  0  0
 20 21  1  0  0  0
 21 22  2  0  0  0
 22 23  1  0  0  0
 23 24  2  0  0  0
 24  1  1  0  0  0
  1  2  1  0  0  0
  2  3  1  0  0  0
  3  4  1  0  0  0
  4  5  1  0  0  0
  5  6  1  0  0  0
  4  7  1  0  0  0
  7  8  2  0  0  0
  8  9  1  0  0  0
  9 10  2  0  0  0
 10 11  1  0  0  0
 11 12  2  0  0  0
 12 13  1  0  0  0
 13 14  2  0  0  0
 14 15  1  0  0  0
 15 16  2  0  0  0
 15 17  1  0  0  0
 24 19  1  0  0  0
  6  1  1  0  0  0
 17  7  1  0  0  0
 14  9  1  0  0  0
 17 18  1  0  0  0
M  END
> <minimizedAffinity>
-8.13522

> <CNNscore>
0.2071755975

> <CNNaffinity>
5.7995209694

> <CNN_VS>
1.2015192509

> <CNNaffinity_variance>
0.3450098932

$$$$
[H]c1c([H])c([H])c(N2C([H])([H])C([H])([H])N(c3nc4c([H])c([H])c([H])c([H])c4c(=O)n3[H])C([H])([H])C2([H])[H])c(OC([H])([H])[H])c1[H]


 26 29  0  0  0  0  0  0  0  0999 V2000
  -88.8124   32.6374   -3.0581 N   0  0  0  0  0  0  0  0  0  0  0  0
  -88.6829   33.2899   -1.7947 C   0  0  0  0  0  0  0  0  0  0  0  0
  -87.2902   33.0309   -1.2151 C   0  0  0  0  0  0  0  0  0  0  0  0
  -87.0204   31.6074   -1.1722 N   0  0  0  0  0  0  0  0  0  0  0  0
  -87.8358   30.7348   -1.9926 C   0  0  0  0  0  0  0  0  0  0  0  0
  -88.0691   31.3990   -3.3160 C   0  0  0  0  0  0  0  0  0  0  0  0
  -85.9958   31.0467   -0.3616 C   0  0  0  0  0  0  0  0  0  0  0  0
  -86.1449   29.8454    0.2253 N   0  0  0  0  0  0  0  0  0  0  0  0
  -85.2058   29.2740    0.9996 C   0  0  0  0  0  0  0  0  0  0  0  0
  -85.3698   28.0493    1.5923 C   0  0  0  0  0  0  0  0  0  0  0  0
  -84.3740   27.4958    2.3849 C   0  0  0  0  0  0  0  0  0  0  0  0
  -83.1945   28.1510    2.6032 C   0  0  0  0  0  0  0  0  0  0  0  0
  -83.0247   29.3901    2.0053 C   0  0  0  0  0  0  0  0  0  0  0  0
  -84.0034   29.9583    1.2131 C   0  0  0  0  0  0  0  0  0  0  0  0
  -83.8512   31.1867    0.6129 C   0  0  0  0  0  0  0  0  0  0  0  0
  -82.7882   31.8288    0.7812 O   0  0  0  0  0  0  0  0  0  0  0  0
  -84.8268   31.7032   -0.1492 N   0  0  0  0  0  0  0  0  0  0  0  0
  -84.7111   32.6531   -0.6147 H   0  0  0  0  0  0  0  0  0  0  0  0
  -89.0679   33.9580   -5.0418 C   0  0  0  0  0  0  0  0  0  0  0  0
  -89.8257   34.4374   -6.1028 C   0  0  0  0  0  0  0  0  0  0  0  0
  -91.1441   34.0775   -6.2843 C   0  0  0  0  0  0  0  0  0  0  0  0
  -91.6947   33.2119   -5.3630 C   0  0  0  0  0  0  0  0  0  0  0  0
  -90.9408   32.7309   -4.3017 C   0  0  0  0  0  0  0  0  0  0  0  0
  -89.6224   33.0951   -4.1259 C   0  0  0  0  0  0  0  0  0  0  0  0
  -87.4663   35.7135   -4.7323 C   0  0  0  0  0  0  0  0  0  0  0  0
  -87.7479   34.3390   -4.8906 O   0  0  0  0  0  0  0  0  0  0  0  0
 25 26  1  0  0  0
 26 19  1  0  0  0
 19 20  2  0  0  0
 20 21  1  0  0  0
 21 22  2  0  0  0
 22 23  1  0  0  0
 23 24  2  0  0  0
 24  1  1  0  0  0
  1  2  1  0  0  0
  2  3  1  0  0  0
  3  4  1  0  0  0
  4  5  1  0  0  0
  5  6  1  0  0  0
  4  7  1  0  0  0
  7  8  2  0  0  0
  8  9  1  0  0  0
  9 10  2  0  0  0
 10 11  1  0  0  0
 11 12  2  0  0  0
 12 13  1  0  0  0
 13 14  2  0  0  0
 14 15  1  0  0  0
 15 16  2  0  0  0
 15 17  1  0  0  0
 24 19  1  0  0  0
  6  1  1  0  0  0
 17  7  1  0  0  0
 14  9  1  0  0  0
 17 18  1  0  0  0
M  END
> <minimizedAffinity>
-8.56125

> <CNNscore>
0.1925527453

> <CNNaffinity>
5.6427297592

> <CNN_VS>
1.0865230560

> <CNNaffinity_variance>
0.2959944606

$$$$
[H]c1c([H])c([H])c(N2C([H])([H])C([H])([H])N(c3nc4c([H])c([H])c([H])c([H])c4c(=O)n3[H])C([H])([H])C2([H])[H])c(OC([H])([H])[H])c1[H]


 26 29  0  0  0  0  0  0  0  0999 V2000
  -90.0417   25.5748    0.6000 N   0  0  0  0  0  0  0  0  0  0  0  0
  -89.7377   25.8651    1.9645 C   0  0  0  0  0  0  0  0  0  0  0  0
  -88.7799   27.0565    2.0425 C   0  0  0  0  0  0  0  0  0  0  0  0
  -87.6121   26.8173    1.2178 N   0  0  0  0  0  0  0  0  0  0  0  0
  -87.6957   25.7882    0.2012 C   0  0  0  0  0  0  0  0  0  0  0  0
  -89.0480   25.8566   -0.4419 C   0  0  0  0  0  0  0  0  0  0  0  0
  -86.4031   27.5492    1.3722 C   0  0  0  0  0  0  0  0  0  0  0  0
  -86.2334   28.7522    0.7944 N   0  0  0  0  0  0  0  0  0  0  0  0
  -85.1099   29.4817    0.9110 C   0  0  0  0  0  0  0  0  0  0  0  0
  -84.9491   30.7063    0.3172 C   0  0  0  0  0  0  0  0  0  0  0  0
  -83.7717   31.4263    0.4634 C   0  0  0  0  0  0  0  0  0  0  0  0
  -82.7305   30.9412    1.2042 C   0  0  0  0  0  0  0  0  0  0  0  0
  -82.8893   29.7029    1.8066 C   0  0  0  0  0  0  0  0  0  0  0  0
  -84.0530   28.9704    1.6733 C   0  0  0  0  0  0  0  0  0  0  0  0
  -84.2267   27.7404    2.2641 C   0  0  0  0  0  0  0  0  0  0  0  0
  -83.3024   27.2505    2.9541 O   0  0  0  0  0  0  0  0  0  0  0  0
  -85.3732   27.0611    2.1094 N   0  0  0  0  0  0  0  0  0  0  0  0
  -85.5099   26.1096    2.5657 H   0  0  0  0  0  0  0  0  0  0  0  0
  -91.4282   23.6570    0.2198 C   0  0  0  0  0  0  0  0  0  0  0  0
  -92.6063   23.0676   -0.2211 C   0  0  0  0  0  0  0  0  0  0  0  0
  -93.6450   23.8069   -0.7457 C   0  0  0  0  0  0  0  0  0  0  0  0
  -93.4730   25.1730   -0.8197 C   0  0  0  0  0  0  0  0  0  0  0  0
  -92.2974   25.7655   -0.3804 C   0  0  0  0  0  0  0  0  0  0  0  0
  -91.2622   25.0200    0.1434 C   0  0  0  0  0  0  0  0  0  0  0  0
  -89.6637   22.0776   -0.1464 C   0  0  0  0  0  0  0  0  0  0  0  0
  -90.4071   22.8852    0.7414 O   0  0  0  0  0  0  0  0  0  0  0  0
 25 26  1  0  0  0
 26 19  1  0  0  0
 19 20  2  0  0  0
 20 21  1  0  0  0
 21 22  2  0  0  0
 22 23  1  0  0  0
 23 24  2  0  0  0
 24  1  1  0  0  0
  1  2  1  0  0  0
  2  3  1  0  0  0
  3  4  1  0  0  0
  4  5  1  0  0  0
  5  6  1  0  0  0
  4  7  1  0  0  0
  7  8  2  0  0  0
  8  9  1  0  0  0
  9 10  2  0  0  0
 10 11  1  0  0  0
 11 12  2  0  0  0
 12 13  1  0  0  0
 13 14  2  0  0  0
 14 15  1  0  0  0
 15 16  2  0  0  0
 15 17  1  0  0  0
 24 19  1  0  0  0
  6  1  1  0  0  0
 17  7  1  0  0  0
 14  9  1  0  0  0
 17 18  1  0  0  0
M  END
> <minimizedAffinity>
-8.62621

> <CNNscore>
0.1913933903

> <CNNaffinity>
5.7171106339

> <CNN_VS>
1.0942171812

> <CNNaffinity_variance>
0.4324527681

$$$$
[H]c1c([H])c([H])c(N2C([H])([H])C([H])([H])N(c3nc4c([H])c([H])c([H])c([H])c4c(=O)n3[H])C([H])([H])C2([H])[H])c(OC([H])([H])[H])c1[H]


 26 29  0  0  0  0  0  0  0  0999 V2000
  -90.3693   26.5511   -0.6121 N   0  0  0  0  0  0  0  0  0  0  0  0
  -89.2855   26.3755   -1.5249 C   0  0  0  0  0  0  0  0  0  0  0  0
  -87.9542   26.4536   -0.7738 C   0  0  0  0  0  0  0  0  0  0  0  0
  -87.8822   27.6799   -0.0045 N   0  0  0  0  0  0  0  0  0  0  0  0
  -89.1177   28.3863    0.2677 C   0  0  0  0  0  0  0  0  0  0  0  0
  -90.1859   27.3829    0.5825 C   0  0  0  0  0  0  0  0  0  0  0  0
  -86.6553   28.2057    0.4849 C   0  0  0  0  0  0  0  0  0  0  0  0
  -86.1290   29.3382   -0.0153 N   0  0  0  0  0  0  0  0  0  0  0  0
  -84.9730   29.8743    0.4141 C   0  0  0  0  0  0  0  0  0  0  0  0
  -84.4469   31.0289   -0.1038 C   0  0  0  0  0  0  0  0  0  0  0  0
  -83.2497   31.5479    0.3688 C   0  0  0  0  0  0  0  0  0  0  0  0
  -82.5520   30.9273    1.3670 C   0  0  0  0  0  0  0  0  0  0  0  0
  -83.0809   29.7591    1.8936 C   0  0  0  0  0  0  0  0  0  0  0  0
  -84.2709   29.2261    1.4371 C   0  0  0  0  0  0  0  0  0  0  0  0
  -84.8092   28.0681    1.9483 C   0  0  0  0  0  0  0  0  0  0  0  0
  -84.2090   27.4601    2.8652 O   0  0  0  0  0  0  0  0  0  0  0  0
  -85.9678   27.5838    1.4765 N   0  0  0  0  0  0  0  0  0  0  0  0
  -86.3863   26.6883    1.8706 H   0  0  0  0  0  0  0  0  0  0  0  0
  -91.9364   24.8249   -0.0562 C   0  0  0  0  0  0  0  0  0  0  0  0
  -93.1806   24.2185   -0.1737 C   0  0  0  0  0  0  0  0  0  0  0  0
  -94.1716   24.7284   -0.9852 C   0  0  0  0  0  0  0  0  0  0  0  0
  -93.8822   25.8789   -1.6880 C   0  0  0  0  0  0  0  0  0  0  0  0
  -92.6403   26.4876   -1.5734 C   0  0  0  0  0  0  0  0  0  0  0  0
  -91.6533   25.9721   -0.7597 C   0  0  0  0  0  0  0  0  0  0  0  0
  -91.3132   24.0012    2.1061 C   0  0  0  0  0  0  0  0  0  0  0  0
  -90.9659   24.2868    0.7677 O   0  0  0  0  0  0  0  0  0  0  0  0
 25 26  1  0  0  0
 26 19  1  0  0  0
 19 20  2  0  0  0
 20 21  1  0  0  0
 21 22  2  0  0  0
 22 23  1  0  0  0
 23 24  2  0  0  0
 24  1  1  0  0  0
  1  2  1  0  0  0
  2  3  1  0  0  0
  3  4  1  0  0  0
  4  5  1  0  0  0
  5  6  1  0  0  0
  4  7  1  0  0  0
  7  8  2  0  0  0
  8  9  1  0  0  0
  9 10  2  0  0  0
 10 11  1  0  0  0
 11 12  2  0  0  0
 12 13  1  0  0  0
 13 14  2  0  0  0
 14 15  1  0  0  0
 15 16  2  0  0  0
 15 17  1  0  0  0
 24 19  1  0  0  0
  6  1  1  0  0  0
 17  7  1  0  0  0
 14  9  1  0  0  0
 17 18  1  0  0  0
M  END
> <minimizedAffinity>
-7.82221

> <CNNscore>
0.1898977906

> <CNNaffinity>
5.7486305237

> <CNN_VS>
1.0916522741

> <CNNaffinity_variance>
0.2806633115

$$$$
[H]c1c([H])c([H])c(N2C([H])([H])C([H])([H])N(c3nc4c([H])c([H])c([H])c([H])c4c(=O)n3[H])C([H])([H])C2([H])[H])c(OC([H])([H])[H])c1[H]


 26 29  0  0  0  0  0  0  0  0999 V2000
  -86.4066   31.5974   -0.2327 N   0  0  0  0  0  0  0  0  0  0  0  0
  -87.8008   31.6057   -0.5402 C   0  0  0  0  0  0  0  0  0  0  0  0
  -88.0091   32.0045   -2.0032 C   0  0  0  0  0  0  0  0  0  0  0  0
  -87.3378   33.2583   -2.2828 N   0  0  0  0  0  0  0  0  0  0  0  0
  -86.3109   33.7011   -1.3614 C   0  0  0  0  0  0  0  0  0  0  0  0
  -85.5016   32.5130   -0.9365 C   0  0  0  0  0  0  0  0  0  0  0  0
  -87.6502   34.0577   -3.4162 C   0  0  0  0  0  0  0  0  0  0  0  0
  -88.7309   33.8043   -4.1763 N   0  0  0  0  0  0  0  0  0  0  0  0
  -89.0677   34.5308   -5.2564 C   0  0  0  0  0  0  0  0  0  0  0  0
  -90.1716   34.2625   -6.0230 C   0  0  0  0  0  0  0  0  0  0  0  0
  -90.4826   35.0384   -7.1308 C   0  0  0  0  0  0  0  0  0  0  0  0
  -89.7004   36.0976   -7.4977 C   0  0  0  0  0  0  0  0  0  0  0  0
  -88.5829   36.3724   -6.7248 C   0  0  0  0  0  0  0  0  0  0  0  0
  -88.2559   35.6123   -5.6185 C   0  0  0  0  0  0  0  0  0  0  0  0
  -87.1509   35.8712   -4.8412 C   0  0  0  0  0  0  0  0  0  0  0  0
  -86.4006   36.8312   -5.1345 O   0  0  0  0  0  0  0  0  0  0  0  0
  -86.8687   35.1081   -3.7747 N   0  0  0  0  0  0  0  0  0  0  0  0
  -86.0145   35.3067   -3.1718 H   0  0  0  0  0  0  0  0  0  0  0  0
  -85.7304   29.4048    0.4599 C   0  0  0  0  0  0  0  0  0  0  0  0
  -85.1438   28.5370    1.3724 C   0  0  0  0  0  0  0  0  0  0  0  0
  -84.6081   28.9775    2.5639 C   0  0  0  0  0  0  0  0  0  0  0  0
  -84.6749   30.3299    2.8242 C   0  0  0  0  0  0  0  0  0  0  0  0
  -85.2601   31.2000    1.9152 C   0  0  0  0  0  0  0  0  0  0  0  0
  -85.7943   30.7526    0.7250 C   0  0  0  0  0  0  0  0  0  0  0  0
  -87.2356   27.9133   -0.6591 C   0  0  0  0  0  0  0  0  0  0  0  0
  -86.2571   28.9289   -0.7260 O   0  0  0  0  0  0  0  0  0  0  0  0
 25 26  1  0  0  0
 26 19  1  0  0  0
 19 20  2  0  0  0
 20 21  1  0  0  0
 21 22  2  0  0  0
 22 23  1  0  0  0
 23 24  2  0  0  0
 24  1  1  0  0  0
  1  2  1  0  0  0
  2  3  1  0  0  0
  3  4  1  0  0  0
  4  5  1  0  0  0
  5  6  1  0  0  0
  4  7  1  0  0  0
  7  8  2  0  0  0
  8  9  1  0  0  0
  9 10  2  0  0  0
 10 11  1  0  0  0
 11 12  2  0  0  0
 12 13  1  0  0  0
 13 14  2  0  0  0
 14 15  1  0  0  0
 15 16  2  0  0  0
 15 17  1  0  0  0
 24 19  1  0  0  0
  6  1  1  0  0  0
 17  7  1  0  0  0
 14  9  1  0  0  0
 17 18  1  0  0  0
M  END
> <minimizedAffinity>
-8.13990

> <CNNscore>
0.1798937917

> <CNNaffinity>
5.5278501511

> <CNN_VS>
0.9944259524

> <CNNaffinity_variance>
0.3386242986

$$$$
[H]c1c([H])c([H])c(N2C([H])([H])C([H])([H])N(c3nc4c([H])c([H])c([H])c([H])c4c(=O)n3[H])C([H])([H])C2([H])[H])c(OC([H])([H])[H])c1[H]


 26 29  0  0  0  0  0  0  0  0999 V2000
  -90.4879   27.3331   -1.9103 N   0  0  0  0  0  0  0  0  0  0  0  0
  -90.8094   28.2596   -0.8726 C   0  0  0  0  0  0  0  0  0  0  0  0
  -89.8099   29.4187   -0.8813 C   0  0  0  0  0  0  0  0  0  0  0  0
  -88.4530   28.9129   -0.8182 N   0  0  0  0  0  0  0  0  0  0  0  0
  -88.2287   27.5218   -1.1559 C   0  0  0  0  0  0  0  0  0  0  0  0
  -89.0916   27.1667   -2.3291 C   0  0  0  0  0  0  0  0  0  0  0  0
  -87.3497   29.7260   -0.4403 C   0  0  0  0  0  0  0  0  0  0  0  0
  -86.2855   29.2097    0.2005 N   0  0  0  0  0  0  0  0  0  0  0  0
  -85.2195   29.9371    0.5779 C   0  0  0  0  0  0  0  0  0  0  0  0
  -84.1410   29.3992    1.2305 C   0  0  0  0  0  0  0  0  0  0  0  0
  -83.0606   30.1869    1.6026 C   0  0  0  0  0  0  0  0  0  0  0  0
  -83.0324   31.5264    1.3321 C   0  0  0  0  0  0  0  0  0  0  0  0
  -84.1213   32.0742    0.6720 C   0  0  0  0  0  0  0  0  0  0  0  0
  -85.2064   31.3076    0.2932 C   0  0  0  0  0  0  0  0  0  0  0  0
  -86.2947   31.8353   -0.3620 C   0  0  0  0  0  0  0  0  0  0  0  0
  -86.3186   33.0585   -0.6338 O   0  0  0  0  0  0  0  0  0  0  0  0
  -87.3286   31.0557   -0.7123 N   0  0  0  0  0  0  0  0  0  0  0  0
  -88.1714   31.4618   -1.2194 H   0  0  0  0  0  0  0  0  0  0  0  0
  -92.0093   27.0382   -3.7386 C   0  0  0  0  0  0  0  0  0  0  0  0
  -92.9427   26.2898   -4.4444 C   0  0  0  0  0  0  0  0  0  0  0  0
  -93.3250   25.0271   -4.0440 C   0  0  0  0  0  0  0  0  0  0  0  0
  -92.7406   24.5235   -2.9011 C   0  0  0  0  0  0  0  0  0  0  0  0
  -91.8078   25.2683   -2.1931 C   0  0  0  0  0  0  0  0  0  0  0  0
  -91.4300   26.5310   -2.5993 C   0  0  0  0  0  0  0  0  0  0  0  0
  -92.6181   29.3257   -4.1119 C   0  0  0  0  0  0  0  0  0  0  0  0
  -91.6484   28.3011   -4.1693 O   0  0  0  0  0  0  0  0  0  0  0  0
 25 26  1  0  0  0
 26 19  1  0  0  0
 19 20  2  0  0  0
 20 21  1  0  0  0
 21 22  2  0  0  0
 22 23  1  0  0  0
 23 24  2  0  0  0
 24  1  1  0  0  0
  1  2  1  0  0  0
  2  3  1  0  0  0
  3  4  1  0  0  0
  4  5  1  0  0  0
  5  6  1  0  0  0
  4  7  1  0  0  0
  7  8  2  0  0  0
  8  9  1  0  0  0
  9 10  2  0  0  0
 10 11  1  0  0  0
 11 12  2  0  0  0
 12 13  1  0  0  0
 13 14  2  0  0  0
 14 15  1  0  0  0
 15 16  2  0  0  0
 15 17  1  0  0  0
 24 19  1  0  0  0
  6  1  1  0  0  0
 17  7  1  0  0  0
 14  9  1  0  0  0
 17 18  1  0  0  0
M  END
> <minimizedAffinity>
-7.83902

> <CNNscore>
0.1298979819

> <CNNaffinity>
5.3119316101

> <CNN_VS>
0.6900091767

> <CNNaffinity_variance>
0.2175975293

$$$$
[H]OC(=O)[C@@]([H])(N([H])C(=O)[C@@]1([H])N(C(=O)[C@@]([H])(N([H])C(=O)[C@@]([H])(N([H])[H])C([H])([H])c2c([H])c([H])c(O[H])c([H])c2[H])C([H])([H])[H])C([H])([H])C([H])([H])C1([H])[H])C([H])([H])c1c([H])n([H])c2c([H])c([H])c([H])c([H])c12


 46 49  0  0  0  0  0  0  0  0999 V2000
  -88.3253   31.1734   -1.7063 C   0  0  0  0  0  0  0  0  0  0  0  0
  -87.8111   30.2517   -1.0064 O   0  0  0  0  0  0  0  0  0  0  0  0
  -89.6594   31.2071   -2.0735 N   0  0  0  0  0  0  0  0  0  0  0  0
  -90.3300   32.2319   -2.8800 C   0  0  0  0  0  0  0  0  0  0  0  0
  -91.2075   31.4196   -3.8389 C   0  0  0  0  0  0  0  0  0  0  0  0
  -91.1678   29.9963   -3.2423 C   0  0  0  0  0  0  0  0  0  0  0  0
  -90.7890   30.2805   -1.8337 C   0  0  0  0  0  0  0  0  0  0  0  0
  -90.4839   29.1954   -0.9478 C   0  0  0  0  0  0  0  0  0  0  0  0
  -90.7476   29.3715    0.2942 O   0  0  0  0  0  0  0  0  0  0  0  0
  -89.9244   27.9491   -1.2751 N   0  0  0  0  0  0  0  0  0  0  0  0
  -89.6913   27.7767   -2.2901 H   0  0  0  0  0  0  0  0  0  0  0  0
  -89.6723   26.9558   -0.2996 C   0  0  0  0  0  0  0  0  0  0  0  0
  -88.5857   26.0026   -0.7455 C   0  0  0  0  0  0  0  0  0  0  0  0
  -88.7601   25.1239   -1.7935 O   0  0  0  0  0  0  0  0  0  0  0  0
  -87.5055   26.0316   -0.1283 O   0  0  0  0  0  0  0  0  0  0  0  0
  -89.0174   24.1390   -1.6366 H   0  0  0  0  0  0  0  0  0  0  0  0
  -90.8538   26.2038    0.2254 C   0  0  0  0  0  0  0  0  0  0  0  0
  -90.5998   25.6180    1.5583 C   0  0  0  0  0  0  0  0  0  0  0  0
  -90.4518   24.2609    1.8157 C   0  0  0  0  0  0  0  0  0  0  0  0
  -90.1903   24.0935    3.1170 N   0  0  0  0  0  0  0  0  0  0  0  0
  -90.1591   25.2916    3.7382 C   0  0  0  0  0  0  0  0  0  0  0  0
  -89.9413   25.6362    5.0525 C   0  0  0  0  0  0  0  0  0  0  0  0
  -89.9708   26.9470    5.4556 C   0  0  0  0  0  0  0  0  0  0  0  0
  -90.2298   27.8872    4.4737 C   0  0  0  0  0  0  0  0  0  0  0  0
  -90.4512   27.5716    3.1527 C   0  0  0  0  0  0  0  0  0  0  0  0
  -90.4147   26.2498    2.7723 C   0  0  0  0  0  0  0  0  0  0  0  0
  -90.0294   23.1896    3.6246 H   0  0  0  0  0  0  0  0  0  0  0  0
  -87.3003   32.2413   -3.6377 C   0  0  0  0  0  0  0  0  0  0  0  0
  -87.3892   32.2525   -2.1246 C   0  0  0  0  0  0  0  0  0  0  0  0
  -86.0684   31.9227   -1.5598 N   0  0  0  0  0  0  0  0  0  0  0  0
  -85.4927   32.8123   -0.6218 C   0  0  0  0  0  0  0  0  0  0  0  0
  -86.0929   33.8480   -0.2853 O   0  0  0  0  0  0  0  0  0  0  0  0
  -85.5833   31.0528   -1.8560 H   0  0  0  0  0  0  0  0  0  0  0  0
  -84.1457   32.4372   -0.0692 C   0  0  0  0  0  0  0  0  0  0  0  0
  -83.1249   33.3826   -0.3929 N   0  0  0  0  0  0  0  0  0  0  0  0
  -82.8953   33.4854   -1.3816 H   0  0  0  0  0  0  0  0  0  0  0  0
  -83.2090   34.2713    0.1430 H   0  0  0  0  0  0  0  0  0  0  0  0
  -84.2902   32.2957    1.4111 C   0  0  0  0  0  0  0  0  0  0  0  0
  -84.0449   30.9122    1.8427 C   0  0  0  0  0  0  0  0  0  0  0  0
  -82.8573   30.3066    1.5441 C   0  0  0  0  0  0  0  0  0  0  0  0
  -82.6354   29.0066    1.9481 C   0  0  0  0  0  0  0  0  0  0  0  0
  -83.6014   28.3197    2.6474 C   0  0  0  0  0  0  0  0  0  0  0  0
  -83.3080   27.0081    3.0247 O   0  0  0  0  0  0  0  0  0  0  0  0
  -84.7967   28.9307    2.9469 C   0  0  0  0  0  0  0  0  0  0  0  0
  -85.0119   30.2324    2.5394 C   0  0  0  0  0  0  0  0  0  0  0  0
  -84.0220   26.4995    3.5414 H   0  0  0  0  0  0  0  0  0  0  0  0
 28 29  1  0  0  0
 29 30  1  0  0  0
 30 31  1  0  0  0
 31 32  2  0  0  0
 31 34  1  0  0  0
 34 35  1  0  0  0
 34 38  1  0  0  0
 38 39  1  0  0  0
 39 40  2  0  0  0
 40 41  1  0  0  0
 41 42  2  0  0  0
 42 43  1  0  0  0
 42 44  1  0  0  0
 44 45  2  0  0  0
 29  1  1  0  0  0
  1  2  2  0  0  0
  1  3  1  0  0  0
  3  4  1  0  0  0
  4  5  1  0  0  0
  5  6  1  0  0  0
  6  7  1  0  0  0
  7  8  1  0  0  0
  8  9  2  0  0  0
  8 10  1  0  0  0
 10 12  1  0  0  0
 12 17  1  0  0  0
 17 18  1  0  0  0
 18 19  2  0  0  0
 19 20  1  0  0  0
 20 21  1  0  0  0
 21 22  2  0  0  0
 22 23  1  0  0  0
 23 24  2  0  0  0
 24 25  1  0  0  0
 25 26  2  0  0  0
 12 13  1  0  0  0
 13 14  1  0  0  0
 13 15  2  0  0  0
 45 39  1  0  0  0
  7  3  1  0  0  0
 26 18  1  0  0  0
 26 21  1  0  0  0
 30 33  1  0  0  0
 35 36  1  0  0  0
 35 37  1  0  0  0
 43 46  1  0  0  0
 10 11  1  0  0  0
 20 27  1  0  0  0
 14 16  1  0  0  0
M  END
> <minimizedAffinity>
-10.39319

> <CNNscore>
0.2212913483

> <CNNaffinity>
6.8881516457

> <CNN_VS>
1.5242884159

> <CNNaffinity_variance>
0.1896866113

$$$$
[H]OC(=O)[C@@]([H])(N([H])C(=O)[C@@]1([H])N(C(=O)[C@@]([H])(N([H])C(=O)[C@@]([H])(N([H])[H])C([H])([H])c2c([H])c([H])c(O[H])c([H])c2[H])C([H])([H])[H])C([H])([H])C([H])([H])C1([H])[H])C([H])([H])c1c([H])n([H])c2c([H])c([H])c([H])c([H])c12


 46 49  0  0  0  0  0  0  0  0999 V2000
  -88.2201   30.4866   -1.7668 C   0  0  0  0  0  0  0  0  0  0  0  0
  -87.4319   29.4954   -1.7652 O   0  0  0  0  0  0  0  0  0  0  0  0
  -89.5864   30.3826   -1.9620 N   0  0  0  0  0  0  0  0  0  0  0  0
  -90.5639   31.4756   -1.9807 C   0  0  0  0  0  0  0  0  0  0  0  0
  -91.4618   31.1365   -3.1757 C   0  0  0  0  0  0  0  0  0  0  0  0
  -91.0679   29.6839   -3.5191 C   0  0  0  0  0  0  0  0  0  0  0  0
  -90.4755   29.2303   -2.2339 C   0  0  0  0  0  0  0  0  0  0  0  0
  -89.8257   27.9543   -2.1629 C   0  0  0  0  0  0  0  0  0  0  0  0
  -89.3806   27.4702   -3.2632 O   0  0  0  0  0  0  0  0  0  0  0  0
  -89.6149   27.1586   -1.0245 N   0  0  0  0  0  0  0  0  0  0  0  0
  -89.9754   27.5286   -0.1040 H   0  0  0  0  0  0  0  0  0  0  0  0
  -88.9534   25.9096   -1.0891 C   0  0  0  0  0  0  0  0  0  0  0  0
  -89.9325   24.7715   -1.2740 C   0  0  0  0  0  0  0  0  0  0  0  0
  -89.5439   23.5324   -1.7369 O   0  0  0  0  0  0  0  0  0  0  0  0
  -91.1253   24.9866   -0.9919 O   0  0  0  0  0  0  0  0  0  0  0  0
  -89.6501   23.2666   -2.7263 H   0  0  0  0  0  0  0  0  0  0  0  0
  -87.9802   25.5988    0.0033 C   0  0  0  0  0  0  0  0  0  0  0  0
  -88.2984   26.3111    1.2586 C   0  0  0  0  0  0  0  0  0  0  0  0
  -87.7542   27.5307    1.6410 C   0  0  0  0  0  0  0  0  0  0  0  0
  -88.2969   27.8998    2.8068 N   0  0  0  0  0  0  0  0  0  0  0  0
  -89.1843   26.9689    3.2170 C   0  0  0  0  0  0  0  0  0  0  0  0
  -89.9782   26.8919    4.3383 C   0  0  0  0  0  0  0  0  0  0  0  0
  -90.8081   25.8197    4.5466 C   0  0  0  0  0  0  0  0  0  0  0  0
  -90.7972   24.8350    3.5743 C   0  0  0  0  0  0  0  0  0  0  0  0
  -90.0142   24.8856    2.4438 C   0  0  0  0  0  0  0  0  0  0  0  0
  -89.1912   25.9722    2.2562 C   0  0  0  0  0  0  0  0  0  0  0  0
  -88.0943   28.7689    3.3585 H   0  0  0  0  0  0  0  0  0  0  0  0
  -87.4782   32.5230   -2.8735 C   0  0  0  0  0  0  0  0  0  0  0  0
  -87.5785   31.8104   -1.5394 C   0  0  0  0  0  0  0  0  0  0  0  0
  -86.2214   31.5510   -1.0262 N   0  0  0  0  0  0  0  0  0  0  0  0
  -85.4865   32.6309   -0.4816 C   0  0  0  0  0  0  0  0  0  0  0  0
  -85.9803   33.7713   -0.4396 O   0  0  0  0  0  0  0  0  0  0  0  0
  -85.8271   30.5907   -1.0724 H   0  0  0  0  0  0  0  0  0  0  0  0
  -84.1076   32.3226    0.0322 C   0  0  0  0  0  0  0  0  0  0  0  0
  -83.1429   33.3141   -0.3238 N   0  0  0  0  0  0  0  0  0  0  0  0
  -82.9475   33.4239   -1.3191 H   0  0  0  0  0  0  0  0  0  0  0  0
  -83.2536   34.2000    0.2120 H   0  0  0  0  0  0  0  0  0  0  0  0
  -84.2019   32.1802    1.5164 C   0  0  0  0  0  0  0  0  0  0  0  0
  -83.9688   30.7911    1.9365 C   0  0  0  0  0  0  0  0  0  0  0  0
  -82.8004   30.1663    1.6033 C   0  0  0  0  0  0  0  0  0  0  0  0
  -82.5900   28.8611    1.9968 C   0  0  0  0  0  0  0  0  0  0  0  0
  -83.5482   28.1882    2.7200 C   0  0  0  0  0  0  0  0  0  0  0  0
  -83.2674   26.8703    3.0847 O   0  0  0  0  0  0  0  0  0  0  0  0
  -84.7242   28.8185    3.0542 C   0  0  0  0  0  0  0  0  0  0  0  0
  -84.9279   30.1253    2.6572 C   0  0  0  0  0  0  0  0  0  0  0  0
  -83.9755   26.3721    3.6190 H   0  0  0  0  0  0  0  0  0  0  0  0
 28 29  1  0  0  0
 29 30  1  0  0  0
 30 31  1  0  0  0
 31 32  2  0  0  0
 31 34  1  0  0  0
 34 35  1  0  0  0
 34 38  1  0  0  0
 38 39  1  0  0  0
 39 40  2  0  0  0
 40 41  1  0  0  0
 41 42  2  0  0  0
 42 43  1  0  0  0
 42 44  1  0  0  0
 44 45  2  0  0  0
 29  1  1  0  0  0
  1  2  2  0  0  0
  1  3  1  0  0  0
  3  4  1  0  0  0
  4  5  1  0  0  0
  5  6  1  0  0  0
  6  7  1  0  0  0
  7  8  1  0  0  0
  8  9  2  0  0  0
  8 10  1  0  0  0
 10 12  1  0  0  0
 12 17  1  0  0  0
 17 18  1  0  0  0
 18 19  2  0  0  0
 19 20  1  0  0  0
 20 21  1  0  0  0
 21 22  2  0  0  0
 22 23  1  0  0  0
 23 24  2  0  0  0
 24 25  1  0  0  0
 25 26  2  0  0  0
 12 13  1  0  0  0
 13 14  1  0  0  0
 13 15  2  0  0  0
 45 39  1  0  0  0
  7  3  1  0  0  0
 26 18  1  0  0  0
 26 21  1  0  0  0
 30 33  1  0  0  0
 35 36  1  0  0  0
 35 37  1  0  0  0
 43 46  1  0  0  0
 10 11  1  0  0  0
 20 27  1  0  0  0
 14 16  1  0  0  0
M  END
> <minimizedAffinity>
-10.36295

> <CNNscore>
0.2171085477

> <CNNaffinity>
6.9796004295

> <CNN_VS>
1.5153309107

> <CNNaffinity_variance>
0.1290433407

$$$$
[H]OC(=O)[C@@]([H])(N([H])C(=O)[C@@]1([H])N(C(=O)[C@@]([H])(N([H])C(=O)[C@@]([H])(N([H])[H])C([H])([H])c2c([H])c([H])c(O[H])c([H])c2[H])C([H])([H])[H])C([H])([H])C([H])([H])C1([H])[H])C([H])([H])c1c([H])n([H])c2c([H])c([H])c([H])c([H])c12


 46 49  0  0  0  0  0  0  0  0999 V2000
  -86.3384   31.2533   -0.3540 C   0  0  0  0  0  0  0  0  0  0  0  0
  -87.5323   30.8553   -0.2121 O   0  0  0  0  0  0  0  0  0  0  0  0
  -85.2325   30.5301    0.0578 N   0  0  0  0  0  0  0  0  0  0  0  0
  -83.8240   30.9186   -0.0668 C   0  0  0  0  0  0  0  0  0  0  0  0
  -83.2241   30.5423    1.2925 C   0  0  0  0  0  0  0  0  0  0  0  0
  -84.3230   29.6735    1.9411 C   0  0  0  0  0  0  0  0  0  0  0  0
  -85.0858   29.2275    0.7462 C   0  0  0  0  0  0  0  0  0  0  0  0
  -86.3145   28.5084    0.9160 C   0  0  0  0  0  0  0  0  0  0  0  0
  -86.7113   28.3183    2.1200 O   0  0  0  0  0  0  0  0  0  0  0  0
  -87.1466   27.9790   -0.0844 N   0  0  0  0  0  0  0  0  0  0  0  0
  -86.8430   28.1151   -1.0862 H   0  0  0  0  0  0  0  0  0  0  0  0
  -88.3424   27.2860    0.2178 C   0  0  0  0  0  0  0  0  0  0  0  0
  -88.5717   26.1327   -0.7338 C   0  0  0  0  0  0  0  0  0  0  0  0
  -88.5964   26.2996   -2.1021 O   0  0  0  0  0  0  0  0  0  0  0  0
  -88.7418   25.0034   -0.2394 O   0  0  0  0  0  0  0  0  0  0  0  0
  -89.4819   26.3919   -2.6200 H   0  0  0  0  0  0  0  0  0  0  0  0
  -89.5845   28.1063    0.3648 C   0  0  0  0  0  0  0  0  0  0  0  0
  -90.1099   28.0876    1.7460 C   0  0  0  0  0  0  0  0  0  0  0  0
  -91.0154   29.0045    2.2652 C   0  0  0  0  0  0  0  0  0  0  0  0
  -91.3039   28.6610    3.5256 N   0  0  0  0  0  0  0  0  0  0  0  0
  -90.6222   27.5470    3.8669 C   0  0  0  0  0  0  0  0  0  0  0  0
  -90.5773   26.8233    5.0364 C   0  0  0  0  0  0  0  0  0  0  0  0
  -89.7842   25.7099    5.1506 C   0  0  0  0  0  0  0  0  0  0  0  0
  -89.0429   25.3651    4.0340 C   0  0  0  0  0  0  0  0  0  0  0  0
  -89.0682   26.0698    2.8523 C   0  0  0  0  0  0  0  0  0  0  0  0
  -89.8729   27.1821    2.7615 C   0  0  0  0  0  0  0  0  0  0  0  0
  -91.9522   29.1520    4.1885 H   0  0  0  0  0  0  0  0  0  0  0  0
  -85.6978   33.5687    0.0336 C   0  0  0  0  0  0  0  0  0  0  0  0
  -86.1838   32.5811   -1.0086 C   0  0  0  0  0  0  0  0  0  0  0  0
  -87.5197   32.9907   -1.4775 N   0  0  0  0  0  0  0  0  0  0  0  0
  -87.8349   32.8276   -2.8475 C   0  0  0  0  0  0  0  0  0  0  0  0
  -86.9991   32.3487   -3.6336 O   0  0  0  0  0  0  0  0  0  0  0  0
  -88.2027   33.3903   -0.8040 H   0  0  0  0  0  0  0  0  0  0  0  0
  -89.2085   33.2563   -3.2833 C   0  0  0  0  0  0  0  0  0  0  0  0
  -90.2542   32.5668   -2.5966 N   0  0  0  0  0  0  0  0  0  0  0  0
  -90.3175   31.5608   -2.7542 H   0  0  0  0  0  0  0  0  0  0  0  0
  -90.3626   32.8737   -1.6076 H   0  0  0  0  0  0  0  0  0  0  0  0
  -89.3101   34.7308   -3.0648 C   0  0  0  0  0  0  0  0  0  0  0  0
  -88.5154   35.4740   -4.0530 C   0  0  0  0  0  0  0  0  0  0  0  0
  -88.6378   35.1834   -5.3823 C   0  0  0  0  0  0  0  0  0  0  0  0
  -87.8856   35.8816   -6.3039 C   0  0  0  0  0  0  0  0  0  0  0  0
  -87.0156   36.8651   -5.8918 C   0  0  0  0  0  0  0  0  0  0  0  0
  -86.2873   37.5308   -6.8793 O   0  0  0  0  0  0  0  0  0  0  0  0
  -86.8932   37.1560   -4.5531 C   0  0  0  0  0  0  0  0  0  0  0  0
  -87.6495   36.4533   -3.6361 C   0  0  0  0  0  0  0  0  0  0  0  0
  -85.6436   38.2577   -6.5753 H   0  0  0  0  0  0  0  0  0  0  0  0
 28 29  1  0  0  0
 29 30  1  0  0  0
 30 31  1  0  0  0
 31 32  2  0  0  0
 31 34  1  0  0  0
 34 35  1  0  0  0
 34 38  1  0  0  0
 38 39  1  0  0  0
 39 40  2  0  0  0
 40 41  1  0  0  0
 41 42  2  0  0  0
 42 43  1  0  0  0
 42 44  1  0  0  0
 44 45  2  0  0  0
 29  1  1  0  0  0
  1  2  2  0  0  0
  1  3  1  0  0  0
  3  4  1  0  0  0
  4  5  1  0  0  0
  5  6  1  0  0  0
  6  7  1  0  0  0
  7  8  1  0  0  0
  8  9  2  0  0  0
  8 10  1  0  0  0
 10 12  1  0  0  0
 12 17  1  0  0  0
 17 18  1  0  0  0
 18 19  2  0  0  0
 19 20  1  0  0  0
 20 21  1  0  0  0
 21 22  2  0  0  0
 22 23  1  0  0  0
 23 24  2  0  0  0
 24 25  1  0  0  0
 25 26  2  0  0  0
 12 13  1  0  0  0
 13 14  1  0  0  0
 13 15  2  0  0  0
 45 39  1  0  0  0
  7  3  1  0  0  0
 26 18  1  0  0  0
 26 21  1  0  0  0
 30 33  1  0  0  0
 35 36  1  0  0  0
 35 37  1  0  0  0
 43 46  1  0  0  0
 10 11  1  0  0  0
 20 27  1  0  0  0
 14 16  1  0  0  0
M  END
> <minimizedAffinity>
-9.45853

> <CNNscore>
0.1759234667

> <CNNaffinity>
6.4234857559

> <CNN_VS>
1.1300418377

> <CNNaffinity_variance>
0.3538709283

$$$$
[H]OC(=O)[C@@]([H])(N([H])C(=O)[C@@]1([H])N(C(=O)[C@@]([H])(N([H])C(=O)[C@@]([H])(N([H])[H])C([H])([H])c2c([H])c([H])c(O[H])c([H])c2[H])C([H])([H])[H])C([H])([H])C([H])([H])C1([H])[H])C([H])([H])c1c([H])n([H])c2c([H])c([H])c([H])c([H])c12


 46 49  0  0  0  0  0  0  0  0999 V2000
  -87.6531   31.0696   -1.9726 C   0  0  0  0  0  0  0  0  0  0  0  0
  -88.2787   31.3816   -3.0287 O   0  0  0  0  0  0  0  0  0  0  0  0
  -86.9013   31.9644   -1.2312 N   0  0  0  0  0  0  0  0  0  0  0  0
  -86.1486   31.6847   -0.0042 C   0  0  0  0  0  0  0  0  0  0  0  0
  -84.8206   32.4190   -0.2200 C   0  0  0  0  0  0  0  0  0  0  0  0
  -85.1009   33.3134   -1.4467 C   0  0  0  0  0  0  0  0  0  0  0  0
  -86.5842   33.3992   -1.4127 C   0  0  0  0  0  0  0  0  0  0  0  0
  -87.2840   34.0256   -2.4959 C   0  0  0  0  0  0  0  0  0  0  0  0
  -88.4802   34.4210   -2.2595 O   0  0  0  0  0  0  0  0  0  0  0  0
  -86.8171   34.2615   -3.7997 N   0  0  0  0  0  0  0  0  0  0  0  0
  -85.8369   33.9418   -4.0261 H   0  0  0  0  0  0  0  0  0  0  0  0
  -87.6130   34.8951   -4.7828 C   0  0  0  0  0  0  0  0  0  0  0  0
  -86.9739   36.1750   -5.2744 C   0  0  0  0  0  0  0  0  0  0  0  0
  -86.8171   36.4530   -6.6157 O   0  0  0  0  0  0  0  0  0  0  0  0
  -86.5838   36.9896   -4.4183 O   0  0  0  0  0  0  0  0  0  0  0  0
  -85.9263   36.2814   -7.1033 H   0  0  0  0  0  0  0  0  0  0  0  0
  -89.0545   35.1164   -4.4510 C   0  0  0  0  0  0  0  0  0  0  0  0
  -89.9604   34.4447   -5.4062 C   0  0  0  0  0  0  0  0  0  0  0  0
  -90.6333   33.2542   -5.1617 C   0  0  0  0  0  0  0  0  0  0  0  0
  -91.3954   32.9626   -6.2219 N   0  0  0  0  0  0  0  0  0  0  0  0
  -91.2546   33.9165   -7.1666 C   0  0  0  0  0  0  0  0  0  0  0  0
  -91.8140   34.0577   -8.4159 C   0  0  0  0  0  0  0  0  0  0  0  0
  -91.5028   35.1285   -9.2147 C   0  0  0  0  0  0  0  0  0  0  0  0
  -90.6046   36.0439   -8.6946 C   0  0  0  0  0  0  0  0  0  0  0  0
  -90.0300   35.9282   -7.4496 C   0  0  0  0  0  0  0  0  0  0  0  0
  -90.3593   34.8462   -6.6660 C   0  0  0  0  0  0  0  0  0  0  0  0
  -92.0216   32.1304   -6.3484 H   0  0  0  0  0  0  0  0  0  0  0  0
  -87.7970   28.7889   -2.8089 C   0  0  0  0  0  0  0  0  0  0  0  0
  -87.7746   29.6451   -1.5583 C   0  0  0  0  0  0  0  0  0  0  0  0
  -89.0623   29.5074   -0.8545 N   0  0  0  0  0  0  0  0  0  0  0  0
  -89.2374   28.4148    0.0277 C   0  0  0  0  0  0  0  0  0  0  0  0
  -88.3212   27.5923    0.2014 O   0  0  0  0  0  0  0  0  0  0  0  0
  -89.8153   30.2051   -1.0154 H   0  0  0  0  0  0  0  0  0  0  0  0
  -90.5648   28.3128    0.7264 C   0  0  0  0  0  0  0  0  0  0  0  0
  -91.6685   28.6441   -0.1178 N   0  0  0  0  0  0  0  0  0  0  0  0
  -91.7122   29.6059   -0.4551 H   0  0  0  0  0  0  0  0  0  0  0  0
  -91.8723   27.9101   -0.8275 H   0  0  0  0  0  0  0  0  0  0  0  0
  -90.6929   26.9185    1.2476 C   0  0  0  0  0  0  0  0  0  0  0  0
  -90.4475   26.8641    2.6958 C   0  0  0  0  0  0  0  0  0  0  0  0
  -90.4075   28.0198    3.4231 C   0  0  0  0  0  0  0  0  0  0  0  0
  -90.1721   27.9619    4.7810 C   0  0  0  0  0  0  0  0  0  0  0  0
  -89.9777   26.7500    5.4035 C   0  0  0  0  0  0  0  0  0  0  0  0
  -89.7454   26.7670    6.7799 O   0  0  0  0  0  0  0  0  0  0  0  0
  -90.0178   25.5874    4.6697 C   0  0  0  0  0  0  0  0  0  0  0  0
  -90.2542   25.6529    3.3107 C   0  0  0  0  0  0  0  0  0  0  0  0
  -89.6011   25.8714    7.2407 H   0  0  0  0  0  0  0  0  0  0  0  0
 28 29  1  0  0  0
 29 30  1  0  0  0
 30 31  1  0  0  0
 31 32  2  0  0  0
 31 34  1  0  0  0
 34 35  1  0  0  0
 34 38  1  0  0  0
 38 39  1  0  0  0
 39 40  2  0  0  0
 40 41  1  0  0  0
 41 42  2  0  0  0
 42 43  1  0  0  0
 42 44  1  0  0  0
 44 45  2  0  0  0
 29  1  1  0  0  0
  1  2  2  0  0  0
  1  3  1  0  0  0
  3  4  1  0  0  0
  4  5  1  0  0  0
  5  6  1  0  0  0
  6  7  1  0  0  0
  7  8  1  0  0  0
  8  9  2  0  0  0
  8 10  1  0  0  0
 10 12  1  0  0  0
 12 17  1  0  0  0
 17 18  1  0  0  0
 18 19  2  0  0  0
 19 20  1  0  0  0
 20 21  1  0  0  0
 21 22  2  0  0  0
 22 23  1  0  0  0
 23 24  2  0  0  0
 24 25  1  0  0  0
 25 26  2  0  0  0
 12 13  1  0  0  0
 13 14  1  0  0  0
 13 15  2  0  0  0
 45 39  1  0  0  0
  7  3  1  0  0  0
 26 18  1  0  0  0
 26 21  1  0  0  0
 30 33  1  0  0  0
 35 36  1  0  0  0
 35 37  1  0  0  0
 43 46  1  0  0  0
 10 11  1  0  0  0
 20 27  1  0  0  0
 14 16  1  0  0  0
M  END
> <minimizedAffinity>
-9.23976

> <CNNscore>
0.1719507575

> <CNNaffinity>
6.1027669907

> <CNN_VS>
1.0493754148

> <CNNaffinity_variance>
0.2429980040

$$$$
[H]OC(=O)[C@@]([H])(N([H])C(=O)[C@@]1([H])N(C(=O)[C@@]([H])(N([H])C(=O)[C@@]([H])(N([H])[H])C([H])([H])c2c([H])c([H])c(O[H])c([H])c2[H])C([H])([H])[H])C([H])([H])C([H])([H])C1([H])[H])C([H])([H])c1c([H])n([H])c2c([H])c([H])c([H])c([H])c12


 46 49  0  0  0  0  0  0  0  0999 V2000
  -89.0637   26.8816    1.6779 C   0  0  0  0  0  0  0  0  0  0  0  0
  -87.8842   27.0817    2.0934 O   0  0  0  0  0  0  0  0  0  0  0  0
  -89.6151   27.5300    0.5865 N   0  0  0  0  0  0  0  0  0  0  0  0
  -90.9669   27.3581    0.0447 C   0  0  0  0  0  0  0  0  0  0  0  0
  -91.4261   28.7921   -0.2415 C   0  0  0  0  0  0  0  0  0  0  0  0
  -90.1270   29.6164   -0.1151 C   0  0  0  0  0  0  0  0  0  0  0  0
  -89.0946   28.5693   -0.3305 C   0  0  0  0  0  0  0  0  0  0  0  0
  -87.7101   28.8871   -0.1369 C   0  0  0  0  0  0  0  0  0  0  0  0
  -86.8816   28.4029   -0.9868 O   0  0  0  0  0  0  0  0  0  0  0  0
  -87.1416   29.6710    0.8808 N   0  0  0  0  0  0  0  0  0  0  0  0
  -87.7986   30.0791    1.5992 H   0  0  0  0  0  0  0  0  0  0  0  0
  -85.7496   29.9113    0.9594 C   0  0  0  0  0  0  0  0  0  0  0  0
  -85.0638   28.9125    1.8651 C   0  0  0  0  0  0  0  0  0  0  0  0
  -85.1620   27.5512    1.6698 O   0  0  0  0  0  0  0  0  0  0  0  0
  -84.3935   29.3604    2.8131 O   0  0  0  0  0  0  0  0  0  0  0  0
  -85.8352   26.9763    2.1963 H   0  0  0  0  0  0  0  0  0  0  0  0
  -85.3182   31.3057    1.2859 C   0  0  0  0  0  0  0  0  0  0  0  0
  -85.2889   32.1784    0.0936 C   0  0  0  0  0  0  0  0  0  0  0  0
  -84.1358   32.6784   -0.4982 C   0  0  0  0  0  0  0  0  0  0  0  0
  -84.4777   33.3911   -1.5775 N   0  0  0  0  0  0  0  0  0  0  0  0
  -85.8193   33.3852   -1.7272 C   0  0  0  0  0  0  0  0  0  0  0  0
  -86.6387   33.9719   -2.6642 C   0  0  0  0  0  0  0  0  0  0  0  0
  -88.0017   33.8310   -2.6010 C   0  0  0  0  0  0  0  0  0  0  0  0
  -88.4943   33.0742   -1.5523 C   0  0  0  0  0  0  0  0  0  0  0  0
  -87.6991   32.4764   -0.6016 C   0  0  0  0  0  0  0  0  0  0  0  0
  -86.3345   32.6307   -0.6871 C   0  0  0  0  0  0  0  0  0  0  0  0
  -83.8380   33.8980   -2.2367 H   0  0  0  0  0  0  0  0  0  0  0  0
  -89.2236   25.7456    3.8240 C   0  0  0  0  0  0  0  0  0  0  0  0
  -89.8489   25.8799    2.4498 C   0  0  0  0  0  0  0  0  0  0  0  0
  -89.7311   24.5952    1.7369 N   0  0  0  0  0  0  0  0  0  0  0  0
  -90.7075   23.5985    1.9737 C   0  0  0  0  0  0  0  0  0  0  0  0
  -91.6419   23.8078    2.7668 O   0  0  0  0  0  0  0  0  0  0  0  0
  -88.9413   24.4405    1.0796 H   0  0  0  0  0  0  0  0  0  0  0  0
  -90.5510   22.3041    1.2249 C   0  0  0  0  0  0  0  0  0  0  0  0
  -89.8471   21.3086    1.9691 N   0  0  0  0  0  0  0  0  0  0  0  0
  -88.8722   21.5103    2.1924 H   0  0  0  0  0  0  0  0  0  0  0  0
  -90.4115   20.9070    2.7464 H   0  0  0  0  0  0  0  0  0  0  0  0
  -91.9190   21.8275    0.8596 C   0  0  0  0  0  0  0  0  0  0  0  0
  -92.3084   22.2941   -0.4788 C   0  0  0  0  0  0  0  0  0  0  0  0
  -91.3568   22.7631   -1.3395 C   0  0  0  0  0  0  0  0  0  0  0  0
  -91.7296   23.2038   -2.5923 C   0  0  0  0  0  0  0  0  0  0  0  0
  -93.0506   23.1735   -2.9771 C   0  0  0  0  0  0  0  0  0  0  0  0
  -93.3549   23.6343   -4.2592 O   0  0  0  0  0  0  0  0  0  0  0  0
  -94.0075   22.7014   -2.1091 C   0  0  0  0  0  0  0  0  0  0  0  0
  -93.6269   22.2617   -0.8566 C   0  0  0  0  0  0  0  0  0  0  0  0
  -94.3315   23.6126   -4.5441 H   0  0  0  0  0  0  0  0  0  0  0  0
 28 29  1  0  0  0
 29 30  1  0  0  0
 30 31  1  0  0  0
 31 32  2  0  0  0
 31 34  1  0  0  0
 34 35  1  0  0  0
 34 38  1  0  0  0
 38 39  1  0  0  0
 39 40  2  0  0  0
 40 41  1  0  0  0
 41 42  2  0  0  0
 42 43  1  0  0  0
 42 44  1  0  0  0
 44 45  2  0  0  0
 29  1  1  0  0  0
  1  2  2  0  0  0
  1  3  1  0  0  0
  3  4  1  0  0  0
  4  5  1  0  0  0
  5  6  1  0  0  0
  6  7  1  0  0  0
  7  8  1  0  0  0
  8  9  2  0  0  0
  8 10  1  0  0  0
 10 12  1  0  0  0
 12 17  1  0  0  0
 17 18  1  0  0  0
 18 19  2  0  0  0
 19 20  1  0  0  0
 20 21  1  0  0  0
 21 22  2  0  0  0
 22 23  1  0  0  0
 23 24  2  0  0  0
 24 25  1  0  0  0
 25 26  2  0  0  0
 12 13  1  0  0  0
 13 14  1  0  0  0
 13 15  2  0  0  0
 45 39  1  0  0  0
  7  3  1  0  0  0
 26 18  1  0  0  0
 26 21  1  0  0  0
 30 33  1  0  0  0
 35 36  1  0  0  0
 35 37  1  0  0  0
 43 46  1  0  0  0
 10 11  1  0  0  0
 20 27  1  0  0  0
 14 16  1  0  0  0
M  END
> <minimizedAffinity>
-8.84167

> <CNNscore>
0.1427425146

> <CNNaffinity>
6.3305287361

> <CNN_VS>
0.9036355615

> <CNNaffinity_variance>
0.1459842473

$$$$
[H]OC(=O)[C@@]([H])(N([H])C(=O)[C@@]1([H])N(C(=O)[C@@]([H])(N([H])C(=O)[C@@]([H])(N([H])[H])C([H])([H])c2c([H])c([H])c(O[H])c([H])c2[H])C([H])([H])[H])C([H])([H])C([H])([H])C1([H])[H])C([H])([H])c1c([H])n([H])c2c([H])c([H])c([H])c([H])c12


 46 49  0  0  0  0  0  0  0  0999 V2000
  -89.9295   26.7722   -1.0059 C   0  0  0  0  0  0  0  0  0  0  0  0
  -90.2163   27.6623   -1.8598 O   0  0  0  0  0  0  0  0  0  0  0  0
  -89.2539   27.0281    0.1747 N   0  0  0  0  0  0  0  0  0  0  0  0
  -88.8828   26.0586    1.2105 C   0  0  0  0  0  0  0  0  0  0  0  0
  -87.4442   26.4470    1.5696 C   0  0  0  0  0  0  0  0  0  0  0  0
  -87.2670   27.8258    0.8983 C   0  0  0  0  0  0  0  0  0  0  0  0
  -88.6797   28.2639    0.7536 C   0  0  0  0  0  0  0  0  0  0  0  0
  -88.9813   29.4560    0.0165 C   0  0  0  0  0  0  0  0  0  0  0  0
  -90.0910   30.0378    0.2872 O   0  0  0  0  0  0  0  0  0  0  0  0
  -88.2037   30.0724   -0.9779 N   0  0  0  0  0  0  0  0  0  0  0  0
  -87.2863   29.6131   -1.2265 H   0  0  0  0  0  0  0  0  0  0  0  0
  -88.6170   31.2562   -1.6330 C   0  0  0  0  0  0  0  0  0  0  0  0
  -88.3259   31.2008   -3.1163 C   0  0  0  0  0  0  0  0  0  0  0  0
  -87.8086   30.0769   -3.7247 O   0  0  0  0  0  0  0  0  0  0  0  0
  -88.5700   32.2186   -3.7895 O   0  0  0  0  0  0  0  0  0  0  0  0
  -86.8019   29.9827   -3.9209 H   0  0  0  0  0  0  0  0  0  0  0  0
  -88.1524   32.5530   -1.0502 C   0  0  0  0  0  0  0  0  0  0  0  0
  -86.6811   32.6889   -1.0838 C   0  0  0  0  0  0  0  0  0  0  0  0
  -85.9758   33.4826   -1.9797 C   0  0  0  0  0  0  0  0  0  0  0  0
  -84.6711   33.4012   -1.6952 N   0  0  0  0  0  0  0  0  0  0  0  0
  -84.4800   32.5802   -0.6408 C   0  0  0  0  0  0  0  0  0  0  0  0
  -83.3368   32.1770    0.0104 C   0  0  0  0  0  0  0  0  0  0  0  0
  -83.3943   31.3095    1.0714 C   0  0  0  0  0  0  0  0  0  0  0  0
  -84.6540   30.8712    1.4405 C   0  0  0  0  0  0  0  0  0  0  0  0
  -85.8134   31.2575    0.8080 C   0  0  0  0  0  0  0  0  0  0  0  0
  -85.7303   32.1299   -0.2528 C   0  0  0  0  0  0  0  0  0  0  0  0
  -83.8791   33.8808   -2.1886 H   0  0  0  0  0  0  0  0  0  0  0  0
  -89.1405   24.5565   -1.6306 C   0  0  0  0  0  0  0  0  0  0  0  0
  -90.3728   25.3935   -1.3502 C   0  0  0  0  0  0  0  0  0  0  0  0
  -91.1802   25.4928   -2.5793 N   0  0  0  0  0  0  0  0  0  0  0  0
  -92.3362   24.6848   -2.6961 C   0  0  0  0  0  0  0  0  0  0  0  0
  -92.6586   23.9101   -1.7786 O   0  0  0  0  0  0  0  0  0  0  0  0
  -90.8918   26.1456   -3.3346 H   0  0  0  0  0  0  0  0  0  0  0  0
  -93.1319   24.8185   -3.9648 C   0  0  0  0  0  0  0  0  0  0  0  0
  -93.7238   23.5887   -4.3864 N   0  0  0  0  0  0  0  0  0  0  0  0
  -93.0823   22.8405   -4.6503 H   0  0  0  0  0  0  0  0  0  0  0  0
  -94.5293   23.3005   -3.7929 H   0  0  0  0  0  0  0  0  0  0  0  0
  -94.1772   25.8603   -3.7325 C   0  0  0  0  0  0  0  0  0  0  0  0
  -93.8249   27.1273   -4.3890 C   0  0  0  0  0  0  0  0  0  0  0  0
  -93.5149   28.2223   -3.6331 C   0  0  0  0  0  0  0  0  0  0  0  0
  -93.1897   29.4095   -4.2556 C   0  0  0  0  0  0  0  0  0  0  0  0
  -93.1768   29.4955   -5.6290 C   0  0  0  0  0  0  0  0  0  0  0  0
  -92.8378   30.7278   -6.1904 O   0  0  0  0  0  0  0  0  0  0  0  0
  -93.4896   28.3923   -6.3886 C   0  0  0  0  0  0  0  0  0  0  0  0
  -93.8139   27.2070   -5.7587 C   0  0  0  0  0  0  0  0  0  0  0  0
  -92.8284   30.7921   -7.2058 H   0  0  0  0  0  0  0  0  0  0  0  0
 28 29  1  0  0  0
 29 30  1  0  0  0
 30 31  1  0  0  0
 31 32  2  0  0  0
 31 34  1  0  0  0
 34 35  1  0  0  0
 34 38  1  0  0  0
 38 39  1  0  0  0
 39 40  2  0  0  0
 40 41  1  0  0  0
 41 42  2  0  0  0
 42 43  1  0  0  0
 42 44  1  0  0  0
 44 45  2  0  0  0
 29  1  1  0  0  0
  1  2  2  0  0  0
  1  3  1  0  0  0
  3  4  1  0  0  0
  4  5  1  0  0  0
  5  6  1  0  0  0
  6  7  1  0  0  0
  7  8  1  0  0  0
  8  9  2  0  0  0
  8 10  1  0  0  0
 10 12  1  0  0  0
 12 17  1  0  0  0
 17 18  1  0  0  0
 18 19  2  0  0  0
 19 20  1  0  0  0
 20 21  1  0  0  0
 21 22  2  0  0  0
 22 23  1  0  0  0
 23 24  2  0  0  0
 24 25  1  0  0  0
 25 26  2  0  0  0
 12 13  1  0  0  0
 13 14  1  0  0  0
 13 15  2  0  0  0
 45 39  1  0  0  0
  7  3  1  0  0  0
 26 18  1  0  0  0
 26 21  1  0  0  0
 30 33  1  0  0  0
 35 36  1  0  0  0
 35 37  1  0  0  0
 43 46  1  0  0  0
 10 11  1  0  0  0
 20 27  1  0  0  0
 14 16  1  0  0  0
M  END
> <minimizedAffinity>
-8.49940

> <CNNscore>
0.1237024590

> <CNNaffinity>
6.0787625313

> <CNN_VS>
0.7519578934

> <CNNaffinity_variance>
0.3181098402

$$$$
[H]OC(=O)[C@@]([H])(N([H])C(=O)[C@@]1([H])N(C(=O)[C@@]([H])(N([H])C(=O)[C@@]([H])(N([H])[H])C([H])([H])c2c([H])c([H])c(O[H])c([H])c2[H])C([H])([H])[H])C([H])([H])C([H])([H])C1([H])[H])C([H])([H])c1c([H])n([H])c2c([H])c([H])c([H])c([H])c12


 46 49  0  0  0  0  0  0  0  0999 V2000
  -91.8079   29.7163   -2.9865 C   0  0  0  0  0  0  0  0  0  0  0  0
  -90.9590   29.4746   -2.0783 O   0  0  0  0  0  0  0  0  0  0  0  0
  -91.5449   30.5009   -4.0960 N   0  0  0  0  0  0  0  0  0  0  0  0
  -92.4683   30.8299   -5.1866 C   0  0  0  0  0  0  0  0  0  0  0  0
  -92.2323   32.3262   -5.4203 C   0  0  0  0  0  0  0  0  0  0  0  0
  -90.9427   32.6146   -4.6223 C   0  0  0  0  0  0  0  0  0  0  0  0
  -90.3473   31.2562   -4.5288 C   0  0  0  0  0  0  0  0  0  0  0  0
  -89.1887   31.0437   -3.7115 C   0  0  0  0  0  0  0  0  0  0  0  0
  -88.2385   30.3528   -4.2242 O   0  0  0  0  0  0  0  0  0  0  0  0
  -88.9631   31.5026   -2.4031 N   0  0  0  0  0  0  0  0  0  0  0  0
  -89.7304   32.0701   -1.9520 H   0  0  0  0  0  0  0  0  0  0  0  0
  -87.7668   31.2230   -1.7014 C   0  0  0  0  0  0  0  0  0  0  0  0
  -87.7491   29.8042   -1.1770 C   0  0  0  0  0  0  0  0  0  0  0  0
  -87.1748   28.7658   -1.8790 O   0  0  0  0  0  0  0  0  0  0  0  0
  -88.2786   29.5925   -0.0709 O   0  0  0  0  0  0  0  0  0  0  0  0
  -87.7381   28.1286   -2.4600 H   0  0  0  0  0  0  0  0  0  0  0  0
  -87.3652   32.1880   -0.6315 C   0  0  0  0  0  0  0  0  0  0  0  0
  -85.8989   32.3499   -0.5426 C   0  0  0  0  0  0  0  0  0  0  0  0
  -85.1691   33.3492   -1.1741 C   0  0  0  0  0  0  0  0  0  0  0  0
  -83.8801   33.2201   -0.8401 N   0  0  0  0  0  0  0  0  0  0  0  0
  -83.7230   32.1689   -0.0080 C   0  0  0  0  0  0  0  0  0  0  0  0
  -82.6058   31.6355    0.5929 C   0  0  0  0  0  0  0  0  0  0  0  0
  -82.6958   30.5339    1.4051 C   0  0  0  0  0  0  0  0  0  0  0  0
  -83.9605   29.9998    1.5800 C   0  0  0  0  0  0  0  0  0  0  0  0
  -85.0945   30.5119    0.9922 C   0  0  0  0  0  0  0  0  0  0  0  0
  -84.9790   31.6186    0.1828 C   0  0  0  0  0  0  0  0  0  0  0  0
  -83.0766   33.8176   -1.1534 H   0  0  0  0  0  0  0  0  0  0  0  0
  -94.0696   30.1299   -2.1895 C   0  0  0  0  0  0  0  0  0  0  0  0
  -93.1444   29.0909   -2.7912 C   0  0  0  0  0  0  0  0  0  0  0  0
  -92.9691   27.9856   -1.8320 N   0  0  0  0  0  0  0  0  0  0  0  0
  -92.9633   26.6584   -2.3232 C   0  0  0  0  0  0  0  0  0  0  0  0
  -93.1034   26.4359   -3.5384 O   0  0  0  0  0  0  0  0  0  0  0  0
  -92.8554   28.1938   -0.8203 H   0  0  0  0  0  0  0  0  0  0  0  0
  -92.7800   25.5614   -1.3115 C   0  0  0  0  0  0  0  0  0  0  0  0
  -92.2850   26.0335   -0.0575 N   0  0  0  0  0  0  0  0  0  0  0  0
  -91.3488   26.4390   -0.0599 H   0  0  0  0  0  0  0  0  0  0  0  0
  -92.9991   26.5568    0.4906 H   0  0  0  0  0  0  0  0  0  0  0  0
  -94.0993   24.8815   -1.1412 C   0  0  0  0  0  0  0  0  0  0  0  0
  -93.9723   23.4240   -1.2829 C   0  0  0  0  0  0  0  0  0  0  0  0
  -93.7459   22.6502   -0.1800 C   0  0  0  0  0  0  0  0  0  0  0  0
  -93.6231   21.2835   -0.3207 C   0  0  0  0  0  0  0  0  0  0  0  0
  -93.7266   20.6987   -1.5621 C   0  0  0  0  0  0  0  0  0  0  0  0
  -93.5926   19.3108   -1.6295 O   0  0  0  0  0  0  0  0  0  0  0  0
  -93.9541   21.4792   -2.6716 C   0  0  0  0  0  0  0  0  0  0  0  0
  -94.0762   22.8467   -2.5232 C   0  0  0  0  0  0  0  0  0  0  0  0
  -93.6687   18.8778   -2.5471 H   0  0  0  0  0  0  0  0  0  0  0  0
 28 29  1  0  0  0
 29 30  1  0  0  0
 30 31  1  0  0  0
 31 32  2  0  0  0
 31 34  1  0  0  0
 34 35  1  0  0  0
 34 38  1  0  0  0
 38 39  1  0  0  0
 39 40  2  0  0  0
 40 41  1  0  0  0
 41 42  2  0  0  0
 42 43  1  0  0  0
 42 44  1  0  0  0
 44 45  2  0  0  0
 29  1  1  0  0  0
  1  2  2  0  0  0
  1  3  1  0  0  0
  3  4  1  0  0  0
  4  5  1  0  0  0
  5  6  1  0  0  0
  6  7  1  0  0  0
  7  8  1  0  0  0
  8  9  2  0  0  0
  8 10  1  0  0  0
 10 12  1  0  0  0
 12 17  1  0  0  0
 17 18  1  0  0  0
 18 19  2  0  0  0
 19 20  1  0  0  0
 20 21  1  0  0  0
 21 22  2  0  0  0
 22 23  1  0  0  0
 23 24  2  0  0  0
 24 25  1  0  0  0
 25 26  2  0  0  0
 12 13  1  0  0  0
 13 14  1  0  0  0
 13 15  2  0  0  0
 45 39  1  0  0  0
  7  3  1  0  0  0
 26 18  1  0  0  0
 26 21  1  0  0  0
 30 33  1  0  0  0
 35 36  1  0  0  0
 35 37  1  0  0  0
 43 46  1  0  0  0
 10 11  1  0  0  0
 20 27  1  0  0  0
 14 16  1  0  0  0
M  END
> <minimizedAffinity>
-8.14430

> <CNNscore>
0.1230204105

> <CNNaffinity>
5.8303623199

> <CNN_VS>
0.7172535658

> <CNNaffinity_variance>
0.1630153358

$$$$
[H]OC(=O)[C@@]([H])(N([H])C(=O)[C@@]1([H])N(C(=O)[C@@]([H])(N([H])C(=O)[C@@]([H])(N([H])[H])C([H])([H])c2c([H])c([H])c(O[H])c([H])c2[H])C([H])([H])[H])C([H])([H])C([H])([H])C1([H])[H])C([H])([H])c1c([H])n([H])c2c([H])c([H])c([H])c([H])c12


 46 49  0  0  0  0  0  0  0  0999 V2000
  -88.3169   28.0541    0.3699 C   0  0  0  0  0  0  0  0  0  0  0  0
  -88.4543   29.3122    0.4188 O   0  0  0  0  0  0  0  0  0  0  0  0
  -88.5176   27.3024   -0.7748 N   0  0  0  0  0  0  0  0  0  0  0  0
  -88.3823   25.8489   -0.9145 C   0  0  0  0  0  0  0  0  0  0  0  0
  -89.6078   25.4503   -1.7441 C   0  0  0  0  0  0  0  0  0  0  0  0
  -90.1480   26.8021   -2.2577 C   0  0  0  0  0  0  0  0  0  0  0  0
  -88.9395   27.6602   -2.1481 C   0  0  0  0  0  0  0  0  0  0  0  0
  -89.0463   29.0703   -2.3838 C   0  0  0  0  0  0  0  0  0  0  0  0
  -90.1841   29.5050   -2.7835 O   0  0  0  0  0  0  0  0  0  0  0  0
  -88.0474   30.0461   -2.2308 N   0  0  0  0  0  0  0  0  0  0  0  0
  -87.0977   29.7174   -1.9079 H   0  0  0  0  0  0  0  0  0  0  0  0
  -88.2833   31.4153   -2.4971 C   0  0  0  0  0  0  0  0  0  0  0  0
  -89.4170   31.9577   -1.6551 C   0  0  0  0  0  0  0  0  0  0  0  0
  -90.7007   32.0859   -2.1415 O   0  0  0  0  0  0  0  0  0  0  0  0
  -89.1560   32.2934   -0.4856 O   0  0  0  0  0  0  0  0  0  0  0  0
  -91.0566   32.9838   -2.4991 H   0  0  0  0  0  0  0  0  0  0  0  0
  -88.4523   31.8096   -3.9300 C   0  0  0  0  0  0  0  0  0  0  0  0
  -87.9818   33.1856   -4.1933 C   0  0  0  0  0  0  0  0  0  0  0  0
  -86.8465   33.7588   -3.6342 C   0  0  0  0  0  0  0  0  0  0  0  0
  -86.6994   34.9944   -4.1254 N   0  0  0  0  0  0  0  0  0  0  0  0
  -87.6971   35.2672   -4.9927 C   0  0  0  0  0  0  0  0  0  0  0  0
  -87.9829   36.3892   -5.7364 C   0  0  0  0  0  0  0  0  0  0  0  0
  -89.0825   36.4355   -6.5550 C   0  0  0  0  0  0  0  0  0  0  0  0
  -89.8751   35.3014   -6.5859 C   0  0  0  0  0  0  0  0  0  0  0  0
  -89.6137   34.1660   -5.8536 C   0  0  0  0  0  0  0  0  0  0  0  0
  -88.5037   34.1430   -5.0409 C   0  0  0  0  0  0  0  0  0  0  0  0
  -85.9425   35.6851   -3.8996 H   0  0  0  0  0  0  0  0  0  0  0  0
  -89.1274   27.3587    2.5565 C   0  0  0  0  0  0  0  0  0  0  0  0
  -87.9144   27.4077    1.6489 C   0  0  0  0  0  0  0  0  0  0  0  0
  -86.8853   28.2661    2.2626 N   0  0  0  0  0  0  0  0  0  0  0  0
  -85.5295   27.8728    2.1632 C   0  0  0  0  0  0  0  0  0  0  0  0
  -85.2193   26.8251    1.5700 O   0  0  0  0  0  0  0  0  0  0  0  0
  -87.1665   29.1368    2.7552 H   0  0  0  0  0  0  0  0  0  0  0  0
  -84.5122   28.7776    2.8012 C   0  0  0  0  0  0  0  0  0  0  0  0
  -83.2926   28.8578    2.0619 N   0  0  0  0  0  0  0  0  0  0  0  0
  -82.7494   27.9978    1.9833 H   0  0  0  0  0  0  0  0  0  0  0  0
  -83.3841   29.4123    1.1854 H   0  0  0  0  0  0  0  0  0  0  0  0
  -85.1374   30.1269    2.9447 C   0  0  0  0  0  0  0  0  0  0  0  0
  -84.8079   30.9933    1.8040 C   0  0  0  0  0  0  0  0  0  0  0  0
  -85.7457   31.2359    0.8406 C   0  0  0  0  0  0  0  0  0  0  0  0
  -85.4284   32.0462   -0.2297 C   0  0  0  0  0  0  0  0  0  0  0  0
  -84.1764   32.6084   -0.3310 C   0  0  0  0  0  0  0  0  0  0  0  0
  -83.9258   33.4180   -1.4403 O   0  0  0  0  0  0  0  0  0  0  0  0
  -83.2333   32.3628    0.6396 C   0  0  0  0  0  0  0  0  0  0  0  0
  -83.5580   31.5508    1.7083 C   0  0  0  0  0  0  0  0  0  0  0  0
  -83.0002   33.8337   -1.5160 H   0  0  0  0  0  0  0  0  0  0  0  0
 28 29  1  0  0  0
 29 30  1  0  0  0
 30 31  1  0  0  0
 31 32  2  0  0  0
 31 34  1  0  0  0
 34 35  1  0  0  0
 34 38  1  0  0  0
 38 39  1  0  0  0
 39 40  2  0  0  0
 40 41  1  0  0  0
 41 42  2  0  0  0
 42 43  1  0  0  0
 42 44  1  0  0  0
 44 45  2  0  0  0
 29  1  1  0  0  0
  1  2  2  0  0  0
  1  3  1  0  0  0
  3  4  1  0  0  0
  4  5  1  0  0  0
  5  6  1  0  0  0
  6  7  1  0  0  0
  7  8  1  0  0  0
  8  9  2  0  0  0
  8 10  1  0  0  0
 10 12  1  0  0  0
 12 17  1  0  0  0
 17 18  1  0  0  0
 18 19  2  0  0  0
 19 20  1  0  0  0
 20 21  1  0  0  0
 21 22  2  0  0  0
 22 23  1  0  0  0
 23 24  2  0  0  0
 24 25  1  0  0  0
 25 26  2  0  0  0
 12 13  1  0  0  0
 13 14  1  0  0  0
 13 15  2  0  0  0
 45 39  1  0  0  0
  7  3  1  0  0  0
 26 18  1  0  0  0
 26 21  1  0  0  0
 30 33  1  0  0  0
 35 36  1  0  0  0
 35 37  1  0  0  0
 43 46  1  0  0  0
 10 11  1  0  0  0
 20 27  1  0  0  0
 14 16  1  0  0  0
M  END
> <minimizedAffinity>
-9.70542

> <CNNscore>
0.1211063713

> <CNNaffinity>
6.6467351913

> <CNN_VS>
0.8049619794

> <CNNaffinity_variance>
0.3018174171

$$$$
[H]OC(=O)[C@@]([H])(N([H])C(=O)[C@@]1([H])N(C(=O)[C@@]([H])(N([H])C(=O)[C@@]([H])(N([H])[H])C([H])([H])c2c([H])c([H])c(O[H])c([H])c2[H])C([H])([H])[H])C([H])([H])C([H])([H])C1([H])[H])C([H])([H])c1c([H])n([H])c2c([H])c([H])c([H])c([H])c12


 46 49  0  0  0  0  0  0  0  0999 V2000
  -90.6285   26.9275    1.4819 C   0  0  0  0  0  0  0  0  0  0  0  0
  -91.2252   26.0283    0.8191 O   0  0  0  0  0  0  0  0  0  0  0  0
  -90.1037   26.7299    2.7472 N   0  0  0  0  0  0  0  0  0  0  0  0
  -89.4037   27.7141    3.5790 C   0  0  0  0  0  0  0  0  0  0  0  0
  -90.0000   27.4969    4.9742 C   0  0  0  0  0  0  0  0  0  0  0  0
  -90.7685   26.1656    4.8322 C   0  0  0  0  0  0  0  0  0  0  0  0
  -90.0906   25.5611    3.6559 C   0  0  0  0  0  0  0  0  0  0  0  0
  -90.6122   24.3578    3.0768 C   0  0  0  0  0  0  0  0  0  0  0  0
  -91.7245   23.9258    3.5451 O   0  0  0  0  0  0  0  0  0  0  0  0
  -90.0489   23.5835    2.0489 N   0  0  0  0  0  0  0  0  0  0  0  0
  -89.1296   23.9112    1.6467 H   0  0  0  0  0  0  0  0  0  0  0  0
  -90.6696   22.4088    1.5626 C   0  0  0  0  0  0  0  0  0  0  0  0
  -90.3961   21.2233    2.4615 C   0  0  0  0  0  0  0  0  0  0  0  0
  -89.1320   20.9246    2.9238 O   0  0  0  0  0  0  0  0  0  0  0  0
  -91.3627   20.5073    2.7803 O   0  0  0  0  0  0  0  0  0  0  0  0
  -88.5416   20.2161    2.4653 H   0  0  0  0  0  0  0  0  0  0  0  0
  -90.4258   22.0546    0.1300 C   0  0  0  0  0  0  0  0  0  0  0  0
  -91.3155   22.7931   -0.7904 C   0  0  0  0  0  0  0  0  0  0  0  0
  -92.6390   22.4626   -1.0535 C   0  0  0  0  0  0  0  0  0  0  0  0
  -93.1515   23.3674   -1.8953 N   0  0  0  0  0  0  0  0  0  0  0  0
  -92.2163   24.2905   -2.2044 C   0  0  0  0  0  0  0  0  0  0  0  0
  -92.2563   25.3961   -3.0227 C   0  0  0  0  0  0  0  0  0  0  0  0
  -91.1528   26.1931   -3.1913 C   0  0  0  0  0  0  0  0  0  0  0  0
  -90.0138   25.8219   -2.4983 C   0  0  0  0  0  0  0  0  0  0  0  0
  -89.9451   24.7225   -1.6737 C   0  0  0  0  0  0  0  0  0  0  0  0
  -91.0658   23.9393   -1.5192 C   0  0  0  0  0  0  0  0  0  0  0  0
  -94.1247   23.3963   -2.2862 H   0  0  0  0  0  0  0  0  0  0  0  0
  -91.5892   28.3242   -0.2640 C   0  0  0  0  0  0  0  0  0  0  0  0
  -90.5177   28.2489    0.8055 C   0  0  0  0  0  0  0  0  0  0  0  0
  -89.1909   28.2975    0.1655 N   0  0  0  0  0  0  0  0  0  0  0  0
  -88.6426   29.5612   -0.1590 C   0  0  0  0  0  0  0  0  0  0  0  0
  -89.2710   30.6041    0.0927 O   0  0  0  0  0  0  0  0  0  0  0  0
  -88.6835   27.4138   -0.0377 H   0  0  0  0  0  0  0  0  0  0  0  0
  -87.2867   29.5658   -0.8088 C   0  0  0  0  0  0  0  0  0  0  0  0
  -87.3081   30.0701   -2.1451 N   0  0  0  0  0  0  0  0  0  0  0  0
  -87.8373   29.5284   -2.8287 H   0  0  0  0  0  0  0  0  0  0  0  0
  -87.4433   31.1016   -2.1883 H   0  0  0  0  0  0  0  0  0  0  0  0
  -86.3776   30.3798    0.0530 C   0  0  0  0  0  0  0  0  0  0  0  0
  -85.5050   29.5234    0.8689 C   0  0  0  0  0  0  0  0  0  0  0  0
  -85.9437   28.2947    1.2743 C   0  0  0  0  0  0  0  0  0  0  0  0
  -85.1215   27.4980    2.0437 C   0  0  0  0  0  0  0  0  0  0  0  0
  -83.8668   27.9340    2.4037 C   0  0  0  0  0  0  0  0  0  0  0  0
  -83.0894   27.0751    3.1825 O   0  0  0  0  0  0  0  0  0  0  0  0
  -83.4270   29.1715    1.9952 C   0  0  0  0  0  0  0  0  0  0  0  0
  -84.2553   29.9636    1.2249 C   0  0  0  0  0  0  0  0  0  0  0  0
  -82.1618   27.3969    3.4493 H   0  0  0  0  0  0  0  0  0  0  0  0
 28 29  1  0  0  0
 29 30  1  0  0  0
 30 31  1  0  0  0
 31 32  2  0  0  0
 31 34  1  0  0  0
 34 35  1  0  0  0
 34 38  1  0  0  0
 38 39  1  0  0  0
 39 40  2  0  0  0
 40 41  1  0  0  0
 41 42  2  0  0  0
 42 43  1  0  0  0
 42 44  1  0  0  0
 44 45  2  0  0  0
 29  1  1  0  0  0
  1  2  2  0  0  0
  1  3  1  0  0  0
  3  4  1  0  0  0
  4  5  1  0  0  0
  5  6  1  0  0  0
  6  7  1  0  0  0
  7  8  1  0  0  0
  8  9  2  0  0  0
  8 10  1  0  0  0
 10 12  1  0  0  0
 12 17  1  0  0  0
 17 18  1  0  0  0
 18 19  2  0  0  0
 19 20  1  0  0  0
 20 21  1  0  0  0
 21 22  2  0  0  0
 22 23  1  0  0  0
 23 24  2  0  0  0
 24 25  1  0  0  0
 25 26  2  0  0  0
 12 13  1  0  0  0
 13 14  1  0  0  0
 13 15  2  0  0  0
 45 39  1  0  0  0
  7  3  1  0  0  0
 26 18  1  0  0  0
 26 21  1  0  0  0
 30 33  1  0  0  0
 35 36  1  0  0  0
 35 37  1  0  0  0
 43 46  1  0  0  0
 10 11  1  0  0  0
 20 27  1  0  0  0
 14 16  1  0  0  0
M  END
> <minimizedAffinity>
-9.77954

> <CNNscore>
0.0968265682

> <CNNaffinity>
5.9960875511

> <CNN_VS>
0.5805805922

> <CNNaffinity_variance>
0.6345210075

$$$$
[H]N=C(N([H])[H])N([H])C([H])([H])C([H])([H])C([H])([H])[C@]([H])(C(=O)N([H])[C@]([H])(C(=O)N([H])[C@]([H])(C(=O)N([H])[H])C([H])([H])C([H])([H])C([H])([H])C([H])([H])N([H])[H])C([H])([H])c1c([H])c([H])c([H])c([H])c1[H])N([H])C(=O)[C@@]([H])(N([H])[H])C([H])([H])c1c(C([H])([H])[H])c([H])c(O[H])c([H])c1C([H])([H])[H]


 60 61  0  0  0  0  0  0  0  0999 V2000
  -90.6170   27.7983   -2.5544 C   0  0  0  0  0  0  0  0  0  0  0  0
  -90.0993   27.8505   -1.1878 C   0  0  0  0  0  0  0  0  0  0  0  0
  -90.8505   28.2858   -0.2525 O   0  0  0  0  0  0  0  0  0  0  0  0
  -88.7932   27.4481   -0.8168 N   0  0  0  0  0  0  0  0  0  0  0  0
  -88.1560   27.0907   -1.5551 H   0  0  0  0  0  0  0  0  0  0  0  0
  -88.2610   27.4954    0.5344 C   0  0  0  0  0  0  0  0  0  0  0  0
  -86.9594   28.1648    0.6102 C   0  0  0  0  0  0  0  0  0  0  0  0
  -86.5628   28.7812   -0.4322 O   0  0  0  0  0  0  0  0  0  0  0  0
  -86.1495   28.1722    1.7359 N   0  0  0  0  0  0  0  0  0  0  0  0
  -86.4180   27.6514    2.5906 H   0  0  0  0  0  0  0  0  0  0  0  0
  -84.8723   28.9060    1.8044 C   0  0  0  0  0  0  0  0  0  0  0  0
  -83.8395   28.0066    2.3298 C   0  0  0  0  0  0  0  0  0  0  0  0
  -82.4366   28.2904    2.4034 N   0  0  0  0  0  0  0  0  0  0  0  0
  -84.1893   26.8662    2.7652 O   0  0  0  0  0  0  0  0  0  0  0  0
  -81.9707   28.1408    3.3373 H   0  0  0  0  0  0  0  0  0  0  0  0
  -81.8576   28.6283    1.6144 H   0  0  0  0  0  0  0  0  0  0  0  0
  -85.0409   30.1662    2.5633 C   0  0  0  0  0  0  0  0  0  0  0  0
  -84.5034   31.4092    1.9515 C   0  0  0  0  0  0  0  0  0  0  0  0
  -83.9308   31.1746    0.5618 C   0  0  0  0  0  0  0  0  0  0  0  0
  -82.5179   31.7532    0.4773 C   0  0  0  0  0  0  0  0  0  0  0  0
  -82.5488   33.0630   -0.1417 N   0  0  0  0  0  0  0  0  0  0  0  0
  -81.7133   33.0951   -0.8046 H   0  0  0  0  0  0  0  0  0  0  0  0
  -82.3569   33.7795    0.5696 H   0  0  0  0  0  0  0  0  0  0  0  0
  -88.4816   26.2842    1.3483 C   0  0  0  0  0  0  0  0  0  0  0  0
  -89.0805   26.4626    2.6826 C   0  0  0  0  0  0  0  0  0  0  0  0
  -89.5825   27.7145    3.0379 C   0  0  0  0  0  0  0  0  0  0  0  0
  -90.1112   27.8966    4.2778 C   0  0  0  0  0  0  0  0  0  0  0  0
  -90.1887   26.8925    5.2462 C   0  0  0  0  0  0  0  0  0  0  0  0
  -89.6756   25.6664    4.8409 C   0  0  0  0  0  0  0  0  0  0  0  0
  -89.1405   25.4604    3.6035 C   0  0  0  0  0  0  0  0  0  0  0  0
  -89.6122   29.8454   -3.5673 C   0  0  0  0  0  0  0  0  0  0  0  0
  -88.5234   29.2137   -3.5776 O   0  0  0  0  0  0  0  0  0  0  0  0
  -90.7561   29.1713   -3.0493 N   0  0  0  0  0  0  0  0  0  0  0  0
  -91.6661   29.6716   -3.0354 H   0  0  0  0  0  0  0  0  0  0  0  0
  -89.7421   31.2353   -4.0626 C   0  0  0  0  0  0  0  0  0  0  0  0
  -90.8810   31.2433   -4.9635 N   0  0  0  0  0  0  0  0  0  0  0  0
  -90.9259   32.0602   -5.5802 H   0  0  0  0  0  0  0  0  0  0  0  0
  -91.0930   30.3267   -5.3738 H   0  0  0  0  0  0  0  0  0  0  0  0
  -89.9692   32.1454   -2.8731 C   0  0  0  0  0  0  0  0  0  0  0  0
  -88.3742   34.0803   -4.3112 C   0  0  0  0  0  0  0  0  0  0  0  0
  -87.9495   33.5677   -2.9774 C   0  0  0  0  0  0  0  0  0  0  0  0
  -86.7508   34.0582   -2.4397 C   0  0  0  0  0  0  0  0  0  0  0  0
  -86.3044   33.6218   -1.2144 C   0  0  0  0  0  0  0  0  0  0  0  0
  -85.1062   34.0934   -0.6448 O   0  0  0  0  0  0  0  0  0  0  0  0
  -87.0629   32.6959   -0.5357 C   0  0  0  0  0  0  0  0  0  0  0  0
  -88.2644   32.2085   -1.0833 C   0  0  0  0  0  0  0  0  0  0  0  0
  -89.0059   31.2129   -0.3014 C   0  0  0  0  0  0  0  0  0  0  0  0
  -88.7094   32.6447   -2.3048 C   0  0  0  0  0  0  0  0  0  0  0  0
  -84.2464   33.5931   -0.8486 H   0  0  0  0  0  0  0  0  0  0  0  0
  -91.9431   27.0724   -2.6931 C   0  0  0  0  0  0  0  0  0  0  0  0
  -92.1520   26.5565   -4.0855 C   0  0  0  0  0  0  0  0  0  0  0  0
  -93.2633   27.3027   -4.7761 C   0  0  0  0  0  0  0  0  0  0  0  0
  -92.8099   28.3735   -5.5993 N   0  0  0  0  0  0  0  0  0  0  0  0
  -91.7775   28.4807   -5.7682 H   0  0  0  0  0  0  0  0  0  0  0  0
  -93.7151   29.2857   -6.1826 C   0  0  0  0  0  0  0  0  0  0  0  0
  -95.0134   28.9085   -6.5867 N   0  0  0  0  0  0  0  0  0  0  0  0
  -93.3271   30.5093   -6.3482 N   0  0  0  0  0  0  0  0  0  0  0  0
  -95.8333   29.4040   -6.2031 H   0  0  0  0  0  0  0  0  0  0  0  0
  -95.1391   28.1415   -7.2630 H   0  0  0  0  0  0  0  0  0  0  0  0
  -92.3835   30.8415   -6.0704 H   0  0  0  0  0  0  0  0  0  0  0  0
 40 41  1  0  0  0
 41 42  2  0  0  0
 42 43  1  0  0  0
 43 44  1  0  0  0
 43 45  2  0  0  0
 45 46  1  0  0  0
 46 47  1  0  0  0
 46 48  2  0  0  0
 48 39  1  0  0  0
 39 35  1  0  0  0
 35 36  1  0  0  0
 35 31  1  0  0  0
 31 32  2  0  0  0
 31 33  1  0  0  0
 33  1  1  0  0  0
  1 50  1  0  0  0
 50 51  1  0  0  0
 51 52  1  0  0  0
 52 53  1  0  0  0
 53 55  1  0  0  0
 55 56  1  0  0  0
 55 57  2  0  0  0
  1  2  1  0  0  0
  2  3  2  0  0  0
  2  4  1  0  0  0
  4  6  1  0  0  0
  6 24  1  0  0  0
 24 25  1  0  0  0
 25 26  2  0  0  0
 26 27  1  0  0  0
 27 28  2  0  0  0
 28 29  1  0  0  0
 29 30  2  0  0  0
  6  7  1  0  0  0
  7  8  2  0  0  0
  7  9  1  0  0  0
  9 11  1  0  0  0
 11 17  1  0  0  0
 17 18  1  0  0  0
 18 19  1  0  0  0
 19 20  1  0  0  0
 20 21  1  0  0  0
 11 12  1  0  0  0
 12 13  1  0  0  0
 12 14  2  0  0  0
 48 41  1  0  0  0
 30 25  1  0  0  0
 44 49  1  0  0  0
 36 37  1  0  0  0
 36 38  1  0  0  0
 33 34  1  0  0  0
 53 54  1  0  0  0
 56 58  1  0  0  0
 56 59  1  0  0  0
 57 60  1  0  0  0
  4  5  1  0  0  0
  9 10  1  0  0  0
 21 22  1  0  0  0
 21 23  1  0  0  0
 13 15  1  0  0  0
 13 16  1  0  0  0
M  END
> <minimizedAffinity>
-8.38710

> <CNNscore>
0.5597530603

> <CNNaffinity>
7.8421144485

> <CNN_VS>
4.3896474838

> <CNNaffinity_variance>
0.1104777232

$$$$
[H]N=C(N([H])[H])N([H])C([H])([H])C([H])([H])C([H])([H])[C@]([H])(C(=O)N([H])[C@]([H])(C(=O)N([H])[C@]([H])(C(=O)N([H])[H])C([H])([H])C([H])([H])C([H])([H])C([H])([H])N([H])[H])C([H])([H])c1c([H])c([H])c([H])c([H])c1[H])N([H])C(=O)[C@@]([H])(N([H])[H])C([H])([H])c1c(C([H])([H])[H])c([H])c(O[H])c([H])c1C([H])([H])[H]


 60 61  0  0  0  0  0  0  0  0999 V2000
  -89.2025   30.3232   -1.3908 C   0  0  0  0  0  0  0  0  0  0  0  0
  -89.7986   29.5093   -0.3324 C   0  0  0  0  0  0  0  0  0  0  0  0
  -90.6095   30.0521    0.4901 O   0  0  0  0  0  0  0  0  0  0  0  0
  -89.5334   28.1307   -0.1451 N   0  0  0  0  0  0  0  0  0  0  0  0
  -88.8761   27.6594   -0.7967 H   0  0  0  0  0  0  0  0  0  0  0  0
  -90.1138   27.3071    0.9018 C   0  0  0  0  0  0  0  0  0  0  0  0
  -91.2203   26.4741    0.4227 C   0  0  0  0  0  0  0  0  0  0  0  0
  -92.1863   27.0702   -0.1564 O   0  0  0  0  0  0  0  0  0  0  0  0
  -91.2731   25.0946    0.5545 N   0  0  0  0  0  0  0  0  0  0  0  0
  -90.5264   24.5766    1.0525 H   0  0  0  0  0  0  0  0  0  0  0  0
  -92.3702   24.2747    0.0081 C   0  0  0  0  0  0  0  0  0  0  0  0
  -92.6928   23.2166    0.9714 C   0  0  0  0  0  0  0  0  0  0  0  0
  -93.4774   22.0475    0.7038 N   0  0  0  0  0  0  0  0  0  0  0  0
  -92.2518   23.3181    2.1578 O   0  0  0  0  0  0  0  0  0  0  0  0
  -93.0552   21.1203    0.9753 H   0  0  0  0  0  0  0  0  0  0  0  0
  -94.4164   22.0504    0.2674 H   0  0  0  0  0  0  0  0  0  0  0  0
  -92.0280   23.7931   -1.3496 C   0  0  0  0  0  0  0  0  0  0  0  0
  -92.5993   24.5368   -2.5024 C   0  0  0  0  0  0  0  0  0  0  0  0
  -91.5508   25.3446   -3.2524 C   0  0  0  0  0  0  0  0  0  0  0  0
  -92.0660   26.7631   -3.4988 C   0  0  0  0  0  0  0  0  0  0  0  0
  -91.0648   27.7350   -3.1080 N   0  0  0  0  0  0  0  0  0  0  0  0
  -91.5920   28.5154   -2.6065 H   0  0  0  0  0  0  0  0  0  0  0  0
  -90.6701   28.1732   -3.9497 H   0  0  0  0  0  0  0  0  0  0  0  0
  -90.2344   27.9504    2.2245 C   0  0  0  0  0  0  0  0  0  0  0  0
  -89.9157   27.1334    3.4085 C   0  0  0  0  0  0  0  0  0  0  0  0
  -89.3549   25.8691    3.2281 C   0  0  0  0  0  0  0  0  0  0  0  0
  -89.0839   25.0957    4.3135 C   0  0  0  0  0  0  0  0  0  0  0  0
  -89.3344   25.4879    5.6310 C   0  0  0  0  0  0  0  0  0  0  0  0
  -89.8923   26.7546    5.7542 C   0  0  0  0  0  0  0  0  0  0  0  0
  -90.1729   27.5475    4.6806 C   0  0  0  0  0  0  0  0  0  0  0  0
  -86.8027   30.4126   -0.7133 C   0  0  0  0  0  0  0  0  0  0  0  0
  -86.7227   29.2233   -1.1182 O   0  0  0  0  0  0  0  0  0  0  0  0
  -88.0678   31.0593   -0.8250 N   0  0  0  0  0  0  0  0  0  0  0  0
  -88.1559   32.0422   -0.5015 H   0  0  0  0  0  0  0  0  0  0  0  0
  -85.6527   31.1463   -0.1360 C   0  0  0  0  0  0  0  0  0  0  0  0
  -85.8642   32.5485   -0.4486 N   0  0  0  0  0  0  0  0  0  0  0  0
  -85.0290   33.1338   -0.3499 H   0  0  0  0  0  0  0  0  0  0  0  0
  -86.4600   32.7064   -1.2692 H   0  0  0  0  0  0  0  0  0  0  0  0
  -85.6379   30.9073    1.3598 C   0  0  0  0  0  0  0  0  0  0  0  0
  -82.7843   31.3448    1.2125 C   0  0  0  0  0  0  0  0  0  0  0  0
  -83.3431   30.0459    1.6844 C   0  0  0  0  0  0  0  0  0  0  0  0
  -82.4383   29.0422    2.0592 C   0  0  0  0  0  0  0  0  0  0  0  0
  -82.8923   27.8214    2.5004 C   0  0  0  0  0  0  0  0  0  0  0  0
  -82.0121   26.7919    2.8850 O   0  0  0  0  0  0  0  0  0  0  0  0
  -84.2511   27.6145    2.5630 C   0  0  0  0  0  0  0  0  0  0  0  0
  -85.1520   28.6274    2.1843 C   0  0  0  0  0  0  0  0  0  0  0  0
  -86.5843   28.3206    2.2677 C   0  0  0  0  0  0  0  0  0  0  0  0
  -84.6987   29.8448    1.7451 C   0  0  0  0  0  0  0  0  0  0  0  0
  -81.7035   26.1326    2.1771 H   0  0  0  0  0  0  0  0  0  0  0  0
  -90.1641   31.2987   -2.0456 C   0  0  0  0  0  0  0  0  0  0  0  0
  -89.6516   31.7807   -3.3699 C   0  0  0  0  0  0  0  0  0  0  0  0
  -89.2512   33.2309   -3.2980 C   0  0  0  0  0  0  0  0  0  0  0  0
  -88.2714   33.6037   -4.2628 N   0  0  0  0  0  0  0  0  0  0  0  0
  -88.4255   33.3407   -5.2692 H   0  0  0  0  0  0  0  0  0  0  0  0
  -87.1071   34.3101   -3.8922 C   0  0  0  0  0  0  0  0  0  0  0  0
  -86.0716   33.7182   -3.1382 N   0  0  0  0  0  0  0  0  0  0  0  0
  -86.9986   35.5454   -4.2629 N   0  0  0  0  0  0  0  0  0  0  0  0
  -85.1100   33.7033   -3.5123 H   0  0  0  0  0  0  0  0  0  0  0  0
  -86.2777   33.3040   -2.2177 H   0  0  0  0  0  0  0  0  0  0  0  0
  -87.7295   36.0313   -4.8176 H   0  0  0  0  0  0  0  0  0  0  0  0
 40 41  1  0  0  0
 41 42  2  0  0  0
 42 43  1  0  0  0
 43 44  1  0  0  0
 43 45  2  0  0  0
 45 46  1  0  0  0
 46 47  1  0  0  0
 46 48  2  0  0  0
 48 39  1  0  0  0
 39 35  1  0  0  0
 35 36  1  0  0  0
 35 31  1  0  0  0
 31 32  2  0  0  0
 31 33  1  0  0  0
 33  1  1  0  0  0
  1 50  1  0  0  0
 50 51  1  0  0  0
 51 52  1  0  0  0
 52 53  1  0  0  0
 53 55  1  0  0  0
 55 56  1  0  0  0
 55 57  2  0  0  0
  1  2  1  0  0  0
  2  3  2  0  0  0
  2  4  1  0  0  0
  4  6  1  0  0  0
  6 24  1  0  0  0
 24 25  1  0  0  0
 25 26  2  0  0  0
 26 27  1  0  0  0
 27 28  2  0  0  0
 28 29  1  0  0  0
 29 30  2  0  0  0
  6  7  1  0  0  0
  7  8  2  0  0  0
  7  9  1  0  0  0
  9 11  1  0  0  0
 11 17  1  0  0  0
 17 18  1  0  0  0
 18 19  1  0  0  0
 19 20  1  0  0  0
 20 21  1  0  0  0
 11 12  1  0  0  0
 12 13  1  0  0  0
 12 14  2  0  0  0
 48 41  1  0  0  0
 30 25  1  0  0  0
 44 49  1  0  0  0
 36 37  1  0  0  0
 36 38  1  0  0  0
 33 34  1  0  0  0
 53 54  1  0  0  0
 56 58  1  0  0  0
 56 59  1  0  0  0
 57 60  1  0  0  0
  4  5  1  0  0  0
  9 10  1  0  0  0
 21 22  1  0  0  0
 21 23  1  0  0  0
 13 15  1  0  0  0
 13 16  1  0  0  0
M  END
> <minimizedAffinity>
-8.55077

> <CNNscore>
0.2175345719

> <CNNaffinity>
7.1666650772

> <CNN_VS>
1.5589973927

> <CNNaffinity_variance>
0.2519294620

$$$$
[H]N=C(N([H])[H])N([H])C([H])([H])C([H])([H])C([H])([H])[C@]([H])(C(=O)N([H])[C@]([H])(C(=O)N([H])[C@]([H])(C(=O)N([H])[H])C([H])([H])C([H])([H])C([H])([H])C([H])([H])N([H])[H])C([H])([H])c1c([H])c([H])c([H])c([H])c1[H])N([H])C(=O)[C@@]([H])(N([H])[H])C([H])([H])c1c(C([H])([H])[H])c([H])c(O[H])c([H])c1C([H])([H])[H]


 60 61  0  0  0  0  0  0  0  0999 V2000
  -89.0539   26.9410    0.0125 C   0  0  0  0  0  0  0  0  0  0  0  0
  -89.7035   27.3912   -1.2177 C   0  0  0  0  0  0  0  0  0  0  0  0
  -89.0653   27.3237   -2.3208 O   0  0  0  0  0  0  0  0  0  0  0  0
  -91.0188   27.9131   -1.2769 N   0  0  0  0  0  0  0  0  0  0  0  0
  -91.5645   27.9830   -0.3960 H   0  0  0  0  0  0  0  0  0  0  0  0
  -91.6791   28.3675   -2.4887 C   0  0  0  0  0  0  0  0  0  0  0  0
  -91.3939   29.7709   -2.8001 C   0  0  0  0  0  0  0  0  0  0  0  0
  -92.3336   30.6099   -2.6086 O   0  0  0  0  0  0  0  0  0  0  0  0
  -90.1765   30.2332   -3.2771 N   0  0  0  0  0  0  0  0  0  0  0  0
  -89.3997   29.5786   -3.4821 H   0  0  0  0  0  0  0  0  0  0  0  0
  -89.8972   31.6600   -3.5235 C   0  0  0  0  0  0  0  0  0  0  0  0
  -89.4516   31.8201   -4.9118 C   0  0  0  0  0  0  0  0  0  0  0  0
  -90.0245   32.7070   -5.8810 N   0  0  0  0  0  0  0  0  0  0  0  0
  -88.4725   31.1229   -5.3214 O   0  0  0  0  0  0  0  0  0  0  0  0
  -89.3591   33.3466   -6.3906 H   0  0  0  0  0  0  0  0  0  0  0  0
  -91.0324   32.7628   -6.1113 H   0  0  0  0  0  0  0  0  0  0  0  0
  -88.9578   32.1853   -2.5067 C   0  0  0  0  0  0  0  0  0  0  0  0
  -88.9110   33.6583   -2.3162 C   0  0  0  0  0  0  0  0  0  0  0  0
  -87.5375   34.2411   -2.6130 C   0  0  0  0  0  0  0  0  0  0  0  0
  -87.4187   34.5582   -4.1042 C   0  0  0  0  0  0  0  0  0  0  0  0
  -86.6378   35.7631   -4.2999 N   0  0  0  0  0  0  0  0  0  0  0  0
  -87.1368   36.3165   -5.0636 H   0  0  0  0  0  0  0  0  0  0  0  0
  -85.7242   35.5145   -4.6995 H   0  0  0  0  0  0  0  0  0  0  0  0
  -93.0504   27.8623   -2.6942 C   0  0  0  0  0  0  0  0  0  0  0  0
  -93.4713   27.5844   -4.0786 C   0  0  0  0  0  0  0  0  0  0  0  0
  -94.5126   28.3290   -4.6324 C   0  0  0  0  0  0  0  0  0  0  0  0
  -94.9276   28.0605   -5.8995 C   0  0  0  0  0  0  0  0  0  0  0  0
  -94.3706   27.0653   -6.7067 C   0  0  0  0  0  0  0  0  0  0  0  0
  -93.3378   26.3545   -6.1074 C   0  0  0  0  0  0  0  0  0  0  0  0
  -92.9052   26.6057   -4.8386 C   0  0  0  0  0  0  0  0  0  0  0  0
  -87.5098   28.0069    1.6575 C   0  0  0  0  0  0  0  0  0  0  0  0
  -88.1117   27.3403    2.5397 O   0  0  0  0  0  0  0  0  0  0  0  0
  -87.9428   27.8504    0.3086 N   0  0  0  0  0  0  0  0  0  0  0  0
  -87.4575   28.3870   -0.4364 H   0  0  0  0  0  0  0  0  0  0  0  0
  -86.3928   28.9292    1.9666 C   0  0  0  0  0  0  0  0  0  0  0  0
  -85.8488   28.4990    3.2424 N   0  0  0  0  0  0  0  0  0  0  0  0
  -85.2566   29.1952    3.7054 H   0  0  0  0  0  0  0  0  0  0  0  0
  -86.5158   27.9803    3.8251 H   0  0  0  0  0  0  0  0  0  0  0  0
  -85.3645   28.8196    0.8596 C   0  0  0  0  0  0  0  0  0  0  0  0
  -86.7102   30.8944   -0.6371 C   0  0  0  0  0  0  0  0  0  0  0  0
  -85.3292   31.0928   -0.1123 C   0  0  0  0  0  0  0  0  0  0  0  0
  -84.7038   32.3223   -0.3651 C   0  0  0  0  0  0  0  0  0  0  0  0
  -83.4292   32.5646    0.0906 C   0  0  0  0  0  0  0  0  0  0  0  0
  -82.7719   33.7874   -0.1446 O   0  0  0  0  0  0  0  0  0  0  0  0
  -82.7893   31.5724    0.7971 C   0  0  0  0  0  0  0  0  0  0  0  0
  -83.4243   30.3411    1.0456 C   0  0  0  0  0  0  0  0  0  0  0  0
  -82.6673   29.3318    1.7944 C   0  0  0  0  0  0  0  0  0  0  0  0
  -84.6957   30.1004    0.5915 C   0  0  0  0  0  0  0  0  0  0  0  0
  -82.2117   33.8789   -0.9866 H   0  0  0  0  0  0  0  0  0  0  0  0
  -88.5409   25.5130   -0.0381 C   0  0  0  0  0  0  0  0  0  0  0  0
  -89.6174   24.5230    0.2933 C   0  0  0  0  0  0  0  0  0  0  0  0
  -90.4439   24.9954    1.4604 C   0  0  0  0  0  0  0  0  0  0  0  0
  -89.8440   24.7421    2.7277 N   0  0  0  0  0  0  0  0  0  0  0  0
  -89.0734   25.3761    3.0592 H   0  0  0  0  0  0  0  0  0  0  0  0
  -90.2611   23.6623    3.5351 C   0  0  0  0  0  0  0  0  0  0  0  0
  -89.3469   22.7785    4.1468 N   0  0  0  0  0  0  0  0  0  0  0  0
  -91.5312   23.4870    3.7117 N   0  0  0  0  0  0  0  0  0  0  0  0
  -89.3639   22.6521    5.1708 H   0  0  0  0  0  0  0  0  0  0  0  0
  -88.6666   22.2621    3.5706 H   0  0  0  0  0  0  0  0  0  0  0  0
  -92.2478   24.1056    3.2854 H   0  0  0  0  0  0  0  0  0  0  0  0
 40 41  1  0  0  0
 41 42  2  0  0  0
 42 43  1  0  0  0
 43 44  1  0  0  0
 43 45  2  0  0  0
 45 46  1  0  0  0
 46 47  1  0  0  0
 46 48  2  0  0  0
 48 39  1  0  0  0
 39 35  1  0  0  0
 35 36  1  0  0  0
 35 31  1  0  0  0
 31 32  2  0  0  0
 31 33  1  0  0  0
 33  1  1  0  0  0
  1 50  1  0  0  0
 50 51  1  0  0  0
 51 52  1  0  0  0
 52 53  1  0  0  0
 53 55  1  0  0  0
 55 56  1  0  0  0
 55 57  2  0  0  0
  1  2  1  0  0  0
  2  3  2  0  0  0
  2  4  1  0  0  0
  4  6  1  0  0  0
  6 24  1  0  0  0
 24 25  1  0  0  0
 25 26  2  0  0  0
 26 27  1  0  0  0
 27 28  2  0  0  0
 28 29  1  0  0  0
 29 30  2  0  0  0
  6  7  1  0  0  0
  7  8  2  0  0  0
  7  9  1  0  0  0
  9 11  1  0  0  0
 11 17  1  0  0  0
 17 18  1  0  0  0
 18 19  1  0  0  0
 19 20  1  0  0  0
 20 21  1  0  0  0
 11 12  1  0  0  0
 12 13  1  0  0  0
 12 14  2  0  0  0
 48 41  1  0  0  0
 30 25  1  0  0  0
 44 49  1  0  0  0
 36 37  1  0  0  0
 36 38  1  0  0  0
 33 34  1  0  0  0
 53 54  1  0  0  0
 56 58  1  0  0  0
 56 59  1  0  0  0
 57 60  1  0  0  0
  4  5  1  0  0  0
  9 10  1  0  0  0
 21 22  1  0  0  0
 21 23  1  0  0  0
 13 15  1  0  0  0
 13 16  1  0  0  0
M  END
> <minimizedAffinity>
-8.46437

> <CNNscore>
0.2041666359

> <CNNaffinity>
7.0848417282

> <CNN_VS>
1.4464882612

> <CNNaffinity_variance>
0.2179347277

$$$$
[H]N=C(N([H])[H])N([H])C([H])([H])C([H])([H])C([H])([H])[C@]([H])(C(=O)N([H])[C@]([H])(C(=O)N([H])[C@]([H])(C(=O)N([H])[H])C([H])([H])C([H])([H])C([H])([H])C([H])([H])N([H])[H])C([H])([H])c1c([H])c([H])c([H])c([H])c1[H])N([H])C(=O)[C@@]([H])(N([H])[H])C([H])([H])c1c(C([H])([H])[H])c([H])c(O[H])c([H])c1C([H])([H])[H]


 60 61  0  0  0  0  0  0  0  0999 V2000
  -88.6682   29.7330   -0.2668 C   0  0  0  0  0  0  0  0  0  0  0  0
  -88.9480   29.7797   -1.7013 C   0  0  0  0  0  0  0  0  0  0  0  0
  -88.3626   28.9537   -2.4782 O   0  0  0  0  0  0  0  0  0  0  0  0
  -89.8390   30.6985   -2.3077 N   0  0  0  0  0  0  0  0  0  0  0  0
  -90.3301   31.3855   -1.7031 H   0  0  0  0  0  0  0  0  0  0  0  0
  -90.1271   30.7615   -3.7304 C   0  0  0  0  0  0  0  0  0  0  0  0
  -89.2463   31.6866   -4.4490 C   0  0  0  0  0  0  0  0  0  0  0  0
  -88.5002   31.1909   -5.3552 O   0  0  0  0  0  0  0  0  0  0  0  0
  -89.1838   33.0509   -4.2085 N   0  0  0  0  0  0  0  0  0  0  0  0
  -89.7458   33.4869   -3.4549 H   0  0  0  0  0  0  0  0  0  0  0  0
  -88.3329   33.9682   -4.9890 C   0  0  0  0  0  0  0  0  0  0  0  0
  -87.2809   34.4953   -4.1132 C   0  0  0  0  0  0  0  0  0  0  0  0
  -86.4466   33.7209   -3.2424 N   0  0  0  0  0  0  0  0  0  0  0  0
  -87.0672   35.7469   -4.1032 O   0  0  0  0  0  0  0  0  0  0  0  0
  -85.4066   33.8749   -3.3210 H   0  0  0  0  0  0  0  0  0  0  0  0
  -86.7897   33.0299   -2.5519 H   0  0  0  0  0  0  0  0  0  0  0  0
  -89.1607   35.0004   -5.6537 C   0  0  0  0  0  0  0  0  0  0  0  0
  -90.3001   34.5316   -6.4845 C   0  0  0  0  0  0  0  0  0  0  0  0
  -91.5593   35.3569   -6.2660 C   0  0  0  0  0  0  0  0  0  0  0  0
  -91.8525   35.4713   -4.7696 C   0  0  0  0  0  0  0  0  0  0  0  0
  -92.2742   34.1893   -4.2420 N   0  0  0  0  0  0  0  0  0  0  0  0
  -93.0832   34.3961   -3.5777 H   0  0  0  0  0  0  0  0  0  0  0  0
  -91.5288   33.8045   -3.6483 H   0  0  0  0  0  0  0  0  0  0  0  0
  -91.5572   30.7217   -4.0927 C   0  0  0  0  0  0  0  0  0  0  0  0
  -92.1171   29.4229   -4.5059 C   0  0  0  0  0  0  0  0  0  0  0  0
  -92.0061   28.3322   -3.6436 C   0  0  0  0  0  0  0  0  0  0  0  0
  -92.4941   27.1223   -4.0280 C   0  0  0  0  0  0  0  0  0  0  0  0
  -93.1146   26.8882   -5.2578 C   0  0  0  0  0  0  0  0  0  0  0  0
  -93.1995   28.0070   -6.0776 C   0  0  0  0  0  0  0  0  0  0  0  0
  -92.7171   29.2297   -5.7136 C   0  0  0  0  0  0  0  0  0  0  0  0
  -86.8008   31.3867   -0.2059 C   0  0  0  0  0  0  0  0  0  0  0  0
  -87.6618   32.2559   -0.5023 O   0  0  0  0  0  0  0  0  0  0  0  0
  -87.2498   30.0418   -0.0617 N   0  0  0  0  0  0  0  0  0  0  0  0
  -86.5575   29.3088    0.1871 H   0  0  0  0  0  0  0  0  0  0  0  0
  -85.3681   31.7066   -0.0078 C   0  0  0  0  0  0  0  0  0  0  0  0
  -85.1726   33.0471   -0.5308 N   0  0  0  0  0  0  0  0  0  0  0  0
  -84.1936   33.2936   -0.7056 H   0  0  0  0  0  0  0  0  0  0  0  0
  -85.8648   33.3231   -1.2365 H   0  0  0  0  0  0  0  0  0  0  0  0
  -85.0660   31.6400    1.4751 C   0  0  0  0  0  0  0  0  0  0  0  0
  -86.2888   29.5353    3.0343 C   0  0  0  0  0  0  0  0  0  0  0  0
  -84.8766   29.4307    2.5689 C   0  0  0  0  0  0  0  0  0  0  0  0
  -84.1599   28.2743    2.9090 C   0  0  0  0  0  0  0  0  0  0  0  0
  -82.8525   28.1203    2.5113 C   0  0  0  0  0  0  0  0  0  0  0  0
  -82.1038   26.9724    2.8347 O   0  0  0  0  0  0  0  0  0  0  0  0
  -82.2717   29.1270    1.7750 C   0  0  0  0  0  0  0  0  0  0  0  0
  -82.9983   30.2845    1.4386 C   0  0  0  0  0  0  0  0  0  0  0  0
  -82.3007   31.3162    0.6631 C   0  0  0  0  0  0  0  0  0  0  0  0
  -84.3022   30.4372    1.8349 C   0  0  0  0  0  0  0  0  0  0  0  0
  -81.5713   26.9725    3.6993 H   0  0  0  0  0  0  0  0  0  0  0  0
  -88.9985   28.4054    0.3915 C   0  0  0  0  0  0  0  0  0  0  0  0
  -87.7909   27.5233    0.5016 C   0  0  0  0  0  0  0  0  0  0  0  0
  -88.1659   26.1564    1.0110 C   0  0  0  0  0  0  0  0  0  0  0  0
  -88.2213   25.1606   -0.0066 N   0  0  0  0  0  0  0  0  0  0  0  0
  -87.4558   24.4413   -0.0537 H   0  0  0  0  0  0  0  0  0  0  0  0
  -89.2749   25.1273   -0.9450 C   0  0  0  0  0  0  0  0  0  0  0  0
  -89.2393   25.8639   -2.1480 N   0  0  0  0  0  0  0  0  0  0  0  0
  -90.3058   24.3912   -0.6795 N   0  0  0  0  0  0  0  0  0  0  0  0
  -89.3405   25.3748   -3.0510 H   0  0  0  0  0  0  0  0  0  0  0  0
  -89.1134   26.8861   -2.1218 H   0  0  0  0  0  0  0  0  0  0  0  0
  -90.3856   23.8296    0.1900 H   0  0  0  0  0  0  0  0  0  0  0  0
 40 41  1  0  0  0
 41 42  2  0  0  0
 42 43  1  0  0  0
 43 44  1  0  0  0
 43 45  2  0  0  0
 45 46  1  0  0  0
 46 47  1  0  0  0
 46 48  2  0  0  0
 48 39  1  0  0  0
 39 35  1  0  0  0
 35 36  1  0  0  0
 35 31  1  0  0  0
 31 32  2  0  0  0
 31 33  1  0  0  0
 33  1  1  0  0  0
  1 50  1  0  0  0
 50 51  1  0  0  0
 51 52  1  0  0  0
 52 53  1  0  0  0
 53 55  1  0  0  0
 55 56  1  0  0  0
 55 57  2  0  0  0
  1  2  1  0  0  0
  2  3  2  0  0  0
  2  4  1  0  0  0
  4  6  1  0  0  0
  6 24  1  0  0  0
 24 25  1  0  0  0
 25 26  2  0  0  0
 26 27  1  0  0  0
 27 28  2  0  0  0
 28 29  1  0  0  0
 29 30  2  0  0  0
  6  7  1  0  0  0
  7  8  2  0  0  0
  7  9  1  0  0  0
  9 11  1  0  0  0
 11 17  1  0  0  0
 17 18  1  0  0  0
 18 19  1  0  0  0
 19 20  1  0  0  0
 20 21  1  0  0  0
 11 12  1  0  0  0
 12 13  1  0  0  0
 12 14  2  0  0  0
 48 41  1  0  0  0
 30 25  1  0  0  0
 44 49  1  0  0  0
 36 37  1  0  0  0
 36 38  1  0  0  0
 33 34  1  0  0  0
 53 54  1  0  0  0
 56 58  1  0  0  0
 56 59  1  0  0  0
 57 60  1  0  0  0
  4  5  1  0  0  0
  9 10  1  0  0  0
 21 22  1  0  0  0
 21 23  1  0  0  0
 13 15  1  0  0  0
 13 16  1  0  0  0
M  END
> <minimizedAffinity>
-8.45953

> <CNNscore>
0.1913815141

> <CNNaffinity>
7.2563042641

> <CNN_VS>
1.3887225389

> <CNNaffinity_variance>
0.3756616414

$$$$
[H]N=C(N([H])[H])N([H])C([H])([H])C([H])([H])C([H])([H])[C@]([H])(C(=O)N([H])[C@]([H])(C(=O)N([H])[C@]([H])(C(=O)N([H])[H])C([H])([H])C([H])([H])C([H])([H])C([H])([H])N([H])[H])C([H])([H])c1c([H])c([H])c([H])c([H])c1[H])N([H])C(=O)[C@@]([H])(N([H])[H])C([H])([H])c1c(C([H])([H])[H])c([H])c(O[H])c([H])c1C([H])([H])[H]


 60 61  0  0  0  0  0  0  0  0999 V2000
  -90.4245   28.6313   -2.2803 C   0  0  0  0  0  0  0  0  0  0  0  0
  -89.8480   28.5440   -0.9394 C   0  0  0  0  0  0  0  0  0  0  0  0
  -90.3934   29.1888    0.0173 O   0  0  0  0  0  0  0  0  0  0  0  0
  -88.6988   27.7817   -0.6165 N   0  0  0  0  0  0  0  0  0  0  0  0
  -88.2301   27.2467   -1.3732 H   0  0  0  0  0  0  0  0  0  0  0  0
  -88.1106   27.6853    0.7086 C   0  0  0  0  0  0  0  0  0  0  0  0
  -86.8110   28.3559    0.8043 C   0  0  0  0  0  0  0  0  0  0  0  0
  -86.3864   28.9495   -0.2403 O   0  0  0  0  0  0  0  0  0  0  0  0
  -86.0312   28.3878    1.9507 N   0  0  0  0  0  0  0  0  0  0  0  0
  -86.3227   27.8857    2.8091 H   0  0  0  0  0  0  0  0  0  0  0  0
  -84.7557   29.1226    2.0371 C   0  0  0  0  0  0  0  0  0  0  0  0
  -83.6923   28.1799    2.4006 C   0  0  0  0  0  0  0  0  0  0  0  0
  -82.2835   28.4263    2.3080 N   0  0  0  0  0  0  0  0  0  0  0  0
  -84.0183   27.0339    2.8395 O   0  0  0  0  0  0  0  0  0  0  0  0
  -81.7101   28.2323    3.1712 H   0  0  0  0  0  0  0  0  0  0  0  0
  -81.7969   28.7775    1.4642 H   0  0  0  0  0  0  0  0  0  0  0  0
  -84.8900   30.2851    2.9443 C   0  0  0  0  0  0  0  0  0  0  0  0
  -84.5283   31.6204    2.4018 C   0  0  0  0  0  0  0  0  0  0  0  0
  -83.8551   31.5337    1.0403 C   0  0  0  0  0  0  0  0  0  0  0  0
  -84.6592   32.3295    0.0115 C   0  0  0  0  0  0  0  0  0  0  0  0
  -86.0332   31.8702   -0.0150 N   0  0  0  0  0  0  0  0  0  0  0  0
  -86.3120   31.8347   -1.0443 H   0  0  0  0  0  0  0  0  0  0  0  0
  -86.6389   32.5867    0.4044 H   0  0  0  0  0  0  0  0  0  0  0  0
  -88.2895   26.3895    1.3918 C   0  0  0  0  0  0  0  0  0  0  0  0
  -89.1548   26.3644    2.5842 C   0  0  0  0  0  0  0  0  0  0  0  0
  -89.8431   25.1923    2.8970 C   0  0  0  0  0  0  0  0  0  0  0  0
  -90.6666   25.1679    3.9792 C   0  0  0  0  0  0  0  0  0  0  0  0
  -90.8779   26.2625    4.8215 C   0  0  0  0  0  0  0  0  0  0  0  0
  -90.1686   27.4032    4.4655 C   0  0  0  0  0  0  0  0  0  0  0  0
  -89.3377   27.4512    3.3850 C   0  0  0  0  0  0  0  0  0  0  0  0
  -88.6597   29.9409   -3.4621 C   0  0  0  0  0  0  0  0  0  0  0  0
  -87.9534   28.9006   -3.4004 O   0  0  0  0  0  0  0  0  0  0  0  0
  -89.9679   29.8791   -2.9000 N   0  0  0  0  0  0  0  0  0  0  0  0
  -90.5700   30.7241   -2.9437 H   0  0  0  0  0  0  0  0  0  0  0  0
  -88.1875   31.1998   -4.0835 C   0  0  0  0  0  0  0  0  0  0  0  0
  -88.3646   31.0399   -5.5159 N   0  0  0  0  0  0  0  0  0  0  0  0
  -87.8396   31.7117   -6.0839 H   0  0  0  0  0  0  0  0  0  0  0  0
  -88.3756   30.0618   -5.8268 H   0  0  0  0  0  0  0  0  0  0  0  0
  -89.0260   32.3405   -3.5447 C   0  0  0  0  0  0  0  0  0  0  0  0
  -90.8292   33.4373   -5.5199 C   0  0  0  0  0  0  0  0  0  0  0  0
  -89.5750   34.1478   -5.1403 C   0  0  0  0  0  0  0  0  0  0  0  0
  -89.2993   35.3698   -5.7705 C   0  0  0  0  0  0  0  0  0  0  0  0
  -88.1567   36.0714   -5.4649 C   0  0  0  0  0  0  0  0  0  0  0  0
  -87.8490   37.3011   -6.0779 O   0  0  0  0  0  0  0  0  0  0  0  0
  -87.2974   35.5431   -4.5291 C   0  0  0  0  0  0  0  0  0  0  0  0
  -87.5819   34.3156   -3.9020 C   0  0  0  0  0  0  0  0  0  0  0  0
  -86.6069   33.8159   -2.9261 C   0  0  0  0  0  0  0  0  0  0  0  0
  -88.7217   33.6168   -4.2066 C   0  0  0  0  0  0  0  0  0  0  0  0
  -87.3041   37.2891   -6.9346 H   0  0  0  0  0  0  0  0  0  0  0  0
  -91.9413   28.5739   -2.3135 C   0  0  0  0  0  0  0  0  0  0  0  0
  -92.4386   27.2034   -2.6640 C   0  0  0  0  0  0  0  0  0  0  0  0
  -91.2910   26.2629   -2.9229 C   0  0  0  0  0  0  0  0  0  0  0  0
  -91.2714   25.1305   -2.0585 N   0  0  0  0  0  0  0  0  0  0  0  0
  -92.1847   24.6904   -1.7793 H   0  0  0  0  0  0  0  0  0  0  0  0
  -90.0579   24.5979   -1.5731 C   0  0  0  0  0  0  0  0  0  0  0  0
  -90.0162   23.5449   -0.6348 N   0  0  0  0  0  0  0  0  0  0  0  0
  -88.9504   25.1038   -2.0119 N   0  0  0  0  0  0  0  0  0  0  0  0
  -89.5068   22.6767   -0.8618 H   0  0  0  0  0  0  0  0  0  0  0  0
  -90.4929   23.6456    0.2730 H   0  0  0  0  0  0  0  0  0  0  0  0
  -88.9219   25.8796   -2.7013 H   0  0  0  0  0  0  0  0  0  0  0  0
 40 41  1  0  0  0
 41 42  2  0  0  0
 42 43  1  0  0  0
 43 44  1  0  0  0
 43 45  2  0  0  0
 45 46  1  0  0  0
 46 47  1  0  0  0
 46 48  2  0  0  0
 48 39  1  0  0  0
 39 35  1  0  0  0
 35 36  1  0  0  0
 35 31  1  0  0  0
 31 32  2  0  0  0
 31 33  1  0  0  0
 33  1  1  0  0  0
  1 50  1  0  0  0
 50 51  1  0  0  0
 51 52  1  0  0  0
 52 53  1  0  0  0
 53 55  1  0  0  0
 55 56  1  0  0  0
 55 57  2  0  0  0
  1  2  1  0  0  0
  2  3  2  0  0  0
  2  4  1  0  0  0
  4  6  1  0  0  0
  6 24  1  0  0  0
 24 25  1  0  0  0
 25 26  2  0  0  0
 26 27  1  0  0  0
 27 28  2  0  0  0
 28 29  1  0  0  0
 29 30  2  0  0  0
  6  7  1  0  0  0
  7  8  2  0  0  0
  7  9  1  0  0  0
  9 11  1  0  0  0
 11 17  1  0  0  0
 17 18  1  0  0  0
 18 19  1  0  0  0
 19 20  1  0  0  0
 20 21  1  0  0  0
 11 12  1  0  0  0
 12 13  1  0  0  0
 12 14  2  0  0  0
 48 41  1  0  0  0
 30 25  1  0  0  0
 44 49  1  0  0  0
 36 37  1  0  0  0
 36 38  1  0  0  0
 33 34  1  0  0  0
 53 54  1  0  0  0
 56 58  1  0  0  0
 56 59  1  0  0  0
 57 60  1  0  0  0
  4  5  1  0  0  0
  9 10  1  0  0  0
 21 22  1  0  0  0
 21 23  1  0  0  0
 13 15  1  0  0  0
 13 16  1  0  0  0
M  END
> <minimizedAffinity>
-8.28015

> <CNNscore>
0.1585515887

> <CNNaffinity>
7.1034255028

> <CNN_VS>
1.1262594461

> <CNNaffinity_variance>
0.2398151606

$$$$
[H]N=C(N([H])[H])N([H])C([H])([H])C([H])([H])C([H])([H])[C@]([H])(C(=O)N([H])[C@]([H])(C(=O)N([H])[C@]([H])(C(=O)N([H])[H])C([H])([H])C([H])([H])C([H])([H])C([H])([H])N([H])[H])C([H])([H])c1c([H])c([H])c([H])c([H])c1[H])N([H])C(=O)[C@@]([H])(N([H])[H])C([H])([H])c1c(C([H])([H])[H])c([H])c(O[H])c([H])c1C([H])([H])[H]


 60 61  0  0  0  0  0  0  0  0999 V2000
  -87.1731   29.8447   -0.4971 C   0  0  0  0  0  0  0  0  0  0  0  0
  -88.2204   28.8960   -0.1213 C   0  0  0  0  0  0  0  0  0  0  0  0
  -87.9656   27.6457   -0.1406 O   0  0  0  0  0  0  0  0  0  0  0  0
  -89.5296   29.2706    0.2680 N   0  0  0  0  0  0  0  0  0  0  0  0
  -89.7697   30.2807    0.2923 H   0  0  0  0  0  0  0  0  0  0  0  0
  -90.5833   28.3426    0.6418 C   0  0  0  0  0  0  0  0  0  0  0  0
  -91.5143   28.0666   -0.4558 C   0  0  0  0  0  0  0  0  0  0  0  0
  -92.1648   29.0558   -0.9270 O   0  0  0  0  0  0  0  0  0  0  0  0
  -91.7202   26.8113   -1.0082 N   0  0  0  0  0  0  0  0  0  0  0  0
  -91.2396   25.9753   -0.6287 H   0  0  0  0  0  0  0  0  0  0  0  0
  -92.6177   26.5727   -2.1536 C   0  0  0  0  0  0  0  0  0  0  0  0
  -93.3291   25.3079   -1.9395 C   0  0  0  0  0  0  0  0  0  0  0  0
  -94.5993   24.9531   -2.5005 N   0  0  0  0  0  0  0  0  0  0  0  0
  -92.7969   24.4285   -1.1940 O   0  0  0  0  0  0  0  0  0  0  0  0
  -94.6556   24.0256   -2.9987 H   0  0  0  0  0  0  0  0  0  0  0  0
  -95.4531   25.5368   -2.4519 H   0  0  0  0  0  0  0  0  0  0  0  0
  -91.8639   26.6520   -3.4255 C   0  0  0  0  0  0  0  0  0  0  0  0
  -92.5455   27.2828   -4.5855 C   0  0  0  0  0  0  0  0  0  0  0  0
  -93.4688   28.4190   -4.1719 C   0  0  0  0  0  0  0  0  0  0  0  0
  -92.9715   29.7362   -4.7687 C   0  0  0  0  0  0  0  0  0  0  0  0
  -91.9336   29.4828   -5.7476 N   0  0  0  0  0  0  0  0  0  0  0  0
  -91.1871   30.2276   -5.5847 H   0  0  0  0  0  0  0  0  0  0  0  0
  -92.3014   29.6702   -6.6887 H   0  0  0  0  0  0  0  0  0  0  0  0
  -91.1260   28.5108    2.0039 C   0  0  0  0  0  0  0  0  0  0  0  0
  -90.6249   27.6037    3.0513 C   0  0  0  0  0  0  0  0  0  0  0  0
  -90.3327   26.2810    2.7189 C   0  0  0  0  0  0  0  0  0  0  0  0
  -89.8971   25.4284    3.6849 C   0  0  0  0  0  0  0  0  0  0  0  0
  -89.7173   25.7930    5.0217 C   0  0  0  0  0  0  0  0  0  0  0  0
  -90.0219   27.1202    5.2983 C   0  0  0  0  0  0  0  0  0  0  0  0
  -90.4605   27.9930    4.3464 C   0  0  0  0  0  0  0  0  0  0  0  0
  -88.3115   31.3587   -2.1213 C   0  0  0  0  0  0  0  0  0  0  0  0
  -88.8553   31.8973   -1.1219 O   0  0  0  0  0  0  0  0  0  0  0  0
  -87.4148   30.2783   -1.8766 N   0  0  0  0  0  0  0  0  0  0  0  0
  -86.9510   29.8219   -2.6860 H   0  0  0  0  0  0  0  0  0  0  0  0
  -88.5672   31.7984   -3.5124 C   0  0  0  0  0  0  0  0  0  0  0  0
  -89.3287   30.7352   -4.1436 N   0  0  0  0  0  0  0  0  0  0  0  0
  -89.3450   30.7778   -5.1672 H   0  0  0  0  0  0  0  0  0  0  0  0
  -89.1969   29.8149   -3.7089 H   0  0  0  0  0  0  0  0  0  0  0  0
  -89.3541   33.0921   -3.4658 C   0  0  0  0  0  0  0  0  0  0  0  0
  -86.9967   34.5211   -2.5961 C   0  0  0  0  0  0  0  0  0  0  0  0
  -87.6374   34.8153   -3.9095 C   0  0  0  0  0  0  0  0  0  0  0  0
  -87.0563   35.8068   -4.7131 C   0  0  0  0  0  0  0  0  0  0  0  0
  -87.6026   36.1255   -5.9342 C   0  0  0  0  0  0  0  0  0  0  0  0
  -87.0450   37.1149   -6.7665 O   0  0  0  0  0  0  0  0  0  0  0  0
  -88.7285   35.4478   -6.3420 C   0  0  0  0  0  0  0  0  0  0  0  0
  -89.3053   34.4545   -5.5287 C   0  0  0  0  0  0  0  0  0  0  0  0
  -90.5126   33.7895   -6.0315 C   0  0  0  0  0  0  0  0  0  0  0  0
  -88.7597   34.1367   -4.3114 C   0  0  0  0  0  0  0  0  0  0  0  0
  -87.3685   38.0716   -6.6607 H   0  0  0  0  0  0  0  0  0  0  0  0
  -85.7619   29.2977   -0.3773 C   0  0  0  0  0  0  0  0  0  0  0  0
  -85.1264   29.6788    0.9264 C   0  0  0  0  0  0  0  0  0  0  0  0
  -85.1026   31.1749    1.0979 C   0  0  0  0  0  0  0  0  0  0  0  0
  -84.5872   31.8735   -0.0318 N   0  0  0  0  0  0  0  0  0  0  0  0
  -85.1519   31.8892   -0.9187 H   0  0  0  0  0  0  0  0  0  0  0  0
  -83.3414   32.5348    0.0191 C   0  0  0  0  0  0  0  0  0  0  0  0
  -82.2004   31.9530    0.6111 N   0  0  0  0  0  0  0  0  0  0  0  0
  -83.2568   33.7179   -0.4987 N   0  0  0  0  0  0  0  0  0  0  0  0
  -81.3378   31.8383    0.0563 H   0  0  0  0  0  0  0  0  0  0  0  0
  -82.2309   31.6455    1.5940 H   0  0  0  0  0  0  0  0  0  0  0  0
  -84.0637   34.1940   -0.9460 H   0  0  0  0  0  0  0  0  0  0  0  0
 40 41  1  0  0  0
 41 42  2  0  0  0
 42 43  1  0  0  0
 43 44  1  0  0  0
 43 45  2  0  0  0
 45 46  1  0  0  0
 46 47  1  0  0  0
 46 48  2  0  0  0
 48 39  1  0  0  0
 39 35  1  0  0  0
 35 36  1  0  0  0
 35 31  1  0  0  0
 31 32  2  0  0  0
 31 33  1  0  0  0
 33  1  1  0  0  0
  1 50  1  0  0  0
 50 51  1  0  0  0
 51 52  1  0  0  0
 52 53  1  0  0  0
 53 55  1  0  0  0
 55 56  1  0  0  0
 55 57  2  0  0  0
  1  2  1  0  0  0
  2  3  2  0  0  0
  2  4  1  0  0  0
  4  6  1  0  0  0
  6 24  1  0  0  0
 24 25  1  0  0  0
 25 26  2  0  0  0
 26 27  1  0  0  0
 27 28  2  0  0  0
 28 29  1  0  0  0
 29 30  2  0  0  0
  6  7  1  0  0  0
  7  8  2  0  0  0
  7  9  1  0  0  0
  9 11  1  0  0  0
 11 17  1  0  0  0
 17 18  1  0  0  0
 18 19  1  0  0  0
 19 20  1  0  0  0
 20 21  1  0  0  0
 11 12  1  0  0  0
 12 13  1  0  0  0
 12 14  2  0  0  0
 48 41  1  0  0  0
 30 25  1  0  0  0
 44 49  1  0  0  0
 36 37  1  0  0  0
 36 38  1  0  0  0
 33 34  1  0  0  0
 53 54  1  0  0  0
 56 58  1  0  0  0
 56 59  1  0  0  0
 57 60  1  0  0  0
  4  5  1  0  0  0
  9 10  1  0  0  0
 21 22  1  0  0  0
 21 23  1  0  0  0
 13 15  1  0  0  0
 13 16  1  0  0  0
M  END
> <minimizedAffinity>
-7.57060

> <CNNscore>
0.1420585215

> <CNNaffinity>
6.6246070862

> <CNN_VS>
0.9410818815

> <CNNaffinity_variance>
0.7023806572

$$$$
[H]N=C(N([H])[H])N([H])C([H])([H])C([H])([H])C([H])([H])[C@]([H])(C(=O)N([H])[C@]([H])(C(=O)N([H])[C@]([H])(C(=O)N([H])[H])C([H])([H])C([H])([H])C([H])([H])C([H])([H])N([H])[H])C([H])([H])c1c([H])c([H])c([H])c([H])c1[H])N([H])C(=O)[C@@]([H])(N([H])[H])C([H])([H])c1c(C([H])([H])[H])c([H])c(O[H])c([H])c1C([H])([H])[H]


 60 61  0  0  0  0  0  0  0  0999 V2000
  -88.8461   29.7158   -2.0966 C   0  0  0  0  0  0  0  0  0  0  0  0
  -89.2919   30.6293   -3.1477 C   0  0  0  0  0  0  0  0  0  0  0  0
  -89.0606   30.3363   -4.3681 O   0  0  0  0  0  0  0  0  0  0  0  0
  -89.9743   31.8466   -2.9061 N   0  0  0  0  0  0  0  0  0  0  0  0
  -90.1763   32.1151   -1.9234 H   0  0  0  0  0  0  0  0  0  0  0  0
  -90.4221   32.7674   -3.9370 C   0  0  0  0  0  0  0  0  0  0  0  0
  -91.5337   32.2361   -4.7306 C   0  0  0  0  0  0  0  0  0  0  0  0
  -91.7644   32.7949   -5.8524 O   0  0  0  0  0  0  0  0  0  0  0  0
  -92.3329   31.1719   -4.3409 N   0  0  0  0  0  0  0  0  0  0  0  0
  -92.2026   30.7152   -3.4199 H   0  0  0  0  0  0  0  0  0  0  0  0
  -93.4058   30.6180   -5.1874 C   0  0  0  0  0  0  0  0  0  0  0  0
  -94.6907   31.1635   -4.7368 C   0  0  0  0  0  0  0  0  0  0  0  0
  -95.6179   30.5130   -3.8586 N   0  0  0  0  0  0  0  0  0  0  0  0
  -95.0409   32.3136   -5.1454 O   0  0  0  0  0  0  0  0  0  0  0  0
  -95.9518   31.0673   -3.0262 H   0  0  0  0  0  0  0  0  0  0  0  0
  -95.9767   29.5498   -3.9829 H   0  0  0  0  0  0  0  0  0  0  0  0
  -93.3342   29.1392   -5.2099 C   0  0  0  0  0  0  0  0  0  0  0  0
  -92.4454   28.4831   -4.2161 C   0  0  0  0  0  0  0  0  0  0  0  0
  -93.2198   27.8492   -3.0703 C   0  0  0  0  0  0  0  0  0  0  0  0
  -92.9843   26.3383   -3.0571 C   0  0  0  0  0  0  0  0  0  0  0  0
  -91.6663   26.0319   -3.5755 N   0  0  0  0  0  0  0  0  0  0  0  0
  -91.7879   25.1768   -4.2020 H   0  0  0  0  0  0  0  0  0  0  0  0
  -91.0627   25.7186   -2.8050 H   0  0  0  0  0  0  0  0  0  0  0  0
  -89.3552   33.5174   -4.6278 C   0  0  0  0  0  0  0  0  0  0  0  0
  -89.1684   34.9307   -4.2554 C   0  0  0  0  0  0  0  0  0  0  0  0
  -90.1913   35.8415   -4.5189 C   0  0  0  0  0  0  0  0  0  0  0  0
  -90.0170   37.1534   -4.2052 C   0  0  0  0  0  0  0  0  0  0  0  0
  -88.8552   37.6669   -3.6231 C   0  0  0  0  0  0  0  0  0  0  0  0
  -87.8691   36.7181   -3.3817 C   0  0  0  0  0  0  0  0  0  0  0  0
  -88.0214   35.3979   -3.6879 C   0  0  0  0  0  0  0  0  0  0  0  0
  -87.1512   30.8062   -0.6252 C   0  0  0  0  0  0  0  0  0  0  0  0
  -88.1216   31.1958    0.0757 O   0  0  0  0  0  0  0  0  0  0  0  0
  -87.4483   30.0233   -1.7785 N   0  0  0  0  0  0  0  0  0  0  0  0
  -86.6630   29.6870   -2.3689 H   0  0  0  0  0  0  0  0  0  0  0  0
  -85.7423   31.1278   -0.3005 C   0  0  0  0  0  0  0  0  0  0  0  0
  -85.4938   32.4565   -0.8309 N   0  0  0  0  0  0  0  0  0  0  0  0
  -84.5019   32.6977   -0.9184 H   0  0  0  0  0  0  0  0  0  0  0  0
  -86.1159   32.7186   -1.6040 H   0  0  0  0  0  0  0  0  0  0  0  0
  -85.5806   31.0923    1.2052 C   0  0  0  0  0  0  0  0  0  0  0  0
  -86.6592   28.5942    2.1810 C   0  0  0  0  0  0  0  0  0  0  0  0
  -85.1882   28.8220    2.1026 C   0  0  0  0  0  0  0  0  0  0  0  0
  -84.3425   27.7820    2.5145 C   0  0  0  0  0  0  0  0  0  0  0  0
  -82.9763   27.9325    2.4685 C   0  0  0  0  0  0  0  0  0  0  0  0
  -82.0982   26.9092    2.8737 O   0  0  0  0  0  0  0  0  0  0  0  0
  -82.4666   29.1253    2.0097 C   0  0  0  0  0  0  0  0  0  0  0  0
  -83.3229   30.1640    1.5989 C   0  0  0  0  0  0  0  0  0  0  0  0
  -82.6985   31.4084    1.1360 C   0  0  0  0  0  0  0  0  0  0  0  0
  -84.6851   30.0130    1.6443 C   0  0  0  0  0  0  0  0  0  0  0  0
  -81.8046   26.8832    3.8454 H   0  0  0  0  0  0  0  0  0  0  0  0
  -88.9740   28.2451   -2.4509 C   0  0  0  0  0  0  0  0  0  0  0  0
  -87.9460   27.4116   -1.7457 C   0  0  0  0  0  0  0  0  0  0  0  0
  -88.5912   26.2624   -1.0166 C   0  0  0  0  0  0  0  0  0  0  0  0
  -89.0792   25.2381   -1.8783 N   0  0  0  0  0  0  0  0  0  0  0  0
  -89.0499   25.3939   -2.9178 H   0  0  0  0  0  0  0  0  0  0  0  0
  -89.5995   24.0314   -1.3636 C   0  0  0  0  0  0  0  0  0  0  0  0
  -89.1250   23.4529   -0.1673 N   0  0  0  0  0  0  0  0  0  0  0  0
  -90.5451   23.4437   -2.0236 N   0  0  0  0  0  0  0  0  0  0  0  0
  -89.7824   23.2615    0.6048 H   0  0  0  0  0  0  0  0  0  0  0  0
  -88.1257   23.2228   -0.0682 H   0  0  0  0  0  0  0  0  0  0  0  0
  -90.9315   23.8236   -2.9092 H   0  0  0  0  0  0  0  0  0  0  0  0
 40 41  1  0  0  0
 41 42  2  0  0  0
 42 43  1  0  0  0
 43 44  1  0  0  0
 43 45  2  0  0  0
 45 46  1  0  0  0
 46 47  1  0  0  0
 46 48  2  0  0  0
 48 39  1  0  0  0
 39 35  1  0  0  0
 35 36  1  0  0  0
 35 31  1  0  0  0
 31 32  2  0  0  0
 31 33  1  0  0  0
 33  1  1  0  0  0
  1 50  1  0  0  0
 50 51  1  0  0  0
 51 52  1  0  0  0
 52 53  1  0  0  0
 53 55  1  0  0  0
 55 56  1  0  0  0
 55 57  2  0  0  0
  1  2  1  0  0  0
  2  3  2  0  0  0
  2  4  1  0  0  0
  4  6  1  0  0  0
  6 24  1  0  0  0
 24 25  1  0  0  0
 25 26  2  0  0  0
 26 27  1  0  0  0
 27 28  2  0  0  0
 28 29  1  0  0  0
 29 30  2  0  0  0
  6  7  1  0  0  0
  7  8  2  0  0  0
  7  9  1  0  0  0
  9 11  1  0  0  0
 11 17  1  0  0  0
 17 18  1  0  0  0
 18 19  1  0  0  0
 19 20  1  0  0  0
 20 21  1  0  0  0
 11 12  1  0  0  0
 12 13  1  0  0  0
 12 14  2  0  0  0
 48 41  1  0  0  0
 30 25  1  0  0  0
 44 49  1  0  0  0
 36 37  1  0  0  0
 36 38  1  0  0  0
 33 34  1  0  0  0
 53 54  1  0  0  0
 56 58  1  0  0  0
 56 59  1  0  0  0
 57 60  1  0  0  0
  4  5  1  0  0  0
  9 10  1  0  0  0
 21 22  1  0  0  0
 21 23  1  0  0  0
 13 15  1  0  0  0
 13 16  1  0  0  0
M  END
> <minimizedAffinity>
-7.81477

> <CNNscore>
0.1186294630

> <CNNaffinity>
6.8232231140

> <CNN_VS>
0.8094353080

> <CNNaffinity_variance>
0.4829727113

$$$$
[H]N=C(N([H])[H])N([H])C([H])([H])C([H])([H])C([H])([H])[C@]([H])(C(=O)N([H])[C@]([H])(C(=O)N([H])[C@]([H])(C(=O)N([H])[H])C([H])([H])C([H])([H])C([H])([H])C([H])([H])N([H])[H])C([H])([H])c1c([H])c([H])c([H])c([H])c1[H])N([H])C(=O)[C@@]([H])(N([H])[H])C([H])([H])c1c(C([H])([H])[H])c([H])c(O[H])c([H])c1C([H])([H])[H]


 60 61  0  0  0  0  0  0  0  0999 V2000
  -90.5484   28.4053   -2.3010 C   0  0  0  0  0  0  0  0  0  0  0  0
  -89.9363   28.3985   -0.9731 C   0  0  0  0  0  0  0  0  0  0  0  0
  -90.4882   29.0556   -0.0285 O   0  0  0  0  0  0  0  0  0  0  0  0
  -88.7452   27.7035   -0.6506 N   0  0  0  0  0  0  0  0  0  0  0  0
  -88.2702   27.1605   -1.3978 H   0  0  0  0  0  0  0  0  0  0  0  0
  -88.1213   27.6875    0.6615 C   0  0  0  0  0  0  0  0  0  0  0  0
  -86.8017   28.3249    0.6719 C   0  0  0  0  0  0  0  0  0  0  0  0
  -86.4123   28.8697   -0.4123 O   0  0  0  0  0  0  0  0  0  0  0  0
  -85.9674   28.3751    1.7785 N   0  0  0  0  0  0  0  0  0  0  0  0
  -86.2303   27.9115    2.6672 H   0  0  0  0  0  0  0  0  0  0  0  0
  -84.6705   29.0770    1.7783 C   0  0  0  0  0  0  0  0  0  0  0  0
  -83.6460   28.1744    2.3142 C   0  0  0  0  0  0  0  0  0  0  0  0
  -82.2348   28.4238    2.3356 N   0  0  0  0  0  0  0  0  0  0  0  0
  -84.0116   27.0641    2.8100 O   0  0  0  0  0  0  0  0  0  0  0  0
  -81.7456   28.3031    3.2618 H   0  0  0  0  0  0  0  0  0  0  0  0
  -81.6707   28.7111    1.5163 H   0  0  0  0  0  0  0  0  0  0  0  0
  -84.7850   30.3733    2.4847 C   0  0  0  0  0  0  0  0  0  0  0  0
  -84.0447   31.5292    1.9154 C   0  0  0  0  0  0  0  0  0  0  0  0
  -84.5470   31.9198    0.5335 C   0  0  0  0  0  0  0  0  0  0  0  0
  -83.4747   32.7259   -0.2005 C   0  0  0  0  0  0  0  0  0  0  0  0
  -84.0716   33.4904   -1.2771 N   0  0  0  0  0  0  0  0  0  0  0  0
  -83.4033   33.4050   -2.1045 H   0  0  0  0  0  0  0  0  0  0  0  0
  -84.0676   34.4875   -1.0284 H   0  0  0  0  0  0  0  0  0  0  0  0
  -88.3155   26.4513    1.4437 C   0  0  0  0  0  0  0  0  0  0  0  0
  -88.9521   26.5777    2.7665 C   0  0  0  0  0  0  0  0  0  0  0  0
  -89.0830   25.4426    3.5665 C   0  0  0  0  0  0  0  0  0  0  0  0
  -89.6950   25.5435    4.7769 C   0  0  0  0  0  0  0  0  0  0  0  0
  -90.2160   26.7345    5.2890 C   0  0  0  0  0  0  0  0  0  0  0  0
  -90.0589   27.8334    4.4532 C   0  0  0  0  0  0  0  0  0  0  0  0
  -89.4491   27.7561    3.2356 C   0  0  0  0  0  0  0  0  0  0  0  0
  -89.0094   29.9923   -3.4583 C   0  0  0  0  0  0  0  0  0  0  0  0
  -88.1384   29.0869   -3.3786 O   0  0  0  0  0  0  0  0  0  0  0  0
  -90.2984   29.7110   -2.9192 N   0  0  0  0  0  0  0  0  0  0  0  0
  -91.0340   30.4417   -2.9781 H   0  0  0  0  0  0  0  0  0  0  0  0
  -88.7458   31.3116   -4.0779 C   0  0  0  0  0  0  0  0  0  0  0  0
  -88.8914   31.1264   -5.5108 N   0  0  0  0  0  0  0  0  0  0  0  0
  -88.4808   31.8749   -6.0773 H   0  0  0  0  0  0  0  0  0  0  0  0
  -88.7431   30.1597   -5.8223 H   0  0  0  0  0  0  0  0  0  0  0  0
  -89.7593   32.3010   -3.5406 C   0  0  0  0  0  0  0  0  0  0  0  0
  -87.7334   33.3541   -1.7678 C   0  0  0  0  0  0  0  0  0  0  0  0
  -88.3376   34.1980   -2.8378 C   0  0  0  0  0  0  0  0  0  0  0  0
  -87.8881   35.5207   -2.9596 C   0  0  0  0  0  0  0  0  0  0  0  0
  -88.4090   36.3496   -3.9253 C   0  0  0  0  0  0  0  0  0  0  0  0
  -87.9805   37.6824   -4.0760 O   0  0  0  0  0  0  0  0  0  0  0  0
  -89.3778   35.8469   -4.7631 C   0  0  0  0  0  0  0  0  0  0  0  0
  -89.8235   34.5183   -4.6333 C   0  0  0  0  0  0  0  0  0  0  0  0
  -90.8691   34.0651   -5.5574 C   0  0  0  0  0  0  0  0  0  0  0  0
  -89.3031   33.6920   -3.6705 C   0  0  0  0  0  0  0  0  0  0  0  0
  -88.4674   38.4065   -3.5567 H   0  0  0  0  0  0  0  0  0  0  0  0
  -92.0396   28.1203   -2.3033 C   0  0  0  0  0  0  0  0  0  0  0  0
  -92.4694   27.4156   -3.5552 C   0  0  0  0  0  0  0  0  0  0  0  0
  -93.5291   28.2027   -4.2806 C   0  0  0  0  0  0  0  0  0  0  0  0
  -93.0259   28.9781   -5.3648 N   0  0  0  0  0  0  0  0  0  0  0  0
  -92.6386   28.4809   -6.2065 H   0  0  0  0  0  0  0  0  0  0  0  0
  -93.0355   30.3889   -5.3255 C   0  0  0  0  0  0  0  0  0  0  0  0
  -93.2606   31.1757   -6.4749 N   0  0  0  0  0  0  0  0  0  0  0  0
  -92.8277   30.9692   -4.1875 N   0  0  0  0  0  0  0  0  0  0  0  0
  -94.0342   31.8585   -6.4846 H   0  0  0  0  0  0  0  0  0  0  0  0
  -92.6528   31.0672   -7.2997 H   0  0  0  0  0  0  0  0  0  0  0  0
  -92.6559   30.4404   -3.3107 H   0  0  0  0  0  0  0  0  0  0  0  0
 40 41  1  0  0  0
 41 42  2  0  0  0
 42 43  1  0  0  0
 43 44  1  0  0  0
 43 45  2  0  0  0
 45 46  1  0  0  0
 46 47  1  0  0  0
 46 48  2  0  0  0
 48 39  1  0  0  0
 39 35  1  0  0  0
 35 36  1  0  0  0
 35 31  1  0  0  0
 31 32  2  0  0  0
 31 33  1  0  0  0
 33  1  1  0  0  0
  1 50  1  0  0  0
 50 51  1  0  0  0
 51 52  1  0  0  0
 52 53  1  0  0  0
 53 55  1  0  0  0
 55 56  1  0  0  0
 55 57  2  0  0  0
  1  2  1  0  0  0
  2  3  2  0  0  0
  2  4  1  0  0  0
  4  6  1  0  0  0
  6 24  1  0  0  0
 24 25  1  0  0  0
 25 26  2  0  0  0
 26 27  1  0  0  0
 27 28  2  0  0  0
 28 29  1  0  0  0
 29 30  2  0  0  0
  6  7  1  0  0  0
  7  8  2  0  0  0
  7  9  1  0  0  0
  9 11  1  0  0  0
 11 17  1  0  0  0
 17 18  1  0  0  0
 18 19  1  0  0  0
 19 20  1  0  0  0
 20 21  1  0  0  0
 11 12  1  0  0  0
 12 13  1  0  0  0
 12 14  2  0  0  0
 48 41  1  0  0  0
 30 25  1  0  0  0
 44 49  1  0  0  0
 36 37  1  0  0  0
 36 38  1  0  0  0
 33 34  1  0  0  0
 53 54  1  0  0  0
 56 58  1  0  0  0
 56 59  1  0  0  0
 57 60  1  0  0  0
  4  5  1  0  0  0
  9 10  1  0  0  0
 21 22  1  0  0  0
 21 23  1  0  0  0
 13 15  1  0  0  0
 13 16  1  0  0  0
M  END
> <minimizedAffinity>
-8.35753

> <CNNscore>
0.0992669240

> <CNNaffinity>
7.1199555397

> <CNN_VS>
0.7067760825

> <CNNaffinity_variance>
0.1078121811

$$$$
[H]N=C(N([H])[H])N([H])C([H])([H])C([H])([H])C([H])([H])[C@]([H])(C(=O)N([H])[C@]([H])(C(=O)N([H])[C@]([H])(C(=O)N([H])[H])C([H])([H])C([H])([H])C([H])([H])C([H])([H])N([H])[H])C([H])([H])c1c([H])c([H])c([H])c([H])c1[H])N([H])C(=O)[C@@]([H])(N([H])[H])C([H])([H])c1c(C([H])([H])[H])c([H])c(O[H])c([H])c1C([H])([H])[H]


 60 61  0  0  0  0  0  0  0  0999 V2000
  -90.4488   29.1913   -3.0748 C   0  0  0  0  0  0  0  0  0  0  0  0
  -90.1683   27.8887   -2.4725 C   0  0  0  0  0  0  0  0  0  0  0  0
  -89.7995   26.9223   -3.2200 O   0  0  0  0  0  0  0  0  0  0  0  0
  -90.2823   27.6119   -1.0883 N   0  0  0  0  0  0  0  0  0  0  0  0
  -90.5822   28.3767   -0.4528 H   0  0  0  0  0  0  0  0  0  0  0  0
  -90.0106   26.3241   -0.4728 C   0  0  0  0  0  0  0  0  0  0  0  0
  -91.1991   25.4704   -0.3912 C   0  0  0  0  0  0  0  0  0  0  0  0
  -92.3284   26.0550   -0.3095 O   0  0  0  0  0  0  0  0  0  0  0  0
  -91.1672   24.0841   -0.4046 N   0  0  0  0  0  0  0  0  0  0  0  0
  -90.2674   23.5707   -0.4315 H   0  0  0  0  0  0  0  0  0  0  0  0
  -92.3831   23.2501   -0.3833 C   0  0  0  0  0  0  0  0  0  0  0  0
  -92.4575   22.5580    0.9078 C   0  0  0  0  0  0  0  0  0  0  0  0
  -92.5502   21.1403    1.0969 N   0  0  0  0  0  0  0  0  0  0  0  0
  -92.4411   23.2506    1.9719 O   0  0  0  0  0  0  0  0  0  0  0  0
  -91.8562   20.7037    1.7597 H   0  0  0  0  0  0  0  0  0  0  0  0
  -93.2411   20.5240    0.6334 H   0  0  0  0  0  0  0  0  0  0  0  0
  -92.4197   22.3604   -1.5663 C   0  0  0  0  0  0  0  0  0  0  0  0
  -92.7688   22.9755   -2.8732 C   0  0  0  0  0  0  0  0  0  0  0  0
  -93.7686   22.1425   -3.6611 C   0  0  0  0  0  0  0  0  0  0  0  0
  -94.3000   21.0053   -2.7878 C   0  0  0  0  0  0  0  0  0  0  0  0
  -95.5304   20.4792   -3.3439 N   0  0  0  0  0  0  0  0  0  0  0  0
  -96.1823   20.3169   -2.5150 H   0  0  0  0  0  0  0  0  0  0  0  0
  -95.3540   19.5457   -3.7358 H   0  0  0  0  0  0  0  0  0  0  0  0
  -89.0782   26.3491    0.6708 C   0  0  0  0  0  0  0  0  0  0  0  0
  -89.6584   26.4999    2.0168 C   0  0  0  0  0  0  0  0  0  0  0  0
  -89.7000   25.3929    2.8644 C   0  0  0  0  0  0  0  0  0  0  0  0
  -90.2597   25.5148    4.0980 C   0  0  0  0  0  0  0  0  0  0  0  0
  -90.8108   26.7011    4.5891 C   0  0  0  0  0  0  0  0  0  0  0  0
  -90.7430   27.7716    3.7058 C   0  0  0  0  0  0  0  0  0  0  0  0
  -90.1870   27.6730    2.4643 C   0  0  0  0  0  0  0  0  0  0  0  0
  -88.4271   30.6537   -3.0876 C   0  0  0  0  0  0  0  0  0  0  0  0
  -88.1769   30.1688   -4.2221 O   0  0  0  0  0  0  0  0  0  0  0  0
  -89.6014   30.1945   -2.4231 N   0  0  0  0  0  0  0  0  0  0  0  0
  -89.8301   30.5843   -1.4881 H   0  0  0  0  0  0  0  0  0  0  0  0
  -87.5611   31.6616   -2.4333 C   0  0  0  0  0  0  0  0  0  0  0  0
  -88.0593   32.9604   -2.8497 N   0  0  0  0  0  0  0  0  0  0  0  0
  -87.4044   33.7332   -2.6958 H   0  0  0  0  0  0  0  0  0  0  0  0
  -88.5729   32.9434   -3.7382 H   0  0  0  0  0  0  0  0  0  0  0  0
  -87.6696   31.4807   -0.9332 C   0  0  0  0  0  0  0  0  0  0  0  0
  -86.9002   28.7566   -0.3473 C   0  0  0  0  0  0  0  0  0  0  0  0
  -85.9944   29.8988   -0.0361 C   0  0  0  0  0  0  0  0  0  0  0  0
  -84.7528   29.6085    0.5476 C   0  0  0  0  0  0  0  0  0  0  0  0
  -83.8744   30.6194    0.8605 C   0  0  0  0  0  0  0  0  0  0  0  0
  -82.6199   30.3638    1.4465 O   0  0  0  0  0  0  0  0  0  0  0  0
  -84.2467   31.9152    0.5862 C   0  0  0  0  0  0  0  0  0  0  0  0
  -85.4951   32.1974    0.0008 C   0  0  0  0  0  0  0  0  0  0  0  0
  -85.8203   33.6066   -0.2461 C   0  0  0  0  0  0  0  0  0  0  0  0
  -86.3702   31.1889   -0.3117 C   0  0  0  0  0  0  0  0  0  0  0  0
  -82.5567   30.3439    2.4598 H   0  0  0  0  0  0  0  0  0  0  0  0
  -91.9024   29.6206   -2.9865 C   0  0  0  0  0  0  0  0  0  0  0  0
  -92.0377   31.1115   -2.8988 C   0  0  0  0  0  0  0  0  0  0  0  0
  -92.7273   31.6633   -4.1188 C   0  0  0  0  0  0  0  0  0  0  0  0
  -91.8425   31.9444   -5.1996 N   0  0  0  0  0  0  0  0  0  0  0  0
  -92.0156   31.4840   -6.1290 H   0  0  0  0  0  0  0  0  0  0  0  0
  -90.7464   32.8195   -5.0429 C   0  0  0  0  0  0  0  0  0  0  0  0
  -89.4985   32.5859   -5.6588 N   0  0  0  0  0  0  0  0  0  0  0  0
  -90.9048   33.8700   -4.3038 N   0  0  0  0  0  0  0  0  0  0  0  0
  -89.0943   33.3005   -6.2840 H   0  0  0  0  0  0  0  0  0  0  0  0
  -88.9948   31.7047   -5.4824 H   0  0  0  0  0  0  0  0  0  0  0  0
  -91.7999   34.0908   -3.8264 H   0  0  0  0  0  0  0  0  0  0  0  0
 40 41  1  0  0  0
 41 42  2  0  0  0
 42 43  1  0  0  0
 43 44  1  0  0  0
 43 45  2  0  0  0
 45 46  1  0  0  0
 46 47  1  0  0  0
 46 48  2  0  0  0
 48 39  1  0  0  0
 39 35  1  0  0  0
 35 36  1  0  0  0
 35 31  1  0  0  0
 31 32  2  0  0  0
 31 33  1  0  0  0
 33  1  1  0  0  0
  1 50  1  0  0  0
 50 51  1  0  0  0
 51 52  1  0  0  0
 52 53  1  0  0  0
 53 55  1  0  0  0
 55 56  1  0  0  0
 55 57  2  0  0  0
  1  2  1  0  0  0
  2  3  2  0  0  0
  2  4  1  0  0  0
  4  6  1  0  0  0
  6 24  1  0  0  0
 24 25  1  0  0  0
 25 26  2  0  0  0
 26 27  1  0  0  0
 27 28  2  0  0  0
 28 29  1  0  0  0
 29 30  2  0  0  0
  6  7  1  0  0  0
  7  8  2  0  0  0
  7  9  1  0  0  0
  9 11  1  0  0  0
 11 17  1  0  0  0
 17 18  1  0  0  0
 18 19  1  0  0  0
 19 20  1  0  0  0
 20 21  1  0  0  0
 11 12  1  0  0  0
 12 13  1  0  0  0
 12 14  2  0  0  0
 48 41  1  0  0  0
 30 25  1  0  0  0
 44 49  1  0  0  0
 36 37  1  0  0  0
 36 38  1  0  0  0
 33 34  1  0  0  0
 53 54  1  0  0  0
 56 58  1  0  0  0
 56 59  1  0  0  0
 57 60  1  0  0  0
  4  5  1  0  0  0
  9 10  1  0  0  0
 21 22  1  0  0  0
 21 23  1  0  0  0
 13 15  1  0  0  0
 13 16  1  0  0  0
M  END
> <minimizedAffinity>
-7.47193

> <CNNscore>
0.0958931595

> <CNNaffinity>
6.5027170181

> <CNN_VS>
0.6235660911

> <CNNaffinity_variance>
0.5529406071

$$$$
[H]OC(=O)c1nc(C(=O)O[H])c2c([H])c(O[H])c(O[H])c([H])c2c1[H]


 22 23  0  0  0  0  0  0  0  0999 V2000
  -84.3606   31.8820   -0.0399 C   0  0  0  0  0  0  0  0  0  0  0  0
  -83.6289   31.0547    0.7953 C   0  0  0  0  0  0  0  0  0  0  0  0
  -84.1907   29.8819    1.1915 C   0  0  0  0  0  0  0  0  0  0  0  0
  -83.5141   29.0300    2.0137 C   0  0  0  0  0  0  0  0  0  0  0  0
  -84.0404   27.8200    2.4487 C   0  0  0  0  0  0  0  0  0  0  0  0
  -83.3207   27.0070    3.2698 O   0  0  0  0  0  0  0  0  0  0  0  0
  -85.2926   27.5114    2.0090 C   0  0  0  0  0  0  0  0  0  0  0  0
  -85.9025   26.3106    2.3976 O   0  0  0  0  0  0  0  0  0  0  0  0
  -86.0215   28.3382    1.1755 C   0  0  0  0  0  0  0  0  0  0  0  0
  -85.4851   29.5301    0.7558 C   0  0  0  0  0  0  0  0  0  0  0  0
  -86.2012   30.3616   -0.0740 C   0  0  0  0  0  0  0  0  0  0  0  0
  -85.5863   31.5350   -0.4444 N   0  0  0  0  0  0  0  0  0  0  0  0
  -83.5819   26.1215    3.6493 H   0  0  0  0  0  0  0  0  0  0  0  0
  -85.4102   25.6823    3.0008 H   0  0  0  0  0  0  0  0  0  0  0  0
  -82.4321   33.3801   -0.1994 O   0  0  0  0  0  0  0  0  0  0  0  0
  -83.7454   33.1380   -0.4575 C   0  0  0  0  0  0  0  0  0  0  0  0
  -84.4601   33.9793   -1.0565 O   0  0  0  0  0  0  0  0  0  0  0  0
  -82.1036   34.3182   -0.0119 H   0  0  0  0  0  0  0  0  0  0  0  0
  -87.5239   30.0687   -0.5576 C   0  0  0  0  0  0  0  0  0  0  0  0
  -87.5771   29.3905   -1.8083 O   0  0  0  0  0  0  0  0  0  0  0  0
  -88.6358   30.2969   -0.0883 O   0  0  0  0  0  0  0  0  0  0  0  0
  -87.0052   28.5562   -1.8421 H   0  0  0  0  0  0  0  0  0  0  0  0
 15 16  1  0  0  0
 16 17  2  0  0  0
 16  1  1  0  0  0
  1  2  2  0  0  0
  2  3  1  0  0  0
  3  4  2  0  0  0
  4  5  1  0  0  0
  5  6  1  0  0  0
  5  7  2  0  0  0
  7  8  1  0  0  0
  7  9  1  0  0  0
  9 10  2  0  0  0
 10 11  1  0  0  0
 11 12  2  0  0  0
 11 19  1  0  0  0
 19 20  1  0  0  0
 19 21  2  0  0  0
 12  1  1  0  0  0
 10  3  1  0  0  0
 15 18  1  0  0  0
  6 13  1  0  0  0
  8 14  1  0  0  0
 20 22  1  0  0  0
M  END
> <minimizedAffinity>
-8.07564

> <CNNscore>
0.8231711388

> <CNNaffinity>
5.0449628830

> <CNN_VS>
4.1528677940

> <CNNaffinity_variance>
0.1390798092

$$$$
[H]OC(=O)c1nc(C(=O)O[H])c2c([H])c(O[H])c(O[H])c([H])c2c1[H]


 22 23  0  0  0  0  0  0  0  0999 V2000
  -85.6343   28.5176    1.3169 C   0  0  0  0  0  0  0  0  0  0  0  0
  -84.5846   29.4161    1.2277 C   0  0  0  0  0  0  0  0  0  0  0  0
  -84.7864   30.5749    0.5461 C   0  0  0  0  0  0  0  0  0  0  0  0
  -83.7866   31.4946    0.4277 C   0  0  0  0  0  0  0  0  0  0  0  0
  -83.9385   32.6940   -0.2571 C   0  0  0  0  0  0  0  0  0  0  0  0
  -82.9062   33.5771   -0.3445 O   0  0  0  0  0  0  0  0  0  0  0  0
  -85.1588   32.9194   -0.8200 C   0  0  0  0  0  0  0  0  0  0  0  0
  -85.4021   34.1034   -1.5300 O   0  0  0  0  0  0  0  0  0  0  0  0
  -86.2053   32.0215   -0.7301 C   0  0  0  0  0  0  0  0  0  0  0  0
  -86.0368   30.8414   -0.0494 C   0  0  0  0  0  0  0  0  0  0  0  0
  -87.0713   29.9397    0.0469 C   0  0  0  0  0  0  0  0  0  0  0  0
  -86.8136   28.7842    0.7472 N   0  0  0  0  0  0  0  0  0  0  0  0
  -82.8864   34.4637   -0.8026 H   0  0  0  0  0  0  0  0  0  0  0  0
  -84.6717   34.7812   -1.6197 H   0  0  0  0  0  0  0  0  0  0  0  0
  -86.4242   26.4037    2.2637 O   0  0  0  0  0  0  0  0  0  0  0  0
  -85.4038   27.2776    2.0515 C   0  0  0  0  0  0  0  0  0  0  0  0
  -84.2450   27.0458    2.4770 O   0  0  0  0  0  0  0  0  0  0  0  0
  -86.4637   25.8455    3.1062 H   0  0  0  0  0  0  0  0  0  0  0  0
  -88.3714   30.1440   -0.5339 C   0  0  0  0  0  0  0  0  0  0  0  0
  -88.5476   29.5971   -1.8366 O   0  0  0  0  0  0  0  0  0  0  0  0
  -89.3762   30.7107   -0.1120 O   0  0  0  0  0  0  0  0  0  0  0  0
  -88.2889   28.6211   -1.9053 H   0  0  0  0  0  0  0  0  0  0  0  0
 15 16  1  0  0  0
 16 17  2  0  0  0
 16  1  1  0  0  0
  1  2  2  0  0  0
  2  3  1  0  0  0
  3  4  2  0  0  0
  4  5  1  0  0  0
  5  6  1  0  0  0
  5  7  2  0  0  0
  7  8  1  0  0  0
  7  9  1  0  0  0
  9 10  2  0  0  0
 10 11  1  0  0  0
 11 12  2  0  0  0
 11 19  1  0  0  0
 19 20  1  0  0  0
 19 21  2  0  0  0
 12  1  1  0  0  0
 10  3  1  0  0  0
 15 18  1  0  0  0
  6 13  1  0  0  0
  8 14  1  0  0  0
 20 22  1  0  0  0
M  END
> <minimizedAffinity>
-7.43694

> <CNNscore>
0.7980068922

> <CNNaffinity>
4.9520497322

> <CNN_VS>
3.9517698288

> <CNNaffinity_variance>
0.1183274016

$$$$
[H]OC(=O)c1nc(C(=O)O[H])c2c([H])c(O[H])c(O[H])c([H])c2c1[H]


 22 23  0  0  0  0  0  0  0  0999 V2000
  -86.8054   28.0353    1.2433 C   0  0  0  0  0  0  0  0  0  0  0  0
  -86.9822   29.2617    0.6253 C   0  0  0  0  0  0  0  0  0  0  0  0
  -85.9304   30.1223    0.5921 C   0  0  0  0  0  0  0  0  0  0  0  0
  -86.0499   31.3430   -0.0038 C   0  0  0  0  0  0  0  0  0  0  0  0
  -85.0082   32.2603   -0.0661 C   0  0  0  0  0  0  0  0  0  0  0  0
  -85.1825   33.4659   -0.6738 O   0  0  0  0  0  0  0  0  0  0  0  0
  -83.8321   31.8806    0.5075 C   0  0  0  0  0  0  0  0  0  0  0  0
  -82.7269   32.7429    0.4919 O   0  0  0  0  0  0  0  0  0  0  0  0
  -83.6573   30.6562    1.1240 C   0  0  0  0  0  0  0  0  0  0  0  0
  -84.6980   29.7625    1.1759 C   0  0  0  0  0  0  0  0  0  0  0  0
  -84.5361   28.5406    1.7869 C   0  0  0  0  0  0  0  0  0  0  0  0
  -85.6314   27.7084    1.7921 N   0  0  0  0  0  0  0  0  0  0  0  0
  -84.5211   34.2052   -0.7847 H   0  0  0  0  0  0  0  0  0  0  0  0
  -82.8096   33.6395    0.0559 H   0  0  0  0  0  0  0  0  0  0  0  0
  -87.8696   25.9531    1.9650 O   0  0  0  0  0  0  0  0  0  0  0  0
  -87.9428   27.1210    1.2717 C   0  0  0  0  0  0  0  0  0  0  0  0
  -88.9804   27.4439    0.6420 O   0  0  0  0  0  0  0  0  0  0  0  0
  -88.3587   25.1275    1.6453 H   0  0  0  0  0  0  0  0  0  0  0  0
  -83.3104   28.1063    2.4020 C   0  0  0  0  0  0  0  0  0  0  0  0
  -83.4308   26.9847    3.2707 O   0  0  0  0  0  0  0  0  0  0  0  0
  -82.1594   28.5269    2.3188 O   0  0  0  0  0  0  0  0  0  0  0  0
  -83.9042   26.1950    2.8505 H   0  0  0  0  0  0  0  0  0  0  0  0
 15 16  1  0  0  0
 16 17  2  0  0  0
 16  1  1  0  0  0
  1  2  2  0  0  0
  2  3  1  0  0  0
  3  4  2  0  0  0
  4  5  1  0  0  0
  5  6  1  0  0  0
  5  7  2  0  0  0
  7  8  1  0  0  0
  7  9  1  0  0  0
  9 10  2  0  0  0
 10 11  1  0  0  0
 11 12  2  0  0  0
 11 19  1  0  0  0
 19 20  1  0  0  0
 19 21  2  0  0  0
 12  1  1  0  0  0
 10  3  1  0  0  0
 15 18  1  0  0  0
  6 13  1  0  0  0
  8 14  1  0  0  0
 20 22  1  0  0  0
M  END
> <minimizedAffinity>
-8.17141

> <CNNscore>
0.6659159660

> <CNNaffinity>
4.9689011574

> <CNN_VS>
3.3088705540

> <CNNaffinity_variance>
0.0940039605

$$$$
[H]OC(=O)c1nc(C(=O)O[H])c2c([H])c(O[H])c(O[H])c([H])c2c1[H]


 22 23  0  0  0  0  0  0  0  0999 V2000
  -87.8298   29.4835    0.2138 C   0  0  0  0  0  0  0  0  0  0  0  0
  -87.3244   30.6528   -0.3290 C   0  0  0  0  0  0  0  0  0  0  0  0
  -86.0477   31.0047   -0.0221 C   0  0  0  0  0  0  0  0  0  0  0  0
  -85.5004   32.1461   -0.5294 C   0  0  0  0  0  0  0  0  0  0  0  0
  -84.2019   32.5527   -0.2486 C   0  0  0  0  0  0  0  0  0  0  0  0
  -83.7055   33.7024   -0.7825 O   0  0  0  0  0  0  0  0  0  0  0  0
  -83.4790   31.7437    0.5757 C   0  0  0  0  0  0  0  0  0  0  0  0
  -82.1596   32.0757    0.9133 O   0  0  0  0  0  0  0  0  0  0  0  0
  -83.9849   30.5770    1.1166 C   0  0  0  0  0  0  0  0  0  0  0  0
  -85.2702   30.1911    0.8280 C   0  0  0  0  0  0  0  0  0  0  0  0
  -85.7849   29.0318    1.3606 C   0  0  0  0  0  0  0  0  0  0  0  0
  -87.0808   28.7228    1.0180 N   0  0  0  0  0  0  0  0  0  0  0  0
  -82.7986   34.1012   -0.6604 H   0  0  0  0  0  0  0  0  0  0  0  0
  -81.7536   32.9121    0.5437 H   0  0  0  0  0  0  0  0  0  0  0  0
  -90.2471   29.8247    0.3835 O   0  0  0  0  0  0  0  0  0  0  0  0
  -89.2018   29.1178   -0.1239 C   0  0  0  0  0  0  0  0  0  0  0  0
  -89.3843   28.1396   -0.8903 O   0  0  0  0  0  0  0  0  0  0  0  0
  -91.1273   29.3725    0.5934 H   0  0  0  0  0  0  0  0  0  0  0  0
  -85.0518   28.1541    2.2332 C   0  0  0  0  0  0  0  0  0  0  0  0
  -84.6939   28.7107    3.4939 O   0  0  0  0  0  0  0  0  0  0  0  0
  -84.6689   26.9953    2.0948 O   0  0  0  0  0  0  0  0  0  0  0  0
  -85.4736   29.1202    3.9927 H   0  0  0  0  0  0  0  0  0  0  0  0
 15 16  1  0  0  0
 16 17  2  0  0  0
 16  1  1  0  0  0
  1  2  2  0  0  0
  2  3  1  0  0  0
  3  4  2  0  0  0
  4  5  1  0  0  0
  5  6  1  0  0  0
  5  7  2  0  0  0
  7  8  1  0  0  0
  7  9  1  0  0  0
  9 10  2  0  0  0
 10 11  1  0  0  0
 11 12  2  0  0  0
 11 19  1  0  0  0
 19 20  1  0  0  0
 19 21  2  0  0  0
 12  1  1  0  0  0
 10  3  1  0  0  0
 15 18  1  0  0  0
  6 13  1  0  0  0
  8 14  1  0  0  0
 20 22  1  0  0  0
M  END
> <minimizedAffinity>
-7.26461

> <CNNscore>
0.6306489110

> <CNNaffinity>
4.7951765060

> <CNN_VS>
3.0240728855

> <CNNaffinity_variance>
0.1171985865

$$$$
[H]OC(=O)c1nc(C(=O)O[H])c2c([H])c(O[H])c(O[H])c([H])c2c1[H]


 22 23  0  0  0  0  0  0  0  0999 V2000
  -86.6096   31.7863   -0.5015 C   0  0  0  0  0  0  0  0  0  0  0  0
  -86.9887   30.5460   -0.0164 C   0  0  0  0  0  0  0  0  0  0  0  0
  -86.0623   29.8048    0.6472 C   0  0  0  0  0  0  0  0  0  0  0  0
  -86.3823   28.5764    1.1454 C   0  0  0  0  0  0  0  0  0  0  0  0
  -85.4753   27.7777    1.8308 C   0  0  0  0  0  0  0  0  0  0  0  0
  -85.8484   26.5584    2.3075 O   0  0  0  0  0  0  0  0  0  0  0  0
  -84.2206   28.2850    1.9888 C   0  0  0  0  0  0  0  0  0  0  0  0
  -83.2402   27.5480    2.6676 O   0  0  0  0  0  0  0  0  0  0  0  0
  -83.8439   29.5230    1.5040 C   0  0  0  0  0  0  0  0  0  0  0  0
  -84.7537   30.2984    0.8292 C   0  0  0  0  0  0  0  0  0  0  0  0
  -84.3904   31.5325    0.3419 C   0  0  0  0  0  0  0  0  0  0  0  0
  -85.3657   32.2407   -0.3212 N   0  0  0  0  0  0  0  0  0  0  0  0
  -85.2980   25.8950    2.8109 H   0  0  0  0  0  0  0  0  0  0  0  0
  -83.4701   26.6463    3.0350 H   0  0  0  0  0  0  0  0  0  0  0  0
  -87.3000   33.1973   -2.3780 O   0  0  0  0  0  0  0  0  0  0  0  0
  -87.6142   32.5715   -1.2119 C   0  0  0  0  0  0  0  0  0  0  0  0
  -88.7659   32.6499   -0.7172 O   0  0  0  0  0  0  0  0  0  0  0  0
  -87.7315   34.0773   -2.6281 H   0  0  0  0  0  0  0  0  0  0  0  0
  -83.0767   32.0995    0.4899 C   0  0  0  0  0  0  0  0  0  0  0  0
  -82.8393   33.2865   -0.2597 O   0  0  0  0  0  0  0  0  0  0  0  0
  -82.1035   31.7479    1.1516 O   0  0  0  0  0  0  0  0  0  0  0  0
  -83.5413   34.0020   -0.1197 H   0  0  0  0  0  0  0  0  0  0  0  0
 15 16  1  0  0  0
 16 17  2  0  0  0
 16  1  1  0  0  0
  1  2  2  0  0  0
  2  3  1  0  0  0
  3  4  2  0  0  0
  4  5  1  0  0  0
  5  6  1  0  0  0
  5  7  2  0  0  0
  7  8  1  0  0  0
  7  9  1  0  0  0
  9 10  2  0  0  0
 10 11  1  0  0  0
 11 12  2  0  0  0
 11 19  1  0  0  0
 19 20  1  0  0  0
 19 21  2  0  0  0
 12  1  1  0  0  0
 10  3  1  0  0  0
 15 18  1  0  0  0
  6 13  1  0  0  0
  8 14  1  0  0  0
 20 22  1  0  0  0
M  END
> <minimizedAffinity>
-7.64483

> <CNNscore>
0.5151295066

> <CNNaffinity>
4.5432801247

> <CNN_VS>
2.3403775692

> <CNNaffinity_variance>
0.0444871299

$$$$
[H]OC(=O)c1nc(C(=O)O[H])c2c([H])c(O[H])c(O[H])c([H])c2c1[H]


 22 23  0  0  0  0  0  0  0  0999 V2000
  -84.3744   28.7620    1.7288 C   0  0  0  0  0  0  0  0  0  0  0  0
  -84.2137   30.0685    1.2991 C   0  0  0  0  0  0  0  0  0  0  0  0
  -85.2490   30.6635    0.6493 C   0  0  0  0  0  0  0  0  0  0  0  0
  -85.1441   31.9484    0.2049 C   0  0  0  0  0  0  0  0  0  0  0  0
  -86.1701   32.6041   -0.4642 C   0  0  0  0  0  0  0  0  0  0  0  0
  -86.0115   33.8886   -0.8865 O   0  0  0  0  0  0  0  0  0  0  0  0
  -87.3148   31.8925   -0.6634 C   0  0  0  0  0  0  0  0  0  0  0  0
  -88.4022   32.4745   -1.3297 O   0  0  0  0  0  0  0  0  0  0  0  0
  -87.4736   30.5887   -0.2339 C   0  0  0  0  0  0  0  0  0  0  0  0
  -86.4489   29.9568    0.4256 C   0  0  0  0  0  0  0  0  0  0  0  0
  -86.5951   28.6590    0.8578 C   0  0  0  0  0  0  0  0  0  0  0  0
  -85.5176   28.1052    1.5094 N   0  0  0  0  0  0  0  0  0  0  0  0
  -86.6645   34.4659   -1.3730 H   0  0  0  0  0  0  0  0  0  0  0  0
  -88.3301   33.4169   -1.6577 H   0  0  0  0  0  0  0  0  0  0  0  0
  -83.4579   27.0453    3.2127 O   0  0  0  0  0  0  0  0  0  0  0  0
  -83.2550   28.1355    2.4251 C   0  0  0  0  0  0  0  0  0  0  0  0
  -82.1103   28.6301    2.2751 O   0  0  0  0  0  0  0  0  0  0  0  0
  -82.8960   26.8895    4.0391 H   0  0  0  0  0  0  0  0  0  0  0  0
  -87.7877   27.8780    0.6655 C   0  0  0  0  0  0  0  0  0  0  0  0
  -87.7969   27.0600   -0.4998 O   0  0  0  0  0  0  0  0  0  0  0  0
  -88.8180   27.7812    1.3273 O   0  0  0  0  0  0  0  0  0  0  0  0
  -86.9800   26.4689   -0.5870 H   0  0  0  0  0  0  0  0  0  0  0  0
 15 16  1  0  0  0
 16 17  2  0  0  0
 16  1  1  0  0  0
  1  2  2  0  0  0
  2  3  1  0  0  0
  3  4  2  0  0  0
  4  5  1  0  0  0
  5  6  1  0  0  0
  5  7  2  0  0  0
  7  8  1  0  0  0
  7  9  1  0  0  0
  9 10  2  0  0  0
 10 11  1  0  0  0
 11 12  2  0  0  0
 11 19  1  0  0  0
 19 20  1  0  0  0
 19 21  2  0  0  0
 12  1  1  0  0  0
 10  3  1  0  0  0
 15 18  1  0  0  0
  6 13  1  0  0  0
  8 14  1  0  0  0
 20 22  1  0  0  0
M  END
> <minimizedAffinity>
-7.44700

> <CNNscore>
0.4931295216

> <CNNaffinity>
4.6508088112

> <CNN_VS>
2.2934510708

> <CNNaffinity_variance>
0.2221542895

$$$$
[H]OC(=O)c1nc(C(=O)O[H])c2c([H])c(O[H])c(O[H])c([H])c2c1[H]


 22 23  0  0  0  0  0  0  0  0999 V2000
  -84.6641   29.5279    1.3235 C   0  0  0  0  0  0  0  0  0  0  0  0
  -86.0057   29.5158    0.9809 C   0  0  0  0  0  0  0  0  0  0  0  0
  -86.4945   30.5596    0.2599 C   0  0  0  0  0  0  0  0  0  0  0  0
  -87.8080   30.5981   -0.1041 C   0  0  0  0  0  0  0  0  0  0  0  0
  -88.3594   31.6396   -0.8401 C   0  0  0  0  0  0  0  0  0  0  0  0
  -89.6784   31.6274   -1.1766 O   0  0  0  0  0  0  0  0  0  0  0  0
  -87.5121   32.6470   -1.1922 C   0  0  0  0  0  0  0  0  0  0  0  0
  -87.9820   33.7387   -1.9355 O   0  0  0  0  0  0  0  0  0  0  0  0
  -86.1735   32.6574   -0.8495 C   0  0  0  0  0  0  0  0  0  0  0  0
  -85.6462   31.6196   -0.1219 C   0  0  0  0  0  0  0  0  0  0  0  0
  -84.3150   31.6190    0.2253 C   0  0  0  0  0  0  0  0  0  0  0  0
  -83.8727   30.5396    0.9543 N   0  0  0  0  0  0  0  0  0  0  0  0
  -90.1914   32.3073   -1.6969 H   0  0  0  0  0  0  0  0  0  0  0  0
  -88.9449   33.7716   -2.2049 H   0  0  0  0  0  0  0  0  0  0  0  0
  -82.8530   28.3746    2.4977 O   0  0  0  0  0  0  0  0  0  0  0  0
  -84.1527   28.4011    2.0976 C   0  0  0  0  0  0  0  0  0  0  0  0
  -84.9430   27.4665    2.3795 O   0  0  0  0  0  0  0  0  0  0  0  0
  -82.3508   27.5001    2.5749 H   0  0  0  0  0  0  0  0  0  0  0  0
  -83.3921   32.6640   -0.1288 C   0  0  0  0  0  0  0  0  0  0  0  0
  -82.0382   32.4314    0.2454 O   0  0  0  0  0  0  0  0  0  0  0  0
  -83.5531   33.7380   -0.7026 O   0  0  0  0  0  0  0  0  0  0  0  0
  -81.6802   31.5363   -0.0628 H   0  0  0  0  0  0  0  0  0  0  0  0
 15 16  1  0  0  0
 16 17  2  0  0  0
 16  1  1  0  0  0
  1  2  2  0  0  0
  2  3  1  0  0  0
  3  4  2  0  0  0
  4  5  1  0  0  0
  5  6  1  0  0  0
  5  7  2  0  0  0
  7  8  1  0  0  0
  7  9  1  0  0  0
  9 10  2  0  0  0
 10 11  1  0  0  0
 11 12  2  0  0  0
 11 19  1  0  0  0
 19 20  1  0  0  0
 19 21  2  0  0  0
 12  1  1  0  0  0
 10  3  1  0  0  0
 15 18  1  0  0  0
  6 13  1  0  0  0
  8 14  1  0  0  0
 20 22  1  0  0  0
M  END
> <minimizedAffinity>
-7.61820

> <CNNscore>
0.4929203689

> <CNNaffinity>
4.4672899246

> <CNN_VS>
2.2020182610

> <CNNaffinity_variance>
0.0627753958

$$$$
[H]OC(=O)c1nc(C(=O)O[H])c2c([H])c(O[H])c(O[H])c([H])c2c1[H]


 22 23  0  0  0  0  0  0  0  0999 V2000
  -87.6556   29.2815    0.2237 C   0  0  0  0  0  0  0  0  0  0  0  0
  -86.3614   29.4658    0.6802 C   0  0  0  0  0  0  0  0  0  0  0  0
  -85.7009   30.5925    0.3029 C   0  0  0  0  0  0  0  0  0  0  0  0
  -84.4246   30.8237    0.7238 C   0  0  0  0  0  0  0  0  0  0  0  0
  -83.7040   31.9572    0.3687 C   0  0  0  0  0  0  0  0  0  0  0  0
  -82.4316   32.1379    0.8177 O   0  0  0  0  0  0  0  0  0  0  0  0
  -84.3410   32.8515   -0.4383 C   0  0  0  0  0  0  0  0  0  0  0  0
  -83.6902   34.0238   -0.8469 O   0  0  0  0  0  0  0  0  0  0  0  0
  -85.6327   32.6661   -0.8931 C   0  0  0  0  0  0  0  0  0  0  0  0
  -86.3294   31.5398   -0.5318 C   0  0  0  0  0  0  0  0  0  0  0  0
  -87.6158   31.3442   -0.9782 C   0  0  0  0  0  0  0  0  0  0  0  0
  -88.2379   30.1883   -0.5669 N   0  0  0  0  0  0  0  0  0  0  0  0
  -81.8133   32.9004    0.6372 H   0  0  0  0  0  0  0  0  0  0  0  0
  -82.7537   34.1980   -0.5408 H   0  0  0  0  0  0  0  0  0  0  0  0
  -89.6404   27.8504    0.2554 O   0  0  0  0  0  0  0  0  0  0  0  0
  -88.3529   28.0676    0.6364 C   0  0  0  0  0  0  0  0  0  0  0  0
  -87.7325   27.2386    1.3472 O   0  0  0  0  0  0  0  0  0  0  0  0
  -90.2830   27.3513    0.8563 H   0  0  0  0  0  0  0  0  0  0  0  0
  -88.3192   32.2655   -1.8300 C   0  0  0  0  0  0  0  0  0  0  0  0
  -88.1228   32.0725   -3.2270 O   0  0  0  0  0  0  0  0  0  0  0  0
  -89.0702   33.2039   -1.5767 O   0  0  0  0  0  0  0  0  0  0  0  0
  -88.2916   31.1227   -3.5330 H   0  0  0  0  0  0  0  0  0  0  0  0
 15 16  1  0  0  0
 16 17  2  0  0  0
 16  1  1  0  0  0
  1  2  2  0  0  0
  2  3  1  0  0  0
  3  4  2  0  0  0
  4  5  1  0  0  0
  5  6  1  0  0  0
  5  7  2  0  0  0
  7  8  1  0  0  0
  7  9  1  0  0  0
  9 10  2  0  0  0
 10 11  1  0  0  0
 11 12  2  0  0  0
 11 19  1  0  0  0
 19 20  1  0  0  0
 19 21  2  0  0  0
 12  1  1  0  0  0
 10  3  1  0  0  0
 15 18  1  0  0  0
  6 13  1  0  0  0
  8 14  1  0  0  0
 20 22  1  0  0  0
M  END
> <minimizedAffinity>
-6.69310

> <CNNscore>
0.4808548987

> <CNNaffinity>
4.5173234940

> <CNN_VS>
2.1721770763

> <CNNaffinity_variance>
0.1677182019

$$$$
[H]OC(=O)c1nc(C(=O)O[H])c2c([H])c(O[H])c(O[H])c([H])c2c1[H]


 22 23  0  0  0  0  0  0  0  0999 V2000
  -87.7849   31.9230   -0.8791 C   0  0  0  0  0  0  0  0  0  0  0  0
  -86.5462   32.5205   -0.7184 C   0  0  0  0  0  0  0  0  0  0  0  0
  -85.5590   31.8026   -0.1199 C   0  0  0  0  0  0  0  0  0  0  0  0
  -84.3204   32.3426    0.0634 C   0  0  0  0  0  0  0  0  0  0  0  0
  -83.2763   31.6542    0.6686 C   0  0  0  0  0  0  0  0  0  0  0  0
  -82.0586   32.2419    0.8265 O   0  0  0  0  0  0  0  0  0  0  0  0
  -83.5476   30.3846    1.0823 C   0  0  0  0  0  0  0  0  0  0  0  0
  -82.5536   29.6156    1.7033 O   0  0  0  0  0  0  0  0  0  0  0  0
  -84.7845   29.7898    0.9212 C   0  0  0  0  0  0  0  0  0  0  0  0
  -85.8044   30.4855    0.3208 C   0  0  0  0  0  0  0  0  0  0  0  0
  -87.0400   29.9040    0.1549 C   0  0  0  0  0  0  0  0  0  0  0  0
  -88.0023   30.6739   -0.4562 N   0  0  0  0  0  0  0  0  0  0  0  0
  -81.2350   31.8594    1.2406 H   0  0  0  0  0  0  0  0  0  0  0  0
  -81.6433   30.0074    1.8401 H   0  0  0  0  0  0  0  0  0  0  0  0
  -90.1202   32.2584   -1.5293 O   0  0  0  0  0  0  0  0  0  0  0  0
  -88.8355   32.7052   -1.5232 C   0  0  0  0  0  0  0  0  0  0  0  0
  -88.5187   33.7925   -2.0660 O   0  0  0  0  0  0  0  0  0  0  0  0
  -90.7354   32.4559   -2.3075 H   0  0  0  0  0  0  0  0  0  0  0  0
  -87.3622   28.5676    0.5785 C   0  0  0  0  0  0  0  0  0  0  0  0
  -87.1997   27.5599   -0.4141 O   0  0  0  0  0  0  0  0  0  0  0  0
  -87.7581   28.1228    1.6528 O   0  0  0  0  0  0  0  0  0  0  0  0
  -86.2903   27.5708   -0.8583 H   0  0  0  0  0  0  0  0  0  0  0  0
 15 16  1  0  0  0
 16 17  2  0  0  0
 16  1  1  0  0  0
  1  2  2  0  0  0
  2  3  1  0  0  0
  3  4  2  0  0  0
  4  5  1  0  0  0
  5  6  1  0  0  0
  5  7  2  0  0  0
  7  8  1  0  0  0
  7  9  1  0  0  0
  9 10  2  0  0  0
 10 11  1  0  0  0
 11 12  2  0  0  0
 11 19  1  0  0  0
 19 20  1  0  0  0
 19 21  2  0  0  0
 12  1  1  0  0  0
 10  3  1  0  0  0
 15 18  1  0  0  0
  6 13  1  0  0  0
  8 14  1  0  0  0
 20 22  1  0  0  0
M  END
> <minimizedAffinity>
-7.29741

> <CNNscore>
0.4461199641

> <CNNaffinity>
4.3393378258

> <CNN_VS>
1.9358652830

> <CNNaffinity_variance>
0.1400975734

$$$$
[H]c1c([H])c(N([H])c2nc([H])c3c(C(=O)N([H])[H])nn(C([H])(C([H])([H])[H])C([H])([H])[H])c3n2)c([H])c([H])c1F


 26 28  0  0  0  0  0  0  0  0999 V2000
  -86.2992   30.6082    0.0017 N   0  0  0  0  0  0  0  0  0  0  0  0
  -85.0455   30.8344    0.3301 N   0  0  0  0  0  0  0  0  0  0  0  0
  -84.6619   32.0388   -0.1446 C   0  0  0  0  0  0  0  0  0  0  0  0
  -85.7589   32.5572   -0.7948 C   0  0  0  0  0  0  0  0  0  0  0  0
  -86.0240   33.7272   -1.4812 C   0  0  0  0  0  0  0  0  0  0  0  0
  -87.2468   33.9317   -2.0167 N   0  0  0  0  0  0  0  0  0  0  0  0
  -88.2586   33.0700   -1.9375 C   0  0  0  0  0  0  0  0  0  0  0  0
  -87.9881   31.9174   -1.2581 N   0  0  0  0  0  0  0  0  0  0  0  0
  -86.7956   31.6536   -0.7033 C   0  0  0  0  0  0  0  0  0  0  0  0
  -83.3622   32.6398    0.0100 C   0  0  0  0  0  0  0  0  0  0  0  0
  -82.2838   32.0429    0.6978 N   0  0  0  0  0  0  0  0  0  0  0  0
  -83.1863   33.7916   -0.5156 O   0  0  0  0  0  0  0  0  0  0  0  0
  -82.1446   32.1632    1.7225 H   0  0  0  0  0  0  0  0  0  0  0  0
  -81.6215   31.4623    0.1058 H   0  0  0  0  0  0  0  0  0  0  0  0
  -86.3206   28.7624    1.5191 C   0  0  0  0  0  0  0  0  0  0  0  0
  -87.0140   29.4017    0.3605 C   0  0  0  0  0  0  0  0  0  0  0  0
  -87.0115   28.4582   -0.8379 C   0  0  0  0  0  0  0  0  0  0  0  0
  -89.5419   33.2754   -2.4944 N   0  0  0  0  0  0  0  0  0  0  0  0
  -90.3558   32.9603   -1.8494 H   0  0  0  0  0  0  0  0  0  0  0  0
  -89.8551   33.8207   -3.7549 C   0  0  0  0  0  0  0  0  0  0  0  0
  -90.0006   35.2168   -3.8291 C   0  0  0  0  0  0  0  0  0  0  0  0
  -90.3213   35.8614   -4.9974 C   0  0  0  0  0  0  0  0  0  0  0  0
  -90.5168   35.1581   -6.1625 C   0  0  0  0  0  0  0  0  0  0  0  0
  -90.8375   35.8063   -7.3331 F   0  0  0  0  0  0  0  0  0  0  0  0
  -90.3818   33.7944   -6.1206 C   0  0  0  0  0  0  0  0  0  0  0  0
  -90.0544   33.1440   -4.9231 C   0  0  0  0  0  0  0  0  0  0  0  0
 15 16  1  0  0  0
 16 17  1  0  0  0
 16  1  1  0  0  0
  1  2  1  0  0  0
  2  3  2  0  0  0
  3 10  1  0  0  0
 10 11  1  0  0  0
 10 12  2  0  0  0
  3  4  1  0  0  0
  4  5  2  0  0  0
  5  6  1  0  0  0
  6  7  2  0  0  0
  7 18  1  0  0  0
 18 20  1  0  0  0
 20 21  2  0  0  0
 21 22  1  0  0  0
 22 23  2  0  0  0
 23 24  1  0  0  0
 23 25  1  0  0  0
 25 26  2  0  0  0
  7  8  1  0  0  0
  8  9  2  0  0  0
  9  1  1  0  0  0
  9  4  1  0  0  0
 26 20  1  0  0  0
 11 13  1  0  0  0
 11 14  1  0  0  0
 18 19  1  0  0  0
M  END
> <minimizedAffinity>
-6.99377

> <CNNscore>
0.5883168578

> <CNNaffinity>
6.3933773041

> <CNN_VS>
3.7613315582

> <CNNaffinity_variance>
0.3062995076

$$$$
[H]c1c([H])c(N([H])c2nc([H])c3c(C(=O)N([H])[H])nn(C([H])(C([H])([H])[H])C([H])([H])[H])c3n2)c([H])c([H])c1F


 26 28  0  0  0  0  0  0  0  0999 V2000
  -86.6686   31.3289   -0.2940 N   0  0  0  0  0  0  0  0  0  0  0  0
  -85.7909   32.2819   -0.5223 N   0  0  0  0  0  0  0  0  0  0  0  0
  -84.5930   31.9284   -0.0092 C   0  0  0  0  0  0  0  0  0  0  0  0
  -84.7747   30.6875    0.5583 C   0  0  0  0  0  0  0  0  0  0  0  0
  -83.9633   29.7940    1.2319 C   0  0  0  0  0  0  0  0  0  0  0  0
  -84.4714   28.6230    1.6727 N   0  0  0  0  0  0  0  0  0  0  0  0
  -85.7357   28.2398    1.5081 C   0  0  0  0  0  0  0  0  0  0  0  0
  -86.5298   29.1280    0.8421 N   0  0  0  0  0  0  0  0  0  0  0  0
  -86.0871   30.3067    0.3792 C   0  0  0  0  0  0  0  0  0  0  0  0
  -83.3830   32.7081   -0.0577 C   0  0  0  0  0  0  0  0  0  0  0  0
  -82.1530   32.3083    0.5077 N   0  0  0  0  0  0  0  0  0  0  0  0
  -83.4400   33.8363   -0.6558 O   0  0  0  0  0  0  0  0  0  0  0  0
  -81.9050   32.5129    1.4978 H   0  0  0  0  0  0  0  0  0  0  0  0
  -81.4943   31.7850   -0.1393 H   0  0  0  0  0  0  0  0  0  0  0  0
  -88.2130   30.5789   -1.9559 C   0  0  0  0  0  0  0  0  0  0  0  0
  -88.0512   31.3979   -0.7171 C   0  0  0  0  0  0  0  0  0  0  0  0
  -88.4025   32.8545   -1.0017 C   0  0  0  0  0  0  0  0  0  0  0  0
  -86.2765   27.0161    1.9655 N   0  0  0  0  0  0  0  0  0  0  0  0
  -85.6435   26.4950    2.6765 H   0  0  0  0  0  0  0  0  0  0  0  0
  -87.5030   26.4277    1.5996 C   0  0  0  0  0  0  0  0  0  0  0  0
  -88.4996   26.3597    2.5884 C   0  0  0  0  0  0  0  0  0  0  0  0
  -89.7282   25.7941    2.3562 C   0  0  0  0  0  0  0  0  0  0  0  0
  -90.0410   25.2619    1.1276 C   0  0  0  0  0  0  0  0  0  0  0  0
  -91.2737   24.6961    0.8965 F   0  0  0  0  0  0  0  0  0  0  0  0
  -89.0881   25.3137    0.1432 C   0  0  0  0  0  0  0  0  0  0  0  0
  -87.8358   25.8928    0.3890 C   0  0  0  0  0  0  0  0  0  0  0  0
 15 16  1  0  0  0
 16 17  1  0  0  0
 16  1  1  0  0  0
  1  2  1  0  0  0
  2  3  2  0  0  0
  3 10  1  0  0  0
 10 11  1  0  0  0
 10 12  2  0  0  0
  3  4  1  0  0  0
  4  5  2  0  0  0
  5  6  1  0  0  0
  6  7  2  0  0  0
  7 18  1  0  0  0
 18 20  1  0  0  0
 20 21  2  0  0  0
 21 22  1  0  0  0
 22 23  2  0  0  0
 23 24  1  0  0  0
 23 25  1  0  0  0
 25 26  2  0  0  0
  7  8  1  0  0  0
  8  9  2  0  0  0
  9  1  1  0  0  0
  9  4  1  0  0  0
 26 20  1  0  0  0
 11 13  1  0  0  0
 11 14  1  0  0  0
 18 19  1  0  0  0
M  END
> <minimizedAffinity>
-7.81493

> <CNNscore>
0.5722274184

> <CNNaffinity>
6.5754089355

> <CNN_VS>
3.7626292706

> <CNNaffinity_variance>
0.3294005990

$$$$
[H]c1c([H])c(N([H])c2nc([H])c3c(C(=O)N([H])[H])nn(C([H])(C([H])([H])[H])C([H])([H])[H])c3n2)c([H])c([H])c1F


 26 28  0  0  0  0  0  0  0  0999 V2000
  -87.2596   29.9139   -0.2021 N   0  0  0  0  0  0  0  0  0  0  0  0
  -86.6454   29.3065    0.7902 N   0  0  0  0  0  0  0  0  0  0  0  0
  -85.5918   30.0480    1.1941 C   0  0  0  0  0  0  0  0  0  0  0  0
  -85.5830   31.1647    0.3891 C   0  0  0  0  0  0  0  0  0  0  0  0
  -84.7842   32.2880    0.2869 C   0  0  0  0  0  0  0  0  0  0  0  0
  -85.0592   33.2277   -0.6433 N   0  0  0  0  0  0  0  0  0  0  0  0
  -86.0728   33.1629   -1.5040 C   0  0  0  0  0  0  0  0  0  0  0  0
  -86.8563   32.0505   -1.3961 N   0  0  0  0  0  0  0  0  0  0  0  0
  -86.6373   31.0815   -0.4947 C   0  0  0  0  0  0  0  0  0  0  0  0
  -84.6755   29.7178    2.2552 C   0  0  0  0  0  0  0  0  0  0  0  0
  -83.3055   29.4352    2.0672 N   0  0  0  0  0  0  0  0  0  0  0  0
  -85.1473   29.6816    3.4425 O   0  0  0  0  0  0  0  0  0  0  0  0
  -82.9606   28.4754    1.8586 H   0  0  0  0  0  0  0  0  0  0  0  0
  -82.6462   30.2626    2.1515 H   0  0  0  0  0  0  0  0  0  0  0  0
  -89.0990   28.4109    0.0574 C   0  0  0  0  0  0  0  0  0  0  0  0
  -88.4314   29.3798   -0.8630 C   0  0  0  0  0  0  0  0  0  0  0  0
  -87.9914   28.6719   -2.1404 C   0  0  0  0  0  0  0  0  0  0  0  0
  -86.3687   34.1416   -2.4807 N   0  0  0  0  0  0  0  0  0  0  0  0
  -85.6185   34.9215   -2.5620 H   0  0  0  0  0  0  0  0  0  0  0  0
  -87.4983   34.2047   -3.3200 C   0  0  0  0  0  0  0  0  0  0  0  0
  -88.3977   35.2629   -3.1029 C   0  0  0  0  0  0  0  0  0  0  0  0
  -89.5413   35.4196   -3.8450 C   0  0  0  0  0  0  0  0  0  0  0  0
  -89.8608   34.5345   -4.8475 C   0  0  0  0  0  0  0  0  0  0  0  0
  -91.0075   34.6937   -5.5910 F   0  0  0  0  0  0  0  0  0  0  0  0
  -89.0021   33.4918   -5.0821 C   0  0  0  0  0  0  0  0  0  0  0  0
  -87.8363   33.3390   -4.3193 C   0  0  0  0  0  0  0  0  0  0  0  0
 15 16  1  0  0  0
 16 17  1  0  0  0
 16  1  1  0  0  0
  1  2  1  0  0  0
  2  3  2  0  0  0
  3 10  1  0  0  0
 10 11  1  0  0  0
 10 12  2  0  0  0
  3  4  1  0  0  0
  4  5  2  0  0  0
  5  6  1  0  0  0
  6  7  2  0  0  0
  7 18  1  0  0  0
 18 20  1  0  0  0
 20 21  2  0  0  0
 21 22  1  0  0  0
 22 23  2  0  0  0
 23 24  1  0  0  0
 23 25  1  0  0  0
 25 26  2  0  0  0
  7  8  1  0  0  0
  8  9  2  0  0  0
  9  1  1  0  0  0
  9  4  1  0  0  0
 26 20  1  0  0  0
 11 13  1  0  0  0
 11 14  1  0  0  0
 18 19  1  0  0  0
M  END
> <minimizedAffinity>
-7.17170

> <CNNscore>
0.5419824719

> <CNNaffinity>
6.3464956284

> <CNN_VS>
3.4396893978

> <CNNaffinity_variance>
0.4582327306

$$$$
[H]c1c([H])c(N([H])c2nc([H])c3c(C(=O)N([H])[H])nn(C([H])(C([H])([H])[H])C([H])([H])[H])c3n2)c([H])c([H])c1F


 26 28  0  0  0  0  0  0  0  0999 V2000
  -87.2733   30.2381   -0.4991 N   0  0  0  0  0  0  0  0  0  0  0  0
  -86.6685   29.8303    0.5958 N   0  0  0  0  0  0  0  0  0  0  0  0
  -85.7009   30.7091    0.9343 C   0  0  0  0  0  0  0  0  0  0  0  0
  -85.7363   31.6991   -0.0215 C   0  0  0  0  0  0  0  0  0  0  0  0
  -85.0247   32.8619   -0.2491 C   0  0  0  0  0  0  0  0  0  0  0  0
  -85.3216   33.6354   -1.3156 N   0  0  0  0  0  0  0  0  0  0  0  0
  -86.2779   33.3641   -2.2012 C   0  0  0  0  0  0  0  0  0  0  0  0
  -86.9754   32.2141   -1.9689 N   0  0  0  0  0  0  0  0  0  0  0  0
  -86.7303   31.4028   -0.9290 C   0  0  0  0  0  0  0  0  0  0  0  0
  -84.8213   30.6104    2.0705 C   0  0  0  0  0  0  0  0  0  0  0  0
  -85.2435   30.6849    3.4153 N   0  0  0  0  0  0  0  0  0  0  0  0
  -83.5767   30.4442    1.8315 O   0  0  0  0  0  0  0  0  0  0  0  0
  -85.3271   31.5910    3.9211 H   0  0  0  0  0  0  0  0  0  0  0  0
  -85.4713   29.7590    3.8812 H   0  0  0  0  0  0  0  0  0  0  0  0
  -89.0388   28.6803   -0.0922 C   0  0  0  0  0  0  0  0  0  0  0  0
  -88.3608   29.5179   -1.1267 C   0  0  0  0  0  0  0  0  0  0  0  0
  -87.7881   28.6307   -2.2272 C   0  0  0  0  0  0  0  0  0  0  0  0
  -86.5961   34.1678   -3.3202 N   0  0  0  0  0  0  0  0  0  0  0  0
  -85.8317   34.1704   -4.0904 H   0  0  0  0  0  0  0  0  0  0  0  0
  -87.7576   34.9388   -3.5226 C   0  0  0  0  0  0  0  0  0  0  0  0
  -87.6165   36.3359   -3.4594 C   0  0  0  0  0  0  0  0  0  0  0  0
  -88.6779   37.1901   -3.6232 C   0  0  0  0  0  0  0  0  0  0  0  0
  -89.9437   36.7081   -3.8597 C   0  0  0  0  0  0  0  0  0  0  0  0
  -91.0065   37.5663   -4.0245 F   0  0  0  0  0  0  0  0  0  0  0  0
  -90.1120   35.3492   -3.9263 C   0  0  0  0  0  0  0  0  0  0  0  0
  -89.0226   34.4838   -3.7576 C   0  0  0  0  0  0  0  0  0  0  0  0
 15 16  1  0  0  0
 16 17  1  0  0  0
 16  1  1  0  0  0
  1  2  1  0  0  0
  2  3  2  0  0  0
  3 10  1  0  0  0
 10 11  1  0  0  0
 10 12  2  0  0  0
  3  4  1  0  0  0
  4  5  2  0  0  0
  5  6  1  0  0  0
  6  7  2  0  0  0
  7 18  1  0  0  0
 18 20  1  0  0  0
 20 21  2  0  0  0
 21 22  1  0  0  0
 22 23  2  0  0  0
 23 24  1  0  0  0
 23 25  1  0  0  0
 25 26  2  0  0  0
  7  8  1  0  0  0
  8  9  2  0  0  0
  9  1  1  0  0  0
  9  4  1  0  0  0
 26 20  1  0  0  0
 11 13  1  0  0  0
 11 14  1  0  0  0
 18 19  1  0  0  0
M  END
> <minimizedAffinity>
-7.13247

> <CNNscore>
0.5065581799

> <CNNaffinity>
6.1811928749

> <CNN_VS>
3.1311337948

> <CNNaffinity_variance>
0.2618150115

$$$$
[H]c1c([H])c(N([H])c2nc([H])c3c(C(=O)N([H])[H])nn(C([H])(C([H])([H])[H])C([H])([H])[H])c3n2)c([H])c([H])c1F


 26 28  0  0  0  0  0  0  0  0999 V2000
  -85.6634   30.9488    0.4066 N   0  0  0  0  0  0  0  0  0  0  0  0
  -85.5310   32.0580   -0.2883 N   0  0  0  0  0  0  0  0  0  0  0  0
  -86.5865   32.2029   -1.1179 C   0  0  0  0  0  0  0  0  0  0  0  0
  -87.3938   31.1096   -0.8991 C   0  0  0  0  0  0  0  0  0  0  0  0
  -88.5976   30.6665   -1.4139 C   0  0  0  0  0  0  0  0  0  0  0  0
  -89.1371   29.5119   -0.9670 N   0  0  0  0  0  0  0  0  0  0  0  0
  -88.5882   28.7333   -0.0370 C   0  0  0  0  0  0  0  0  0  0  0  0
  -87.3999   29.1782    0.4658 N   0  0  0  0  0  0  0  0  0  0  0  0
  -86.8115   30.3152    0.0650 C   0  0  0  0  0  0  0  0  0  0  0  0
  -86.8031   33.2900   -2.0376 C   0  0  0  0  0  0  0  0  0  0  0  0
  -85.8861   33.6862   -3.0348 N   0  0  0  0  0  0  0  0  0  0  0  0
  -87.9039   33.9311   -1.9333 O   0  0  0  0  0  0  0  0  0  0  0  0
  -85.1268   34.3737   -2.8486 H   0  0  0  0  0  0  0  0  0  0  0  0
  -86.0175   33.2398   -3.9885 H   0  0  0  0  0  0  0  0  0  0  0  0
  -84.8560   31.3262    2.6236 C   0  0  0  0  0  0  0  0  0  0  0  0
  -84.6985   30.5010    1.3883 C   0  0  0  0  0  0  0  0  0  0  0  0
  -83.2974   30.6802    0.8129 C   0  0  0  0  0  0  0  0  0  0  0  0
  -89.1455   27.5235    0.4373 N   0  0  0  0  0  0  0  0  0  0  0  0
  -89.4223   26.8294   -0.3496 H   0  0  0  0  0  0  0  0  0  0  0  0
  -89.3734   27.1483    1.7759 C   0  0  0  0  0  0  0  0  0  0  0  0
  -90.1851   27.9969    2.5484 C   0  0  0  0  0  0  0  0  0  0  0  0
  -90.4646   27.7457    3.8682 C   0  0  0  0  0  0  0  0  0  0  0  0
  -89.9546   26.6365    4.5005 C   0  0  0  0  0  0  0  0  0  0  0  0
  -90.2367   26.3859    5.8237 F   0  0  0  0  0  0  0  0  0  0  0  0
  -89.1589   25.7904    3.7721 C   0  0  0  0  0  0  0  0  0  0  0  0
  -88.8782   26.0545    2.4246 C   0  0  0  0  0  0  0  0  0  0  0  0
 15 16  1  0  0  0
 16 17  1  0  0  0
 16  1  1  0  0  0
  1  2  1  0  0  0
  2  3  2  0  0  0
  3 10  1  0  0  0
 10 11  1  0  0  0
 10 12  2  0  0  0
  3  4  1  0  0  0
  4  5  2  0  0  0
  5  6  1  0  0  0
  6  7  2  0  0  0
  7 18  1  0  0  0
 18 20  1  0  0  0
 20 21  2  0  0  0
 21 22  1  0  0  0
 22 23  2  0  0  0
 23 24  1  0  0  0
 23 25  1  0  0  0
 25 26  2  0  0  0
  7  8  1  0  0  0
  8  9  2  0  0  0
  9  1  1  0  0  0
  9  4  1  0  0  0
 26 20  1  0  0  0
 11 13  1  0  0  0
 11 14  1  0  0  0
 18 19  1  0  0  0
M  END
> <minimizedAffinity>
-7.82955

> <CNNscore>
0.4526915848

> <CNNaffinity>
6.3728933334

> <CNN_VS>
2.8849551678

> <CNNaffinity_variance>
0.1095270887

$$$$
[H]c1c([H])c(N([H])c2nc([H])c3c(C(=O)N([H])[H])nn(C([H])(C([H])([H])[H])C([H])([H])[H])c3n2)c([H])c([H])c1F


 26 28  0  0  0  0  0  0  0  0999 V2000
  -85.2143   31.4503    0.7929 N   0  0  0  0  0  0  0  0  0  0  0  0
  -85.3402   32.5155    0.0313 N   0  0  0  0  0  0  0  0  0  0  0  0
  -86.3083   32.3059   -0.8864 C   0  0  0  0  0  0  0  0  0  0  0  0
  -86.7846   31.0358   -0.6518 C   0  0  0  0  0  0  0  0  0  0  0  0
  -87.7552   30.2360   -1.2251 C   0  0  0  0  0  0  0  0  0  0  0  0
  -87.9805   28.9966   -0.7384 N   0  0  0  0  0  0  0  0  0  0  0  0
  -87.3227   28.4574    0.2858 C   0  0  0  0  0  0  0  0  0  0  0  0
  -86.3662   29.2539    0.8458 N   0  0  0  0  0  0  0  0  0  0  0  0
  -86.0937   30.4931    0.4101 C   0  0  0  0  0  0  0  0  0  0  0  0
  -86.7389   33.2372   -1.8971 C   0  0  0  0  0  0  0  0  0  0  0  0
  -85.9347   33.6792   -2.9696 N   0  0  0  0  0  0  0  0  0  0  0  0
  -87.9320   33.6865   -1.8054 O   0  0  0  0  0  0  0  0  0  0  0  0
  -85.3034   34.5028   -2.8869 H   0  0  0  0  0  0  0  0  0  0  0  0
  -86.0125   33.1196   -3.8679 H   0  0  0  0  0  0  0  0  0  0  0  0
  -83.2520   30.3044    1.5318 C   0  0  0  0  0  0  0  0  0  0  0  0
  -84.2601   31.3514    1.8769 C   0  0  0  0  0  0  0  0  0  0  0  0
  -85.0055   30.9626    3.1495 C   0  0  0  0  0  0  0  0  0  0  0  0
  -87.5518   27.1613    0.8024 N   0  0  0  0  0  0  0  0  0  0  0  0
  -86.8664   26.4102    0.4232 H   0  0  0  0  0  0  0  0  0  0  0  0
  -88.5453   26.7640    1.7187 C   0  0  0  0  0  0  0  0  0  0  0  0
  -88.7324   27.5760    2.8507 C   0  0  0  0  0  0  0  0  0  0  0  0
  -89.6575   27.2827    3.8209 C   0  0  0  0  0  0  0  0  0  0  0  0
  -90.4527   26.1651    3.7253 C   0  0  0  0  0  0  0  0  0  0  0  0
  -91.3803   25.8732    4.6986 F   0  0  0  0  0  0  0  0  0  0  0  0
  -90.2924   25.3538    2.6318 C   0  0  0  0  0  0  0  0  0  0  0  0
  -89.3449   25.6605    1.6456 C   0  0  0  0  0  0  0  0  0  0  0  0
 15 16  1  0  0  0
 16 17  1  0  0  0
 16  1  1  0  0  0
  1  2  1  0  0  0
  2  3  2  0  0  0
  3 10  1  0  0  0
 10 11  1  0  0  0
 10 12  2  0  0  0
  3  4  1  0  0  0
  4  5  2  0  0  0
  5  6  1  0  0  0
  6  7  2  0  0  0
  7 18  1  0  0  0
 18 20  1  0  0  0
 20 21  2  0  0  0
 21 22  1  0  0  0
 22 23  2  0  0  0
 23 24  1  0  0  0
 23 25  1  0  0  0
 25 26  2  0  0  0
  7  8  1  0  0  0
  8  9  2  0  0  0
  9  1  1  0  0  0
  9  4  1  0  0  0
 26 20  1  0  0  0
 11 13  1  0  0  0
 11 14  1  0  0  0
 18 19  1  0  0  0
M  END
> <minimizedAffinity>
-8.09410

> <CNNscore>
0.3986965418

> <CNNaffinity>
6.4143781662

> <CNN_VS>
2.5573904514

> <CNNaffinity_variance>
0.2197888345

$$$$
[H]c1c([H])c(N([H])c2nc([H])c3c(C(=O)N([H])[H])nn(C([H])(C([H])([H])[H])C([H])([H])[H])c3n2)c([H])c([H])c1F


 26 28  0  0  0  0  0  0  0  0999 V2000
  -85.6417   31.0967    0.5224 N   0  0  0  0  0  0  0  0  0  0  0  0
  -86.2093   29.9448    0.8086 N   0  0  0  0  0  0  0  0  0  0  0  0
  -87.2185   29.7084   -0.0568 C   0  0  0  0  0  0  0  0  0  0  0  0
  -87.2490   30.7895   -0.9084 C   0  0  0  0  0  0  0  0  0  0  0  0
  -88.0252   31.1575   -1.9912 C   0  0  0  0  0  0  0  0  0  0  0  0
  -87.7843   32.3243   -2.6271 N   0  0  0  0  0  0  0  0  0  0  0  0
  -86.8264   33.1844   -2.2879 C   0  0  0  0  0  0  0  0  0  0  0  0
  -86.0648   32.8132   -1.2178 N   0  0  0  0  0  0  0  0  0  0  0  0
  -86.2522   31.6687   -0.5435 C   0  0  0  0  0  0  0  0  0  0  0  0
  -88.0767   28.5518   -0.0678 C   0  0  0  0  0  0  0  0  0  0  0  0
  -88.0765   27.5677   -1.0796 N   0  0  0  0  0  0  0  0  0  0  0  0
  -88.8889   28.4192    0.9102 O   0  0  0  0  0  0  0  0  0  0  0  0
  -88.6606   27.6534   -1.9371 H   0  0  0  0  0  0  0  0  0  0  0  0
  -87.4430   26.7326   -0.9133 H   0  0  0  0  0  0  0  0  0  0  0  0
  -83.2770   30.9460    0.8305 C   0  0  0  0  0  0  0  0  0  0  0  0
  -84.5251   31.6432    1.2639 C   0  0  0  0  0  0  0  0  0  0  0  0
  -84.7663   31.4104    2.7518 C   0  0  0  0  0  0  0  0  0  0  0  0
  -86.5665   34.4076   -2.9476 N   0  0  0  0  0  0  0  0  0  0  0  0
  -85.5725   34.8027   -2.7643 H   0  0  0  0  0  0  0  0  0  0  0  0
  -87.4372   35.1374   -3.7805 C   0  0  0  0  0  0  0  0  0  0  0  0
  -88.1040   36.2328   -3.2048 C   0  0  0  0  0  0  0  0  0  0  0  0
  -88.9890   37.0084   -3.9107 C   0  0  0  0  0  0  0  0  0  0  0  0
  -89.2653   36.7427   -5.2312 C   0  0  0  0  0  0  0  0  0  0  0  0
  -90.1524   37.5220   -5.9375 F   0  0  0  0  0  0  0  0  0  0  0  0
  -88.6299   35.6798   -5.8196 C   0  0  0  0  0  0  0  0  0  0  0  0
  -87.7276   34.8927   -5.0913 C   0  0  0  0  0  0  0  0  0  0  0  0
 15 16  1  0  0  0
 16 17  1  0  0  0
 16  1  1  0  0  0
  1  2  1  0  0  0
  2  3  2  0  0  0
  3 10  1  0  0  0
 10 11  1  0  0  0
 10 12  2  0  0  0
  3  4  1  0  0  0
  4  5  2  0  0  0
  5  6  1  0  0  0
  6  7  2  0  0  0
  7 18  1  0  0  0
 18 20  1  0  0  0
 20 21  2  0  0  0
 21 22  1  0  0  0
 22 23  2  0  0  0
 23 24  1  0  0  0
 23 25  1  0  0  0
 25 26  2  0  0  0
  7  8  1  0  0  0
  8  9  2  0  0  0
  9  1  1  0  0  0
  9  4  1  0  0  0
 26 20  1  0  0  0
 11 13  1  0  0  0
 11 14  1  0  0  0
 18 19  1  0  0  0
M  END
> <minimizedAffinity>
-7.08395

> <CNNscore>
0.3853909969

> <CNNaffinity>
6.1946105957

> <CNN_VS>
2.3873472214

> <CNNaffinity_variance>
0.2894094586

$$$$
[H]c1c([H])c(N([H])c2nc([H])c3c(C(=O)N([H])[H])nn(C([H])(C([H])([H])[H])C([H])([H])[H])c3n2)c([H])c([H])c1F


 26 28  0  0  0  0  0  0  0  0999 V2000
  -86.3716   29.4913    0.3733 N   0  0  0  0  0  0  0  0  0  0  0  0
  -85.1339   29.3870    0.8068 N   0  0  0  0  0  0  0  0  0  0  0  0
  -84.5029   30.5728    0.6688 C   0  0  0  0  0  0  0  0  0  0  0  0
  -85.4268   31.4323    0.1187 C   0  0  0  0  0  0  0  0  0  0  0  0
  -85.4178   32.7606   -0.2632 C   0  0  0  0  0  0  0  0  0  0  0  0
  -86.5306   33.3183   -0.7873 N   0  0  0  0  0  0  0  0  0  0  0  0
  -87.6803   32.6739   -0.9752 C   0  0  0  0  0  0  0  0  0  0  0  0
  -87.6803   31.3629   -0.5954 N   0  0  0  0  0  0  0  0  0  0  0  0
  -86.6095   30.7500   -0.0689 C   0  0  0  0  0  0  0  0  0  0  0  0
  -83.1383   30.8578    1.0308 C   0  0  0  0  0  0  0  0  0  0  0  0
  -82.4481   32.0367    0.6755 N   0  0  0  0  0  0  0  0  0  0  0  0
  -82.5217   29.9757    1.7203 O   0  0  0  0  0  0  0  0  0  0  0  0
  -81.9271   32.1255   -0.2214 H   0  0  0  0  0  0  0  0  0  0  0  0
  -82.4925   32.8293    1.3797 H   0  0  0  0  0  0  0  0  0  0  0  0
  -86.8645   27.3835    1.3850 C   0  0  0  0  0  0  0  0  0  0  0  0
  -87.3167   28.3950    0.3830 C   0  0  0  0  0  0  0  0  0  0  0  0
  -87.3570   27.7728   -1.0090 C   0  0  0  0  0  0  0  0  0  0  0  0
  -88.8503   33.2492   -1.5225 N   0  0  0  0  0  0  0  0  0  0  0  0
  -89.7110   33.2050   -0.8631 H   0  0  0  0  0  0  0  0  0  0  0  0
  -89.0039   33.8443   -2.7900 C   0  0  0  0  0  0  0  0  0  0  0  0
  -89.5171   33.0349   -3.8183 C   0  0  0  0  0  0  0  0  0  0  0  0
  -89.6956   33.4971   -5.0980 C   0  0  0  0  0  0  0  0  0  0  0  0
  -89.3750   34.7914   -5.4336 C   0  0  0  0  0  0  0  0  0  0  0  0
  -89.5555   35.2532   -6.7171 F   0  0  0  0  0  0  0  0  0  0  0  0
  -88.8718   35.6044   -4.4511 C   0  0  0  0  0  0  0  0  0  0  0  0
  -88.6924   35.1242   -3.1468 C   0  0  0  0  0  0  0  0  0  0  0  0
 15 16  1  0  0  0
 16 17  1  0  0  0
 16  1  1  0  0  0
  1  2  1  0  0  0
  2  3  2  0  0  0
  3 10  1  0  0  0
 10 11  1  0  0  0
 10 12  2  0  0  0
  3  4  1  0  0  0
  4  5  2  0  0  0
  5  6  1  0  0  0
  6  7  2  0  0  0
  7 18  1  0  0  0
 18 20  1  0  0  0
 20 21  2  0  0  0
 21 22  1  0  0  0
 22 23  2  0  0  0
 23 24  1  0  0  0
 23 25  1  0  0  0
 25 26  2  0  0  0
  7  8  1  0  0  0
  8  9  2  0  0  0
  9  1  1  0  0  0
  9  4  1  0  0  0
 26 20  1  0  0  0
 11 13  1  0  0  0
 11 14  1  0  0  0
 18 19  1  0  0  0
M  END
> <minimizedAffinity>
-7.45444

> <CNNscore>
0.3841328919

> <CNNaffinity>
6.0717730522

> <CNN_VS>
2.3323676586

> <CNNaffinity_variance>
0.2595340312

$$$$
[H]c1c([H])c(N([H])c2nc([H])c3c(C(=O)N([H])[H])nn(C([H])(C([H])([H])[H])C([H])([H])[H])c3n2)c([H])c([H])c1F


 26 28  0  0  0  0  0  0  0  0999 V2000
  -86.8205   28.6496    0.5606 N   0  0  0  0  0  0  0  0  0  0  0  0
  -85.9249   27.9762    1.2499 N   0  0  0  0  0  0  0  0  0  0  0  0
  -84.8793   28.7789    1.5424 C   0  0  0  0  0  0  0  0  0  0  0  0
  -85.1762   30.0047    0.9905 C   0  0  0  0  0  0  0  0  0  0  0  0
  -84.5379   31.2292    0.9323 C   0  0  0  0  0  0  0  0  0  0  0  0
  -85.1226   32.2637    0.2905 N   0  0  0  0  0  0  0  0  0  0  0  0
  -86.3070   32.2035   -0.3145 C   0  0  0  0  0  0  0  0  0  0  0  0
  -86.9302   30.9908   -0.2521 N   0  0  0  0  0  0  0  0  0  0  0  0
  -86.4038   29.9247    0.3691 C   0  0  0  0  0  0  0  0  0  0  0  0
  -83.7017   28.4066    2.2833 C   0  0  0  0  0  0  0  0  0  0  0  0
  -82.4261   28.9810    2.0956 N   0  0  0  0  0  0  0  0  0  0  0  0
  -83.8340   27.4932    3.1676 O   0  0  0  0  0  0  0  0  0  0  0  0
  -81.7506   28.6145    1.3933 H   0  0  0  0  0  0  0  0  0  0  0  0
  -82.1965   29.8114    2.7152 H   0  0  0  0  0  0  0  0  0  0  0  0
  -88.9894   27.9238    1.2526 C   0  0  0  0  0  0  0  0  0  0  0  0
  -88.0635   28.0759    0.0902 C   0  0  0  0  0  0  0  0  0  0  0  0
  -87.7691   26.7129   -0.5278 C   0  0  0  0  0  0  0  0  0  0  0  0
  -86.9271   33.2809   -0.9882 N   0  0  0  0  0  0  0  0  0  0  0  0
  -86.7699   34.2442   -0.5138 H   0  0  0  0  0  0  0  0  0  0  0  0
  -87.7022   33.2284   -2.1633 C   0  0  0  0  0  0  0  0  0  0  0  0
  -87.1347   32.5823   -3.2752 C   0  0  0  0  0  0  0  0  0  0  0  0
  -87.7859   32.4827   -4.4790 C   0  0  0  0  0  0  0  0  0  0  0  0
  -89.0403   33.0189   -4.6511 C   0  0  0  0  0  0  0  0  0  0  0  0
  -89.6920   32.9172   -5.8586 F   0  0  0  0  0  0  0  0  0  0  0  0
  -89.6191   33.6555   -3.5838 C   0  0  0  0  0  0  0  0  0  0  0  0
  -88.9469   33.7531   -2.3579 C   0  0  0  0  0  0  0  0  0  0  0  0
 15 16  1  0  0  0
 16 17  1  0  0  0
 16  1  1  0  0  0
  1  2  1  0  0  0
  2  3  2  0  0  0
  3 10  1  0  0  0
 10 11  1  0  0  0
 10 12  2  0  0  0
  3  4  1  0  0  0
  4  5  2  0  0  0
  5  6  1  0  0  0
  6  7  2  0  0  0
  7 18  1  0  0  0
 18 20  1  0  0  0
 20 21  2  0  0  0
 21 22  1  0  0  0
 22 23  2  0  0  0
 23 24  1  0  0  0
 23 25  1  0  0  0
 25 26  2  0  0  0
  7  8  1  0  0  0
  8  9  2  0  0  0
  9  1  1  0  0  0
  9  4  1  0  0  0
 26 20  1  0  0  0
 11 13  1  0  0  0
 11 14  1  0  0  0
 18 19  1  0  0  0
M  END
> <minimizedAffinity>
-7.52685

> <CNNscore>
0.3638278544

> <CNNaffinity>
6.2800207138

> <CNN_VS>
2.2848465443

> <CNNaffinity_variance>
0.1950703859

$$$$
[H]O[C@@]([H])(C([H])([H])C(=O)N([H])[C@]([H])(C(=O)N([H])[C@@]([H])(C([H])([H])C([H])(C([H])([H])[H])C([H])([H])[H])C([H])(C([H])([H])[H])C([H])([H])[H])C([H])([H])[H])[C@@]([H])(N([H])C(=O)[C@@]([H])(N([H])C(=O)C([H])([H])C([H])(C([H])([H])[H])C([H])([H])[H])C([H])(C([H])([H])[H])C([H])([H])[H])C([H])(C([H])([H])[H])C([H])([H])[H]


 42 41  0  0  0  0  0  0  0  0999 V2000
  -88.1811   26.6766   -0.7879 C   0  0  0  0  0  0  0  0  0  0  0  0
  -88.3070   25.3097   -0.7531 O   0  0  0  0  0  0  0  0  0  0  0  0
  -88.7395   24.9605    0.0539 H   0  0  0  0  0  0  0  0  0  0  0  0
  -88.0861   27.4122    0.4901 C   0  0  0  0  0  0  0  0  0  0  0  0
  -88.5303   26.6297    1.6559 N   0  0  0  0  0  0  0  0  0  0  0  0
  -89.8274   26.7217    2.1535 C   0  0  0  0  0  0  0  0  0  0  0  0
  -90.6563   27.4872    1.5507 O   0  0  0  0  0  0  0  0  0  0  0  0
  -87.8581   25.9729    2.0960 H   0  0  0  0  0  0  0  0  0  0  0  0
  -90.3667   26.0173    3.3275 C   0  0  0  0  0  0  0  0  0  0  0  0
  -89.9424   24.6800    3.3212 N   0  0  0  0  0  0  0  0  0  0  0  0
  -90.5727   23.4701    3.5135 C   0  0  0  0  0  0  0  0  0  0  0  0
  -91.7854   23.3841    3.7856 O   0  0  0  0  0  0  0  0  0  0  0  0
  -88.8574   24.5633    3.1198 H   0  0  0  0  0  0  0  0  0  0  0  0
  -89.8482   22.1574    3.4071 C   0  0  0  0  0  0  0  0  0  0  0  0
  -90.5621   21.1787    2.5075 C   0  0  0  0  0  0  0  0  0  0  0  0
  -90.5765   19.7752    3.0599 C   0  0  0  0  0  0  0  0  0  0  0  0
  -90.0193   21.1755    1.1075 C   0  0  0  0  0  0  0  0  0  0  0  0
  -90.5001   26.8094    4.5795 C   0  0  0  0  0  0  0  0  0  0  0  0
  -89.6580   26.1272    5.7029 C   0  0  0  0  0  0  0  0  0  0  0  0
  -90.0423   28.2429    4.5023 C   0  0  0  0  0  0  0  0  0  0  0  0
  -86.6422   27.8540    0.7325 C   0  0  0  0  0  0  0  0  0  0  0  0
  -86.1168   28.8333   -0.2546 C   0  0  0  0  0  0  0  0  0  0  0  0
  -86.4688   28.3982    2.1296 C   0  0  0  0  0  0  0  0  0  0  0  0
  -89.4169   27.1508   -1.5741 C   0  0  0  0  0  0  0  0  0  0  0  0
  -89.9686   29.4124   -2.5228 N   0  0  0  0  0  0  0  0  0  0  0  0
  -89.0885   28.2995   -2.4653 C   0  0  0  0  0  0  0  0  0  0  0  0
  -88.0485   28.2796   -3.1391 O   0  0  0  0  0  0  0  0  0  0  0  0
  -90.8597   29.3832   -1.9996 H   0  0  0  0  0  0  0  0  0  0  0  0
  -89.5751   30.5557   -3.3298 C   0  0  0  0  0  0  0  0  0  0  0  0
  -90.8513   31.1373   -3.9615 C   0  0  0  0  0  0  0  0  0  0  0  0
  -88.2688   32.6337   -3.0462 N   0  0  0  0  0  0  0  0  0  0  0  0
  -89.0069   31.6330   -2.4303 C   0  0  0  0  0  0  0  0  0  0  0  0
  -89.2160   31.5604   -1.1821 O   0  0  0  0  0  0  0  0  0  0  0  0
  -88.1420   32.5756   -4.1049 H   0  0  0  0  0  0  0  0  0  0  0  0
  -87.6234   33.7850   -2.4145 C   0  0  0  0  0  0  0  0  0  0  0  0
  -88.0954   34.9938   -3.1118 C   0  0  0  0  0  0  0  0  0  0  0  0
  -89.5254   35.0316   -3.5515 C   0  0  0  0  0  0  0  0  0  0  0  0
  -87.2097   35.4595   -4.2606 C   0  0  0  0  0  0  0  0  0  0  0  0
  -86.2375   33.5876   -2.0209 C   0  0  0  0  0  0  0  0  0  0  0  0
  -84.0674   33.2824   -0.9540 C   0  0  0  0  0  0  0  0  0  0  0  0
  -85.6401   33.4636   -0.7038 C   0  0  0  0  0  0  0  0  0  0  0  0
  -85.9174   32.2436    0.1338 C   0  0  0  0  0  0  0  0  0  0  0  0
 40 41  1  0  0  0
 41 42  1  0  0  0
 41 39  1  0  0  0
 39 35  1  0  0  0
 35 31  1  0  0  0
 31 32  1  0  0  0
 32 33  2  0  0  0
 32 29  1  0  0  0
 29 30  1  0  0  0
 29 25  1  0  0  0
 25 26  1  0  0  0
 26 27  2  0  0  0
 26 24  1  0  0  0
 24  1  1  0  0  0
  1  2  1  0  0  0
  1  4  1  0  0  0
  4  5  1  0  0  0
  5  6  1  0  0  0
  6  7  2  0  0  0
  6  9  1  0  0  0
  9 10  1  0  0  0
 10 11  1  0  0  0
 11 12  2  0  0  0
 11 14  1  0  0  0
 14 15  1  0  0  0
 15 16  1  0  0  0
 15 17  1  0  0  0
  9 18  1  0  0  0
 18 19  1  0  0  0
 18 20  1  0  0  0
  4 21  1  0  0  0
 21 22  1  0  0  0
 21 23  1  0  0  0
 35 36  1  0  0  0
 36 37  1  0  0  0
 36 38  1  0  0  0
 31 34  1  0  0  0
 25 28  1  0  0  0
  2  3  1  0  0  0
  5  8  1  0  0  0
 10 13  1  0  0  0
M  END
> <minimizedAffinity>
-7.73319

> <CNNscore>
0.2584445775

> <CNNaffinity>
6.3641023636

> <CNN_VS>
1.6447677612

> <CNNaffinity_variance>
0.5398534536

$$$$
[H]O[C@@]([H])(C([H])([H])C(=O)N([H])[C@]([H])(C(=O)N([H])[C@@]([H])(C([H])([H])C([H])(C([H])([H])[H])C([H])([H])[H])C([H])(C([H])([H])[H])C([H])([H])[H])C([H])([H])[H])[C@@]([H])(N([H])C(=O)[C@@]([H])(N([H])C(=O)C([H])([H])C([H])(C([H])([H])[H])C([H])([H])[H])C([H])(C([H])([H])[H])C([H])([H])[H])C([H])(C([H])([H])[H])C([H])([H])[H]


 42 41  0  0  0  0  0  0  0  0999 V2000
  -88.8962   26.0895    1.9563 C   0  0  0  0  0  0  0  0  0  0  0  0
  -87.7092   25.8284    2.5953 O   0  0  0  0  0  0  0  0  0  0  0  0
  -87.6460   24.9328    2.9879 H   0  0  0  0  0  0  0  0  0  0  0  0
  -90.1131   25.3812    2.4045 C   0  0  0  0  0  0  0  0  0  0  0  0
  -89.8493   24.0336    2.9368 N   0  0  0  0  0  0  0  0  0  0  0  0
  -90.2446   22.8838    2.2585 C   0  0  0  0  0  0  0  0  0  0  0  0
  -90.8235   23.0157    1.1255 O   0  0  0  0  0  0  0  0  0  0  0  0
  -89.3289   23.9479    3.8305 H   0  0  0  0  0  0  0  0  0  0  0  0
  -90.0658   21.4952    2.7115 C   0  0  0  0  0  0  0  0  0  0  0  0
  -89.4925   21.4784    3.9918 N   0  0  0  0  0  0  0  0  0  0  0  0
  -88.4128   20.8329    4.5537 C   0  0  0  0  0  0  0  0  0  0  0  0
  -87.7035   20.0344    3.9123 O   0  0  0  0  0  0  0  0  0  0  0  0
  -90.0239   22.1248    4.7207 H   0  0  0  0  0  0  0  0  0  0  0  0
  -88.0028   21.0430    5.9845 C   0  0  0  0  0  0  0  0  0  0  0  0
  -87.2536   22.3377    6.1829 C   0  0  0  0  0  0  0  0  0  0  0  0
  -86.7867   22.5350    7.6035 C   0  0  0  0  0  0  0  0  0  0  0  0
  -88.0355   23.5358    5.7269 C   0  0  0  0  0  0  0  0  0  0  0  0
  -91.0988   20.5141    2.2835 C   0  0  0  0  0  0  0  0  0  0  0  0
  -90.6986   19.9315    0.8917 C   0  0  0  0  0  0  0  0  0  0  0  0
  -91.3101   19.3389    3.2027 C   0  0  0  0  0  0  0  0  0  0  0  0
  -90.8209   26.1940    3.4896 C   0  0  0  0  0  0  0  0  0  0  0  0
  -90.3090   25.9716    4.8673 C   0  0  0  0  0  0  0  0  0  0  0  0
  -90.7916   27.6685    3.1687 C   0  0  0  0  0  0  0  0  0  0  0  0
  -88.6121   25.7588    0.4797 C   0  0  0  0  0  0  0  0  0  0  0  0
  -88.7549   28.2547    0.2160 N   0  0  0  0  0  0  0  0  0  0  0  0
  -88.7365   26.9676   -0.3835 C   0  0  0  0  0  0  0  0  0  0  0  0
  -88.8122   26.8413   -1.6141 O   0  0  0  0  0  0  0  0  0  0  0  0
  -88.7513   28.3355    1.2465 H   0  0  0  0  0  0  0  0  0  0  0  0
  -88.7842   29.4164   -0.6574 C   0  0  0  0  0  0  0  0  0  0  0  0
  -89.8271   30.3950   -0.0907 C   0  0  0  0  0  0  0  0  0  0  0  0
  -86.6864   29.9206    0.5467 N   0  0  0  0  0  0  0  0  0  0  0  0
  -87.4472   30.1242   -0.5958 C   0  0  0  0  0  0  0  0  0  0  0  0
  -87.1027   30.8658   -1.5645 O   0  0  0  0  0  0  0  0  0  0  0  0
  -87.0929   29.2904    1.3069 H   0  0  0  0  0  0  0  0  0  0  0  0
  -85.3671   30.4750    0.8519 C   0  0  0  0  0  0  0  0  0  0  0  0
  -84.8244   29.7208    1.9950 C   0  0  0  0  0  0  0  0  0  0  0  0
  -85.1068   30.2396    3.3700 C   0  0  0  0  0  0  0  0  0  0  0  0
  -83.3451   29.3716    1.8898 C   0  0  0  0  0  0  0  0  0  0  0  0
  -85.2515   31.9194    0.7289 C   0  0  0  0  0  0  0  0  0  0  0  0
  -84.7578   33.2309   -1.2652 C   0  0  0  0  0  0  0  0  0  0  0  0
  -84.1983   32.7351    0.1524 C   0  0  0  0  0  0  0  0  0  0  0  0
  -82.9064   32.0952   -0.2817 C   0  0  0  0  0  0  0  0  0  0  0  0
 40 41  1  0  0  0
 41 42  1  0  0  0
 41 39  1  0  0  0
 39 35  1  0  0  0
 35 31  1  0  0  0
 31 32  1  0  0  0
 32 33  2  0  0  0
 32 29  1  0  0  0
 29 30  1  0  0  0
 29 25  1  0  0  0
 25 26  1  0  0  0
 26 27  2  0  0  0
 26 24  1  0  0  0
 24  1  1  0  0  0
  1  2  1  0  0  0
  1  4  1  0  0  0
  4  5  1  0  0  0
  5  6  1  0  0  0
  6  7  2  0  0  0
  6  9  1  0  0  0
  9 10  1  0  0  0
 10 11  1  0  0  0
 11 12  2  0  0  0
 11 14  1  0  0  0
 14 15  1  0  0  0
 15 16  1  0  0  0
 15 17  1  0  0  0
  9 18  1  0  0  0
 18 19  1  0  0  0
 18 20  1  0  0  0
  4 21  1  0  0  0
 21 22  1  0  0  0
 21 23  1  0  0  0
 35 36  1  0  0  0
 36 37  1  0  0  0
 36 38  1  0  0  0
 31 34  1  0  0  0
 25 28  1  0  0  0
  2  3  1  0  0  0
  5  8  1  0  0  0
 10 13  1  0  0  0
M  END
> <minimizedAffinity>
-7.61777

> <CNNscore>
0.1707221866

> <CNNaffinity>
6.3811073303

> <CNN_VS>
1.0893965960

> <CNNaffinity_variance>
0.4709963799

$$$$
[H]O[C@@]([H])(C([H])([H])C(=O)N([H])[C@]([H])(C(=O)N([H])[C@@]([H])(C([H])([H])C([H])(C([H])([H])[H])C([H])([H])[H])C([H])(C([H])([H])[H])C([H])([H])[H])C([H])([H])[H])[C@@]([H])(N([H])C(=O)[C@@]([H])(N([H])C(=O)C([H])([H])C([H])(C([H])([H])[H])C([H])([H])[H])C([H])(C([H])([H])[H])C([H])([H])[H])C([H])(C([H])([H])[H])C([H])([H])[H]


 42 41  0  0  0  0  0  0  0  0999 V2000
  -90.0611   26.1263    1.6605 C   0  0  0  0  0  0  0  0  0  0  0  0
  -89.5013   27.3733    1.7908 O   0  0  0  0  0  0  0  0  0  0  0  0
  -88.9061   27.4744    2.5628 H   0  0  0  0  0  0  0  0  0  0  0  0
  -90.2666   25.3113    2.8758 C   0  0  0  0  0  0  0  0  0  0  0  0
  -89.9468   23.8856    2.6913 N   0  0  0  0  0  0  0  0  0  0  0  0
  -90.7472   22.8770    3.2209 C   0  0  0  0  0  0  0  0  0  0  0  0
  -91.8059   23.2122    3.8559 O   0  0  0  0  0  0  0  0  0  0  0  0
  -89.1138   23.6347    2.1256 H   0  0  0  0  0  0  0  0  0  0  0  0
  -90.5052   21.4284    3.1294 C   0  0  0  0  0  0  0  0  0  0  0  0
  -91.4248   20.8435    2.2459 N   0  0  0  0  0  0  0  0  0  0  0  0
  -91.5320   20.7776    0.8739 C   0  0  0  0  0  0  0  0  0  0  0  0
  -90.7177   21.3336    0.1124 O   0  0  0  0  0  0  0  0  0  0  0  0
  -92.2556   20.3172    2.7599 H   0  0  0  0  0  0  0  0  0  0  0  0
  -92.6381   20.0269    0.1866 C   0  0  0  0  0  0  0  0  0  0  0  0
  -93.7581   20.9349   -0.2585 C   0  0  0  0  0  0  0  0  0  0  0  0
  -95.0903   20.5634    0.3434 C   0  0  0  0  0  0  0  0  0  0  0  0
  -93.8747   21.0222   -1.7529 C   0  0  0  0  0  0  0  0  0  0  0  0
  -89.0904   20.9795    3.2260 C   0  0  0  0  0  0  0  0  0  0  0  0
  -88.6239   21.0899    4.7115 C   0  0  0  0  0  0  0  0  0  0  0  0
  -88.8189   19.5633    2.7888 C   0  0  0  0  0  0  0  0  0  0  0  0
  -89.4051   25.8508    4.0185 C   0  0  0  0  0  0  0  0  0  0  0  0
  -90.1518   26.6084    5.0567 C   0  0  0  0  0  0  0  0  0  0  0  0
  -88.6123   24.7437    4.6694 C   0  0  0  0  0  0  0  0  0  0  0  0
  -89.1216   25.3892    0.6886 C   0  0  0  0  0  0  0  0  0  0  0  0
  -88.4637   27.2480   -0.8707 N   0  0  0  0  0  0  0  0  0  0  0  0
  -88.0910   26.3068    0.1251 C   0  0  0  0  0  0  0  0  0  0  0  0
  -86.9230   26.2488    0.5357 O   0  0  0  0  0  0  0  0  0  0  0  0
  -89.4283   27.2397   -1.2422 H   0  0  0  0  0  0  0  0  0  0  0  0
  -87.4577   28.1898   -1.3334 C   0  0  0  0  0  0  0  0  0  0  0  0
  -87.8190   28.5805   -2.7767 C   0  0  0  0  0  0  0  0  0  0  0  0
  -86.5819   30.4286   -0.7625 N   0  0  0  0  0  0  0  0  0  0  0  0
  -87.5392   29.4566   -0.5081 C   0  0  0  0  0  0  0  0  0  0  0  0
  -88.4497   29.5582    0.3679 O   0  0  0  0  0  0  0  0  0  0  0  0
  -85.8500   30.2191   -1.5112 H   0  0  0  0  0  0  0  0  0  0  0  0
  -86.4421   31.7347   -0.1180 C   0  0  0  0  0  0  0  0  0  0  0  0
  -87.1959   32.7091   -0.9258 C   0  0  0  0  0  0  0  0  0  0  0  0
  -88.6793   32.7716   -0.7379 C   0  0  0  0  0  0  0  0  0  0  0  0
  -86.8844   32.6847   -2.4170 C   0  0  0  0  0  0  0  0  0  0  0  0
  -85.1316   32.0177    0.4453 C   0  0  0  0  0  0  0  0  0  0  0  0
  -83.1189   30.8417    1.1570 C   0  0  0  0  0  0  0  0  0  0  0  0
  -84.4916   31.5097    1.6450 C   0  0  0  0  0  0  0  0  0  0  0  0
  -85.1014   30.3503    2.3871 C   0  0  0  0  0  0  0  0  0  0  0  0
 40 41  1  0  0  0
 41 42  1  0  0  0
 41 39  1  0  0  0
 39 35  1  0  0  0
 35 31  1  0  0  0
 31 32  1  0  0  0
 32 33  2  0  0  0
 32 29  1  0  0  0
 29 30  1  0  0  0
 29 25  1  0  0  0
 25 26  1  0  0  0
 26 27  2  0  0  0
 26 24  1  0  0  0
 24  1  1  0  0  0
  1  2  1  0  0  0
  1  4  1  0  0  0
  4  5  1  0  0  0
  5  6  1  0  0  0
  6  7  2  0  0  0
  6  9  1  0  0  0
  9 10  1  0  0  0
 10 11  1  0  0  0
 11 12  2  0  0  0
 11 14  1  0  0  0
 14 15  1  0  0  0
 15 16  1  0  0  0
 15 17  1  0  0  0
  9 18  1  0  0  0
 18 19  1  0  0  0
 18 20  1  0  0  0
  4 21  1  0  0  0
 21 22  1  0  0  0
 21 23  1  0  0  0
 35 36  1  0  0  0
 36 37  1  0  0  0
 36 38  1  0  0  0
 31 34  1  0  0  0
 25 28  1  0  0  0
  2  3  1  0  0  0
  5  8  1  0  0  0
 10 13  1  0  0  0
M  END
> <minimizedAffinity>
-7.50215

> <CNNscore>
0.1519449949

> <CNNaffinity>
6.1394462585

> <CNN_VS>
0.9328581095

> <CNNaffinity_variance>
0.2247123718

$$$$
[H]O[C@@]([H])(C([H])([H])C(=O)N([H])[C@]([H])(C(=O)N([H])[C@@]([H])(C([H])([H])C([H])(C([H])([H])[H])C([H])([H])[H])C([H])(C([H])([H])[H])C([H])([H])[H])C([H])([H])[H])[C@@]([H])(N([H])C(=O)[C@@]([H])(N([H])C(=O)C([H])([H])C([H])(C([H])([H])[H])C([H])([H])[H])C([H])(C([H])([H])[H])C([H])([H])[H])C([H])(C([H])([H])[H])C([H])([H])[H]


 42 41  0  0  0  0  0  0  0  0999 V2000
  -92.0009   26.7068   -2.0291 C   0  0  0  0  0  0  0  0  0  0  0  0
  -92.2208   27.8399   -1.2853 O   0  0  0  0  0  0  0  0  0  0  0  0
  -91.7990   27.8351   -0.4007 H   0  0  0  0  0  0  0  0  0  0  0  0
  -91.7569   25.4319   -1.3232 C   0  0  0  0  0  0  0  0  0  0  0  0
  -91.7392   25.5634    0.1435 N   0  0  0  0  0  0  0  0  0  0  0  0
  -90.5537   25.7361    0.8529 C   0  0  0  0  0  0  0  0  0  0  0  0
  -89.4587   25.8140    0.1962 O   0  0  0  0  0  0  0  0  0  0  0  0
  -92.6438   25.5533    0.6520 H   0  0  0  0  0  0  0  0  0  0  0  0
  -90.4154   25.8422    2.3141 C   0  0  0  0  0  0  0  0  0  0  0  0
  -89.9258   24.6365    2.8383 N   0  0  0  0  0  0  0  0  0  0  0  0
  -90.4953   23.5807    3.5159 C   0  0  0  0  0  0  0  0  0  0  0  0
  -91.7017   23.5583    3.8259 O   0  0  0  0  0  0  0  0  0  0  0  0
  -88.8367   24.4966    2.6775 H   0  0  0  0  0  0  0  0  0  0  0  0
  -89.7071   22.3703    3.9321 C   0  0  0  0  0  0  0  0  0  0  0  0
  -90.1599   21.1182    3.2220 C   0  0  0  0  0  0  0  0  0  0  0  0
  -89.3693   19.8974    3.6216 C   0  0  0  0  0  0  0  0  0  0  0  0
  -90.1584   21.2662    1.7278 C   0  0  0  0  0  0  0  0  0  0  0  0
  -90.0176   27.1702    2.8533 C   0  0  0  0  0  0  0  0  0  0  0  0
  -90.9760   28.2591    2.2767 C   0  0  0  0  0  0  0  0  0  0  0  0
  -90.0545   27.3084    4.3534 C   0  0  0  0  0  0  0  0  0  0  0  0
  -92.8331   24.4123   -1.6991 C   0  0  0  0  0  0  0  0  0  0  0  0
  -94.2080   24.9679   -1.8020 C   0  0  0  0  0  0  0  0  0  0  0  0
  -92.4778   23.6956   -2.9789 C   0  0  0  0  0  0  0  0  0  0  0  0
  -90.7862   27.0599   -2.9068 C   0  0  0  0  0  0  0  0  0  0  0  0
  -89.5157   28.5466   -1.3273 N   0  0  0  0  0  0  0  0  0  0  0  0
  -90.2237   28.3929   -2.5486 C   0  0  0  0  0  0  0  0  0  0  0  0
  -90.3686   29.3512   -3.3211 O   0  0  0  0  0  0  0  0  0  0  0  0
  -89.4579   27.7511   -0.6698 H   0  0  0  0  0  0  0  0  0  0  0  0
  -88.9006   29.8342   -1.0498 C   0  0  0  0  0  0  0  0  0  0  0  0
  -89.9224   30.6758   -0.2664 C   0  0  0  0  0  0  0  0  0  0  0  0
  -86.6604   30.5312   -0.2746 N   0  0  0  0  0  0  0  0  0  0  0  0
  -87.7107   29.6350   -0.1350 C   0  0  0  0  0  0  0  0  0  0  0  0
  -87.7254   28.6692    0.6858 O   0  0  0  0  0  0  0  0  0  0  0  0
  -86.7538   31.2920   -1.0181 H   0  0  0  0  0  0  0  0  0  0  0  0
  -85.4093   30.5661    0.4832 C   0  0  0  0  0  0  0  0  0  0  0  0
  -84.6301   31.7180   -0.0027 C   0  0  0  0  0  0  0  0  0  0  0  0
  -83.3476   32.0382    0.6989 C   0  0  0  0  0  0  0  0  0  0  0  0
  -85.4295   33.0018   -0.1876 C   0  0  0  0  0  0  0  0  0  0  0  0
  -84.8138   29.2703    0.7682 C   0  0  0  0  0  0  0  0  0  0  0  0
  -85.1437   29.5819    3.1629 C   0  0  0  0  0  0  0  0  0  0  0  0
  -84.6386   28.5698    2.0274 C   0  0  0  0  0  0  0  0  0  0  0  0
  -83.2523   28.2733    2.5344 C   0  0  0  0  0  0  0  0  0  0  0  0
 40 41  1  0  0  0
 41 42  1  0  0  0
 41 39  1  0  0  0
 39 35  1  0  0  0
 35 31  1  0  0  0
 31 32  1  0  0  0
 32 33  2  0  0  0
 32 29  1  0  0  0
 29 30  1  0  0  0
 29 25  1  0  0  0
 25 26  1  0  0  0
 26 27  2  0  0  0
 26 24  1  0  0  0
 24  1  1  0  0  0
  1  2  1  0  0  0
  1  4  1  0  0  0
  4  5  1  0  0  0
  5  6  1  0  0  0
  6  7  2  0  0  0
  6  9  1  0  0  0
  9 10  1  0  0  0
 10 11  1  0  0  0
 11 12  2  0  0  0
 11 14  1  0  0  0
 14 15  1  0  0  0
 15 16  1  0  0  0
 15 17  1  0  0  0
  9 18  1  0  0  0
 18 19  1  0  0  0
 18 20  1  0  0  0
  4 21  1  0  0  0
 21 22  1  0  0  0
 21 23  1  0  0  0
 35 36  1  0  0  0
 36 37  1  0  0  0
 36 38  1  0  0  0
 31 34  1  0  0  0
 25 28  1  0  0  0
  2  3  1  0  0  0
  5  8  1  0  0  0
 10 13  1  0  0  0
M  END
> <minimizedAffinity>
-7.82872

> <CNNscore>
0.1161424965

> <CNNaffinity>
6.0802183151

> <CNN_VS>
0.7061717510

> <CNNaffinity_variance>
0.8498185277

$$$$
[H]O[C@@]([H])(C([H])([H])C(=O)N([H])[C@]([H])(C(=O)N([H])[C@@]([H])(C([H])([H])C([H])(C([H])([H])[H])C([H])([H])[H])C([H])(C([H])([H])[H])C([H])([H])[H])C([H])([H])[H])[C@@]([H])(N([H])C(=O)[C@@]([H])(N([H])C(=O)C([H])([H])C([H])(C([H])([H])[H])C([H])([H])[H])C([H])(C([H])([H])[H])C([H])([H])[H])C([H])(C([H])([H])[H])C([H])([H])[H]


 42 41  0  0  0  0  0  0  0  0999 V2000
  -90.1834   26.9007   -0.8335 C   0  0  0  0  0  0  0  0  0  0  0  0
  -90.9635   27.9889   -0.5290 O   0  0  0  0  0  0  0  0  0  0  0  0
  -90.4668   28.8242   -0.4032 H   0  0  0  0  0  0  0  0  0  0  0  0
  -88.7851   26.8755   -0.3565 C   0  0  0  0  0  0  0  0  0  0  0  0
  -88.3096   28.1753    0.1465 N   0  0  0  0  0  0  0  0  0  0  0  0
  -87.6571   29.0892   -0.6766 C   0  0  0  0  0  0  0  0  0  0  0  0
  -87.5022   28.7921   -1.9111 O   0  0  0  0  0  0  0  0  0  0  0  0
  -88.4949   28.4199    1.1379 H   0  0  0  0  0  0  0  0  0  0  0  0
  -87.1108   30.3951   -0.2744 C   0  0  0  0  0  0  0  0  0  0  0  0
  -85.7920   30.2439    0.1796 N   0  0  0  0  0  0  0  0  0  0  0  0
  -85.2083   29.5752    1.2334 C   0  0  0  0  0  0  0  0  0  0  0  0
  -85.8739   28.9359    2.0702 O   0  0  0  0  0  0  0  0  0  0  0  0
  -85.0477   30.7831   -0.4423 H   0  0  0  0  0  0  0  0  0  0  0  0
  -83.7217   29.5612    1.4554 C   0  0  0  0  0  0  0  0  0  0  0  0
  -83.1422   30.9511    1.5503 C   0  0  0  0  0  0  0  0  0  0  0  0
  -84.0860   31.9391    2.1893 C   0  0  0  0  0  0  0  0  0  0  0  0
  -82.6695   31.4741    0.2246 C   0  0  0  0  0  0  0  0  0  0  0  0
  -87.5571   31.5770   -1.0596 C   0  0  0  0  0  0  0  0  0  0  0  0
  -89.0082   31.9550   -0.6260 C   0  0  0  0  0  0  0  0  0  0  0  0
  -86.7199   32.8207   -0.9085 C   0  0  0  0  0  0  0  0  0  0  0  0
  -88.6336   25.8448    0.7633 C   0  0  0  0  0  0  0  0  0  0  0  0
  -88.2766   26.4142    2.0891 C   0  0  0  0  0  0  0  0  0  0  0  0
  -89.8760   24.9975    0.8922 C   0  0  0  0  0  0  0  0  0  0  0  0
  -90.2131   26.8319   -2.3713 C   0  0  0  0  0  0  0  0  0  0  0  0
  -90.3699   29.2421   -3.0681 N   0  0  0  0  0  0  0  0  0  0  0  0
  -90.9842   27.9670   -2.9531 C   0  0  0  0  0  0  0  0  0  0  0  0
  -92.1478   27.7878   -3.3403 O   0  0  0  0  0  0  0  0  0  0  0  0
  -89.4207   29.3854   -2.6846 H   0  0  0  0  0  0  0  0  0  0  0  0
  -91.1150   30.3045   -3.7233 C   0  0  0  0  0  0  0  0  0  0  0  0
  -91.7528   31.1692   -2.6225 C   0  0  0  0  0  0  0  0  0  0  0  0
  -90.5772   32.4987   -4.7241 N   0  0  0  0  0  0  0  0  0  0  0  0
  -90.1543   31.2004   -4.4762 C   0  0  0  0  0  0  0  0  0  0  0  0
  -89.0400   30.7252   -4.8494 O   0  0  0  0  0  0  0  0  0  0  0  0
  -91.5485   32.7777   -4.3790 H   0  0  0  0  0  0  0  0  0  0  0  0
  -89.8457   33.5593   -5.4176 C   0  0  0  0  0  0  0  0  0  0  0  0
  -88.8234   34.0713   -4.4886 C   0  0  0  0  0  0  0  0  0  0  0  0
  -89.2877   34.6323   -3.1812 C   0  0  0  0  0  0  0  0  0  0  0  0
  -87.8133   35.0281   -5.1094 C   0  0  0  0  0  0  0  0  0  0  0  0
  -90.6512   34.4245   -6.2645 C   0  0  0  0  0  0  0  0  0  0  0  0
  -91.0678   36.3241   -7.7337 C   0  0  0  0  0  0  0  0  0  0  0  0
  -90.4542   34.8465   -7.6394 C   0  0  0  0  0  0  0  0  0  0  0  0
  -91.2171   34.1714   -8.7479 C   0  0  0  0  0  0  0  0  0  0  0  0
 40 41  1  0  0  0
 41 42  1  0  0  0
 41 39  1  0  0  0
 39 35  1  0  0  0
 35 31  1  0  0  0
 31 32  1  0  0  0
 32 33  2  0  0  0
 32 29  1  0  0  0
 29 30  1  0  0  0
 29 25  1  0  0  0
 25 26  1  0  0  0
 26 27  2  0  0  0
 26 24  1  0  0  0
 24  1  1  0  0  0
  1  2  1  0  0  0
  1  4  1  0  0  0
  4  5  1  0  0  0
  5  6  1  0  0  0
  6  7  2  0  0  0
  6  9  1  0  0  0
  9 10  1  0  0  0
 10 11  1  0  0  0
 11 12  2  0  0  0
 11 14  1  0  0  0
 14 15  1  0  0  0
 15 16  1  0  0  0
 15 17  1  0  0  0
  9 18  1  0  0  0
 18 19  1  0  0  0
 18 20  1  0  0  0
  4 21  1  0  0  0
 21 22  1  0  0  0
 21 23  1  0  0  0
 35 36  1  0  0  0
 36 37  1  0  0  0
 36 38  1  0  0  0
 31 34  1  0  0  0
 25 28  1  0  0  0
  2  3  1  0  0  0
  5  8  1  0  0  0
 10 13  1  0  0  0
M  END
> <minimizedAffinity>
-7.13093

> <CNNscore>
0.1128254011

> <CNNaffinity>
6.4268631935

> <CNN_VS>
0.7251133919

> <CNNaffinity_variance>
0.3323937356

$$$$
[H]O[C@@]([H])(C([H])([H])C(=O)N([H])[C@]([H])(C(=O)N([H])[C@@]([H])(C([H])([H])C([H])(C([H])([H])[H])C([H])([H])[H])C([H])(C([H])([H])[H])C([H])([H])[H])C([H])([H])[H])[C@@]([H])(N([H])C(=O)[C@@]([H])(N([H])C(=O)C([H])([H])C([H])(C([H])([H])[H])C([H])([H])[H])C([H])(C([H])([H])[H])C([H])([H])[H])C([H])(C([H])([H])[H])C([H])([H])[H]


 42 41  0  0  0  0  0  0  0  0999 V2000
  -91.3387   25.2894   -1.4520 C   0  0  0  0  0  0  0  0  0  0  0  0
  -91.5167   26.0056   -0.2941 O   0  0  0  0  0  0  0  0  0  0  0  0
  -91.3656   25.4949    0.5285 H   0  0  0  0  0  0  0  0  0  0  0  0
  -91.5672   23.8297   -1.4246 C   0  0  0  0  0  0  0  0  0  0  0  0
  -91.4963   23.2465   -0.0742 N   0  0  0  0  0  0  0  0  0  0  0  0
  -90.5030   22.3395    0.2848 C   0  0  0  0  0  0  0  0  0  0  0  0
  -89.6132   22.0379   -0.5834 O   0  0  0  0  0  0  0  0  0  0  0  0
  -92.1950   23.5471    0.6318 H   0  0  0  0  0  0  0  0  0  0  0  0
  -90.3577   21.6703    1.5873 C   0  0  0  0  0  0  0  0  0  0  0  0
  -89.9687   22.6000    2.5634 N   0  0  0  0  0  0  0  0  0  0  0  0
  -90.6472   23.4792    3.3787 C   0  0  0  0  0  0  0  0  0  0  0  0
  -91.8857   23.6080    3.3386 O   0  0  0  0  0  0  0  0  0  0  0  0
  -88.8704   22.6447    2.7159 H   0  0  0  0  0  0  0  0  0  0  0  0
  -89.9474   24.3507    4.3839 C   0  0  0  0  0  0  0  0  0  0  0  0
  -90.2991   25.8092    4.2227 C   0  0  0  0  0  0  0  0  0  0  0  0
  -89.6724   26.4334    3.0010 C   0  0  0  0  0  0  0  0  0  0  0  0
  -89.9720   26.6227    5.4417 C   0  0  0  0  0  0  0  0  0  0  0  0
  -91.2981   20.5540    1.8740 C   0  0  0  0  0  0  0  0  0  0  0  0
  -91.6218   19.8090    0.5411 C   0  0  0  0  0  0  0  0  0  0  0  0
  -90.8056   19.5129    2.8458 C   0  0  0  0  0  0  0  0  0  0  0  0
  -92.9402   23.5047   -2.0146 C   0  0  0  0  0  0  0  0  0  0  0  0
  -93.6502   24.6645   -2.6149 C   0  0  0  0  0  0  0  0  0  0  0  0
  -92.8456   22.3883   -3.0258 C   0  0  0  0  0  0  0  0  0  0  0  0
  -89.8835   25.5838   -1.8595 C   0  0  0  0  0  0  0  0  0  0  0  0
  -89.1093   27.8414   -1.0703 N   0  0  0  0  0  0  0  0  0  0  0  0
  -89.6683   27.0390   -2.0998 C   0  0  0  0  0  0  0  0  0  0  0  0
  -89.9681   27.5339   -3.1959 O   0  0  0  0  0  0  0  0  0  0  0  0
  -88.9223   27.4222   -0.1441 H   0  0  0  0  0  0  0  0  0  0  0  0
  -88.8265   29.2362   -1.3667 C   0  0  0  0  0  0  0  0  0  0  0  0
  -89.7675   30.0928   -0.5024 C   0  0  0  0  0  0  0  0  0  0  0  0
  -87.2232   30.7996   -0.3225 N   0  0  0  0  0  0  0  0  0  0  0  0
  -87.4152   29.5660   -0.9285 C   0  0  0  0  0  0  0  0  0  0  0  0
  -86.4943   28.7227   -1.1468 O   0  0  0  0  0  0  0  0  0  0  0  0
  -88.0739   31.4356   -0.2130 H   0  0  0  0  0  0  0  0  0  0  0  0
  -85.9726   31.3551    0.1957 C   0  0  0  0  0  0  0  0  0  0  0  0
  -85.7857   32.6778   -0.4252 C   0  0  0  0  0  0  0  0  0  0  0  0
  -86.5974   32.9983   -1.6409 C   0  0  0  0  0  0  0  0  0  0  0  0
  -84.3352   33.0689   -0.6788 C   0  0  0  0  0  0  0  0  0  0  0  0
  -84.8888   30.4013    0.3699 C   0  0  0  0  0  0  0  0  0  0  0  0
  -84.8364   30.6651    2.7924 C   0  0  0  0  0  0  0  0  0  0  0  0
  -84.4057   29.7309    1.5634 C   0  0  0  0  0  0  0  0  0  0  0  0
  -82.9255   29.6249    1.8171 C   0  0  0  0  0  0  0  0  0  0  0  0
 40 41  1  0  0  0
 41 42  1  0  0  0
 41 39  1  0  0  0
 39 35  1  0  0  0
 35 31  1  0  0  0
 31 32  1  0  0  0
 32 33  2  0  0  0
 32 29  1  0  0  0
 29 30  1  0  0  0
 29 25  1  0  0  0
 25 26  1  0  0  0
 26 27  2  0  0  0
 26 24  1  0  0  0
 24  1  1  0  0  0
  1  2  1  0  0  0
  1  4  1  0  0  0
  4  5  1  0  0  0
  5  6  1  0  0  0
  6  7  2  0  0  0
  6  9  1  0  0  0
  9 10  1  0  0  0
 10 11  1  0  0  0
 11 12  2  0  0  0
 11 14  1  0  0  0
 14 15  1  0  0  0
 15 16  1  0  0  0
 15 17  1  0  0  0
  9 18  1  0  0  0
 18 19  1  0  0  0
 18 20  1  0  0  0
  4 21  1  0  0  0
 21 22  1  0  0  0
 21 23  1  0  0  0
 35 36  1  0  0  0
 36 37  1  0  0  0
 36 38  1  0  0  0
 31 34  1  0  0  0
 25 28  1  0  0  0
  2  3  1  0  0  0
  5  8  1  0  0  0
 10 13  1  0  0  0
M  END
> <minimizedAffinity>
-7.70324

> <CNNscore>
0.1054441258

> <CNNaffinity>
6.1520948410

> <CNN_VS>
0.6487022638

> <CNNaffinity_variance>
0.4521982074

$$$$
[H]O[C@@]([H])(C([H])([H])C(=O)N([H])[C@]([H])(C(=O)N([H])[C@@]([H])(C([H])([H])C([H])(C([H])([H])[H])C([H])([H])[H])C([H])(C([H])([H])[H])C([H])([H])[H])C([H])([H])[H])[C@@]([H])(N([H])C(=O)[C@@]([H])(N([H])C(=O)C([H])([H])C([H])(C([H])([H])[H])C([H])([H])[H])C([H])(C([H])([H])[H])C([H])([H])[H])C([H])(C([H])([H])[H])C([H])([H])[H]


 42 41  0  0  0  0  0  0  0  0999 V2000
  -90.8704   27.4885   -2.3603 C   0  0  0  0  0  0  0  0  0  0  0  0
  -89.7087   27.2966   -3.0668 O   0  0  0  0  0  0  0  0  0  0  0  0
  -89.8279   26.8628   -3.9374 H   0  0  0  0  0  0  0  0  0  0  0  0
  -91.9986   26.5613   -2.5863 C   0  0  0  0  0  0  0  0  0  0  0  0
  -92.7892   26.8758   -3.7883 N   0  0  0  0  0  0  0  0  0  0  0  0
  -94.1067   27.3188   -3.7077 C   0  0  0  0  0  0  0  0  0  0  0  0
  -94.6221   27.4845   -2.5487 O   0  0  0  0  0  0  0  0  0  0  0  0
  -92.3341   26.7879   -4.7167 H   0  0  0  0  0  0  0  0  0  0  0  0
  -94.9974   27.6266   -4.8379 C   0  0  0  0  0  0  0  0  0  0  0  0
  -94.9419   28.9971   -5.1329 N   0  0  0  0  0  0  0  0  0  0  0  0
  -93.9577   29.8417   -5.5976 C   0  0  0  0  0  0  0  0  0  0  0  0
  -92.7980   29.4516   -5.8321 O   0  0  0  0  0  0  0  0  0  0  0  0
  -95.9004   29.5258   -4.9507 H   0  0  0  0  0  0  0  0  0  0  0  0
  -94.2056   31.3006   -5.8618 C   0  0  0  0  0  0  0  0  0  0  0  0
  -94.3422   31.6024   -7.3339 C   0  0  0  0  0  0  0  0  0  0  0  0
  -94.2962   33.0791   -7.6379 C   0  0  0  0  0  0  0  0  0  0  0  0
  -95.5722   30.9902   -7.9396 C   0  0  0  0  0  0  0  0  0  0  0  0
  -95.1243   26.5849   -5.8921 C   0  0  0  0  0  0  0  0  0  0  0  0
  -96.1913   27.0457   -6.9341 C   0  0  0  0  0  0  0  0  0  0  0  0
  -93.8680   26.2745   -6.6640 C   0  0  0  0  0  0  0  0  0  0  0  0
  -91.4794   25.1287   -2.7166 C   0  0  0  0  0  0  0  0  0  0  0  0
  -90.9628   24.5367   -1.4547 C   0  0  0  0  0  0  0  0  0  0  0  0
  -92.5307   24.2226   -3.3095 C   0  0  0  0  0  0  0  0  0  0  0  0
  -91.2952   28.9256   -2.7131 C   0  0  0  0  0  0  0  0  0  0  0  0
  -89.5747   30.3171   -1.5203 N   0  0  0  0  0  0  0  0  0  0  0  0
  -90.1252   29.8485   -2.7425 C   0  0  0  0  0  0  0  0  0  0  0  0
  -89.6367   30.1905   -3.8291 O   0  0  0  0  0  0  0  0  0  0  0  0
  -90.0333   30.0684   -0.6279 H   0  0  0  0  0  0  0  0  0  0  0  0
  -88.3785   31.1410   -1.5795 C   0  0  0  0  0  0  0  0  0  0  0  0
  -88.7884   32.5783   -1.2157 C   0  0  0  0  0  0  0  0  0  0  0  0
  -86.1819   31.3440   -0.4664 N   0  0  0  0  0  0  0  0  0  0  0  0
  -87.4027   30.6859   -0.5149 C   0  0  0  0  0  0  0  0  0  0  0  0
  -87.7361   29.7347    0.2537 O   0  0  0  0  0  0  0  0  0  0  0  0
  -86.0067   32.1165   -1.1825 H   0  0  0  0  0  0  0  0  0  0  0  0
  -85.0757   31.1069    0.4615 C   0  0  0  0  0  0  0  0  0  0  0  0
  -84.1416   32.2388    0.3342 C   0  0  0  0  0  0  0  0  0  0  0  0
  -84.3786   33.2173   -0.7731 C   0  0  0  0  0  0  0  0  0  0  0  0
  -82.6662   31.8593    0.3548 C   0  0  0  0  0  0  0  0  0  0  0  0
  -84.6358   29.7251    0.5709 C   0  0  0  0  0  0  0  0  0  0  0  0
  -85.1194   29.6840    2.9594 C   0  0  0  0  0  0  0  0  0  0  0  0
  -84.4594   28.8817    1.7390 C   0  0  0  0  0  0  0  0  0  0  0  0
  -83.0792   28.6459    2.2925 C   0  0  0  0  0  0  0  0  0  0  0  0
 40 41  1  0  0  0
 41 42  1  0  0  0
 41 39  1  0  0  0
 39 35  1  0  0  0
 35 31  1  0  0  0
 31 32  1  0  0  0
 32 33  2  0  0  0
 32 29  1  0  0  0
 29 30  1  0  0  0
 29 25  1  0  0  0
 25 26  1  0  0  0
 26 27  2  0  0  0
 26 24  1  0  0  0
 24  1  1  0  0  0
  1  2  1  0  0  0
  1  4  1  0  0  0
  4  5  1  0  0  0
  5  6  1  0  0  0
  6  7  2  0  0  0
  6  9  1  0  0  0
  9 10  1  0  0  0
 10 11  1  0  0  0
 11 12  2  0  0  0
 11 14  1  0  0  0
 14 15  1  0  0  0
 15 16  1  0  0  0
 15 17  1  0  0  0
  9 18  1  0  0  0
 18 19  1  0  0  0
 18 20  1  0  0  0
  4 21  1  0  0  0
 21 22  1  0  0  0
 21 23  1  0  0  0
 35 36  1  0  0  0
 36 37  1  0  0  0
 36 38  1  0  0  0
 31 34  1  0  0  0
 25 28  1  0  0  0
  2  3  1  0  0  0
  5  8  1  0  0  0
 10 13  1  0  0  0
M  END
> <minimizedAffinity>
-6.58365

> <CNNscore>
0.0836340487

> <CNNaffinity>
5.6047115326

> <CNN_VS>
0.4687447250

> <CNNaffinity_variance>
0.3983125687

$$$$
[H]O[C@@]([H])(C([H])([H])C(=O)N([H])[C@]([H])(C(=O)N([H])[C@@]([H])(C([H])([H])C([H])(C([H])([H])[H])C([H])([H])[H])C([H])(C([H])([H])[H])C([H])([H])[H])C([H])([H])[H])[C@@]([H])(N([H])C(=O)[C@@]([H])(N([H])C(=O)C([H])([H])C([H])(C([H])([H])[H])C([H])([H])[H])C([H])(C([H])([H])[H])C([H])([H])[H])C([H])(C([H])([H])[H])C([H])([H])[H]


 42 41  0  0  0  0  0  0  0  0999 V2000
  -89.1707   26.1409   -1.3600 C   0  0  0  0  0  0  0  0  0  0  0  0
  -88.8272   25.0140   -2.0653 O   0  0  0  0  0  0  0  0  0  0  0  0
  -89.5289   24.3313   -2.1101 H   0  0  0  0  0  0  0  0  0  0  0  0
  -90.1698   26.0224   -0.2778 C   0  0  0  0  0  0  0  0  0  0  0  0
  -91.1528   24.9480   -0.4970 N   0  0  0  0  0  0  0  0  0  0  0  0
  -92.4646   25.2169   -0.8782 C   0  0  0  0  0  0  0  0  0  0  0  0
  -92.8033   26.4351   -1.0719 O   0  0  0  0  0  0  0  0  0  0  0  0
  -90.8423   23.9638   -0.3886 H   0  0  0  0  0  0  0  0  0  0  0  0
  -93.5349   24.2293   -1.0892 C   0  0  0  0  0  0  0  0  0  0  0  0
  -93.9425   24.2432   -2.4315 N   0  0  0  0  0  0  0  0  0  0  0  0
  -95.1606   24.3541   -3.0657 C   0  0  0  0  0  0  0  0  0  0  0  0
  -96.2339   24.4461   -2.4399 O   0  0  0  0  0  0  0  0  0  0  0  0
  -93.1015   24.1392   -3.1481 H   0  0  0  0  0  0  0  0  0  0  0  0
  -95.2912   24.3761   -4.5630 C   0  0  0  0  0  0  0  0  0  0  0  0
  -94.6135   25.5743   -5.1809 C   0  0  0  0  0  0  0  0  0  0  0  0
  -95.4694   26.8159   -5.1472 C   0  0  0  0  0  0  0  0  0  0  0  0
  -94.1390   25.3140   -6.5815 C   0  0  0  0  0  0  0  0  0  0  0  0
  -93.4573   22.9780   -0.2886 C   0  0  0  0  0  0  0  0  0  0  0  0
  -94.7931   22.7962    0.4983 C   0  0  0  0  0  0  0  0  0  0  0  0
  -93.2374   21.7094   -1.0714 C   0  0  0  0  0  0  0  0  0  0  0  0
  -89.4672   25.7632    1.0557 C   0  0  0  0  0  0  0  0  0  0  0  0
  -88.0839   26.2997    1.1451 C   0  0  0  0  0  0  0  0  0  0  0  0
  -90.2885   26.2812    2.2112 C   0  0  0  0  0  0  0  0  0  0  0  0
  -89.6767   27.1205   -2.4345 C   0  0  0  0  0  0  0  0  0  0  0  0
  -89.2053   29.3639   -1.4029 N   0  0  0  0  0  0  0  0  0  0  0  0
  -88.9155   28.4017   -2.4062 C   0  0  0  0  0  0  0  0  0  0  0  0
  -88.0315   28.6126   -3.2489 O   0  0  0  0  0  0  0  0  0  0  0  0
  -89.9861   29.1949   -0.7470 H   0  0  0  0  0  0  0  0  0  0  0  0
  -88.3840   30.5620   -1.3456 C   0  0  0  0  0  0  0  0  0  0  0  0
  -89.2840   31.7178   -0.8759 C   0  0  0  0  0  0  0  0  0  0  0  0
  -86.1854   31.1846   -0.4057 N   0  0  0  0  0  0  0  0  0  0  0  0
  -87.3151   30.3875   -0.2876 C   0  0  0  0  0  0  0  0  0  0  0  0
  -87.4942   29.5278    0.6265 O   0  0  0  0  0  0  0  0  0  0  0  0
  -86.1385   31.8579   -1.2332 H   0  0  0  0  0  0  0  0  0  0  0  0
  -85.0202   31.2193    0.4786 C   0  0  0  0  0  0  0  0  0  0  0  0
  -84.2217   32.4015    0.1116 C   0  0  0  0  0  0  0  0  0  0  0  0
  -84.7414   33.2821   -0.9812 C   0  0  0  0  0  0  0  0  0  0  0  0
  -82.7430   32.1272   -0.1320 C   0  0  0  0  0  0  0  0  0  0  0  0
  -84.4278   29.9268    0.7843 C   0  0  0  0  0  0  0  0  0  0  0  0
  -82.5463   29.0443    2.0578 C   0  0  0  0  0  0  0  0  0  0  0  0
  -84.1276   29.3058    2.0615 C   0  0  0  0  0  0  0  0  0  0  0  0
  -84.6253   27.9156    2.3551 C   0  0  0  0  0  0  0  0  0  0  0  0
 40 41  1  0  0  0
 41 42  1  0  0  0
 41 39  1  0  0  0
 39 35  1  0  0  0
 35 31  1  0  0  0
 31 32  1  0  0  0
 32 33  2  0  0  0
 32 29  1  0  0  0
 29 30  1  0  0  0
 29 25  1  0  0  0
 25 26  1  0  0  0
 26 27  2  0  0  0
 26 24  1  0  0  0
 24  1  1  0  0  0
  1  2  1  0  0  0
  1  4  1  0  0  0
  4  5  1  0  0  0
  5  6  1  0  0  0
  6  7  2  0  0  0
  6  9  1  0  0  0
  9 10  1  0  0  0
 10 11  1  0  0  0
 11 12  2  0  0  0
 11 14  1  0  0  0
 14 15  1  0  0  0
 15 16  1  0  0  0
 15 17  1  0  0  0
  9 18  1  0  0  0
 18 19  1  0  0  0
 18 20  1  0  0  0
  4 21  1  0  0  0
 21 22  1  0  0  0
 21 23  1  0  0  0
 35 36  1  0  0  0
 36 37  1  0  0  0
 36 38  1  0  0  0
 31 34  1  0  0  0
 25 28  1  0  0  0
  2  3  1  0  0  0
  5  8  1  0  0  0
 10 13  1  0  0  0
M  END
> <minimizedAffinity>
-6.88892

> <CNNscore>
0.0757913664

> <CNNaffinity>
5.6909265518

> <CNN_VS>
0.4313231111

> <CNNaffinity_variance>
0.7304786444

$$$$
[H]O[C@@]([H])(C([H])([H])C(=O)N([H])[C@]([H])(C(=O)N([H])[C@@]([H])(C([H])([H])C([H])(C([H])([H])[H])C([H])([H])[H])C([H])(C([H])([H])[H])C([H])([H])[H])C([H])([H])[H])[C@@]([H])(N([H])C(=O)[C@@]([H])(N([H])C(=O)C([H])([H])C([H])(C([H])([H])[H])C([H])([H])[H])C([H])(C([H])([H])[H])C([H])([H])[H])C([H])(C([H])([H])[H])C([H])([H])[H]


 42 41  0  0  0  0  0  0  0  0999 V2000
  -89.8450   26.9187    2.8198 C   0  0  0  0  0  0  0  0  0  0  0  0
  -88.5586   27.3385    2.5865 O   0  0  0  0  0  0  0  0  0  0  0  0
  -87.8946   26.6186    2.5528 H   0  0  0  0  0  0  0  0  0  0  0  0
  -90.0558   25.6699    3.5809 C   0  0  0  0  0  0  0  0  0  0  0  0
  -89.8955   24.4507    2.7706 N   0  0  0  0  0  0  0  0  0  0  0  0
  -90.8219   23.4121    2.8119 C   0  0  0  0  0  0  0  0  0  0  0  0
  -91.8544   23.5483    3.5546 O   0  0  0  0  0  0  0  0  0  0  0  0
  -89.0796   24.3844    2.1327 H   0  0  0  0  0  0  0  0  0  0  0  0
  -90.7443   22.1401    2.0762 C   0  0  0  0  0  0  0  0  0  0  0  0
  -90.6917   22.3867    0.6960 N   0  0  0  0  0  0  0  0  0  0  0  0
  -91.3131   23.2838   -0.1450 C   0  0  0  0  0  0  0  0  0  0  0  0
  -92.1537   24.1087    0.2611 O   0  0  0  0  0  0  0  0  0  0  0  0
  -89.9993   21.7098    0.1539 H   0  0  0  0  0  0  0  0  0  0  0  0
  -91.0238   23.3408   -1.6190 C   0  0  0  0  0  0  0  0  0  0  0  0
  -92.2462   23.6925   -2.4308 C   0  0  0  0  0  0  0  0  0  0  0  0
  -92.6207   22.6206   -3.4237 C   0  0  0  0  0  0  0  0  0  0  0  0
  -92.1189   25.0170   -3.1265 C   0  0  0  0  0  0  0  0  0  0  0  0
  -89.9809   21.0392    2.7228 C   0  0  0  0  0  0  0  0  0  0  0  0
  -90.9737   19.9060    3.1314 C   0  0  0  0  0  0  0  0  0  0  0  0
  -88.9112   20.3968    1.8781 C   0  0  0  0  0  0  0  0  0  0  0  0
  -89.0737   25.5991    4.7511 C   0  0  0  0  0  0  0  0  0  0  0  0
  -89.5641   26.2121    6.0133 C   0  0  0  0  0  0  0  0  0  0  0  0
  -88.6420   24.1764    5.0116 C   0  0  0  0  0  0  0  0  0  0  0  0
  -90.4606   26.7858    1.4150 C   0  0  0  0  0  0  0  0  0  0  0  0
  -89.0692   28.0088   -0.2843 N   0  0  0  0  0  0  0  0  0  0  0  0
  -89.4107   26.7887    0.3570 C   0  0  0  0  0  0  0  0  0  0  0  0
  -88.8383   25.7322    0.0532 O   0  0  0  0  0  0  0  0  0  0  0  0
  -89.5996   28.8670   -0.0594 H   0  0  0  0  0  0  0  0  0  0  0  0
  -87.9784   27.9953   -1.2452 C   0  0  0  0  0  0  0  0  0  0  0  0
  -88.5763   28.3058   -2.6281 C   0  0  0  0  0  0  0  0  0  0  0  0
  -86.1278   28.9028    0.1174 N   0  0  0  0  0  0  0  0  0  0  0  0
  -87.0155   29.1196   -0.9269 C   0  0  0  0  0  0  0  0  0  0  0  0
  -87.0773   30.1882   -1.6060 O   0  0  0  0  0  0  0  0  0  0  0  0
  -86.1860   27.9685    0.6312 H   0  0  0  0  0  0  0  0  0  0  0  0
  -85.0988   29.8142    0.6188 C   0  0  0  0  0  0  0  0  0  0  0  0
  -84.5100   29.1981    1.8203 C   0  0  0  0  0  0  0  0  0  0  0  0
  -85.1376   29.5097    3.1426 C   0  0  0  0  0  0  0  0  0  0  0  0
  -82.9982   29.3434    1.9412 C   0  0  0  0  0  0  0  0  0  0  0  0
  -85.4198   31.2298    0.5306 C   0  0  0  0  0  0  0  0  0  0  0  0
  -85.3114   33.2991   -0.7527 C   0  0  0  0  0  0  0  0  0  0  0  0
  -84.5593   32.3804    0.3239 C   0  0  0  0  0  0  0  0  0  0  0  0
  -83.2281   32.2088   -0.3581 C   0  0  0  0  0  0  0  0  0  0  0  0
 40 41  1  0  0  0
 41 42  1  0  0  0
 41 39  1  0  0  0
 39 35  1  0  0  0
 35 31  1  0  0  0
 31 32  1  0  0  0
 32 33  2  0  0  0
 32 29  1  0  0  0
 29 30  1  0  0  0
 29 25  1  0  0  0
 25 26  1  0  0  0
 26 27  2  0  0  0
 26 24  1  0  0  0
 24  1  1  0  0  0
  1  2  1  0  0  0
  1  4  1  0  0  0
  4  5  1  0  0  0
  5  6  1  0  0  0
  6  7  2  0  0  0
  6  9  1  0  0  0
  9 10  1  0  0  0
 10 11  1  0  0  0
 11 12  2  0  0  0
 11 14  1  0  0  0
 14 15  1  0  0  0
 15 16  1  0  0  0
 15 17  1  0  0  0
  9 18  1  0  0  0
 18 19  1  0  0  0
 18 20  1  0  0  0
  4 21  1  0  0  0
 21 22  1  0  0  0
 21 23  1  0  0  0
 35 36  1  0  0  0
 36 37  1  0  0  0
 36 38  1  0  0  0
 31 34  1  0  0  0
 25 28  1  0  0  0
  2  3  1  0  0  0
  5  8  1  0  0  0
 10 13  1  0  0  0
M  END
> <minimizedAffinity>
-7.56996

> <CNNscore>
0.0732343718

> <CNNaffinity>
6.0796699524

> <CNN_VS>
0.4452407956

> <CNNaffinity_variance>
0.4591596723

$$$$
[H]c1c([H])c([H])c(C2([H])C(C(=O)OC([H])([H])[H])=C(C([H])([H])[H])N([H])C(C([H])([H])[H])=C2C(=O)OC([H])([H])[H])c([H])c1[H]


 23 24  0  0  0  0  0  0  0  0999 V2000
  -87.2600   27.2940    0.9282 C   0  0  0  0  0  0  0  0  0  0  0  0
  -87.2229   27.9414   -0.2008 C   0  0  0  0  0  0  0  0  0  0  0  0
  -86.1853   29.0141   -0.4613 C   0  0  0  0  0  0  0  0  0  0  0  0
  -88.1347   27.6543   -1.2652 N   0  0  0  0  0  0  0  0  0  0  0  0
  -89.0913   26.6312   -1.0369 C   0  0  0  0  0  0  0  0  0  0  0  0
  -90.0609   26.3028   -2.1587 C   0  0  0  0  0  0  0  0  0  0  0  0
  -89.1628   25.9760    0.0923 C   0  0  0  0  0  0  0  0  0  0  0  0
  -88.2587   26.2727    1.2041 C   0  0  0  0  0  0  0  0  0  0  0  0
  -88.1056   28.1680   -2.1712 H   0  0  0  0  0  0  0  0  0  0  0  0
  -89.0087   26.5510    2.4667 C   0  0  0  0  0  0  0  0  0  0  0  0
  -88.9779   25.6764    3.5201 C   0  0  0  0  0  0  0  0  0  0  0  0
  -89.6528   25.8901    4.7034 C   0  0  0  0  0  0  0  0  0  0  0  0
  -90.3998   27.0350    4.8498 C   0  0  0  0  0  0  0  0  0  0  0  0
  -90.4423   27.9256    3.8013 C   0  0  0  0  0  0  0  0  0  0  0  0
  -89.7569   27.6914    2.6218 C   0  0  0  0  0  0  0  0  0  0  0  0
  -86.2530   27.6292    1.9621 C   0  0  0  0  0  0  0  0  0  0  0  0
  -85.2691   26.8341    2.1530 O   0  0  0  0  0  0  0  0  0  0  0  0
  -85.1072   29.4996    3.0513 C   0  0  0  0  0  0  0  0  0  0  0  0
  -86.2550   28.7317    2.7652 O   0  0  0  0  0  0  0  0  0  0  0  0
  -90.1713   24.8863    0.2502 C   0  0  0  0  0  0  0  0  0  0  0  0
  -91.3700   25.0496    0.5020 O   0  0  0  0  0  0  0  0  0  0  0  0
  -89.7556   23.5786    0.1056 O   0  0  0  0  0  0  0  0  0  0  0  0
  -90.2133   22.7684   -0.9877 C   0  0  0  0  0  0  0  0  0  0  0  0
 18 19  1  0  0  0
 19 16  1  0  0  0
 16 17  2  0  0  0
 16  1  1  0  0  0
  1  2  2  0  0  0
  2  3  1  0  0  0
  2  4  1  0  0  0
  4  5  1  0  0  0
  5  6  1  0  0  0
  5  7  2  0  0  0
  7  8  1  0  0  0
  8 10  1  0  0  0
 10 11  2  0  0  0
 11 12  1  0  0  0
 12 13  2  0  0  0
 13 14  1  0  0  0
 14 15  2  0  0  0
  7 20  1  0  0  0
 20 21  2  0  0  0
 20 22  1  0  0  0
 22 23  1  0  0  0
  8  1  1  0  0  0
 15 10  1  0  0  0
  4  9  1  0  0  0
M  END
> <minimizedAffinity>
-6.48347

> <CNNscore>
0.4283966124

> <CNNaffinity>
5.2623047829

> <CNN_VS>
2.2543535233

> <CNNaffinity_variance>
0.2399892807

$$$$
[H]c1c([H])c([H])c(C2([H])C(C(=O)OC([H])([H])[H])=C(C([H])([H])[H])N([H])C(C([H])([H])[H])=C2C(=O)OC([H])([H])[H])c([H])c1[H]


 23 24  0  0  0  0  0  0  0  0999 V2000
  -85.1831   30.6878    1.1622 C   0  0  0  0  0  0  0  0  0  0  0  0
  -84.6123   29.5189    1.2175 C   0  0  0  0  0  0  0  0  0  0  0  0
  -83.2218   29.3464    1.7938 C   0  0  0  0  0  0  0  0  0  0  0  0
  -85.2761   28.3334    0.7695 N   0  0  0  0  0  0  0  0  0  0  0  0
  -86.5896   28.4851    0.2541 C   0  0  0  0  0  0  0  0  0  0  0  0
  -87.3164   27.2372   -0.2160 C   0  0  0  0  0  0  0  0  0  0  0  0
  -87.1813   29.6481    0.1710 C   0  0  0  0  0  0  0  0  0  0  0  0
  -86.5103   30.8768    0.5971 C   0  0  0  0  0  0  0  0  0  0  0  0
  -84.8237   27.3959    0.8155 H   0  0  0  0  0  0  0  0  0  0  0  0
  -86.5165   31.9119   -0.4810 C   0  0  0  0  0  0  0  0  0  0  0  0
  -87.5763   32.7641   -0.6433 C   0  0  0  0  0  0  0  0  0  0  0  0
  -87.6270   33.7337   -1.6223 C   0  0  0  0  0  0  0  0  0  0  0  0
  -86.5676   33.8653   -2.4887 C   0  0  0  0  0  0  0  0  0  0  0  0
  -85.4936   33.0173   -2.3405 C   0  0  0  0  0  0  0  0  0  0  0  0
  -85.4632   32.0506   -1.3504 C   0  0  0  0  0  0  0  0  0  0  0  0
  -84.4380   31.8573    1.6840 C   0  0  0  0  0  0  0  0  0  0  0  0
  -83.6121   32.4616    0.9164 O   0  0  0  0  0  0  0  0  0  0  0  0
  -85.2212   31.7620    4.0024 C   0  0  0  0  0  0  0  0  0  0  0  0
  -84.5356   32.3840    2.9385 O   0  0  0  0  0  0  0  0  0  0  0  0
  -88.5789   29.7291   -0.3483 C   0  0  0  0  0  0  0  0  0  0  0  0
  -89.5981   29.8110    0.3456 O   0  0  0  0  0  0  0  0  0  0  0  0
  -88.7756   29.7152   -1.7140 O   0  0  0  0  0  0  0  0  0  0  0  0
  -90.0820   29.9001   -2.2800 C   0  0  0  0  0  0  0  0  0  0  0  0
 18 19  1  0  0  0
 19 16  1  0  0  0
 16 17  2  0  0  0
 16  1  1  0  0  0
  1  2  2  0  0  0
  2  3  1  0  0  0
  2  4  1  0  0  0
  4  5  1  0  0  0
  5  6  1  0  0  0
  5  7  2  0  0  0
  7  8  1  0  0  0
  8 10  1  0  0  0
 10 11  2  0  0  0
 11 12  1  0  0  0
 12 13  2  0  0  0
 13 14  1  0  0  0
 14 15  2  0  0  0
  7 20  1  0  0  0
 20 21  2  0  0  0
 20 22  1  0  0  0
 22 23  1  0  0  0
  8  1  1  0  0  0
 15 10  1  0  0  0
  4  9  1  0  0  0
M  END
> <minimizedAffinity>
-5.10789

> <CNNscore>
0.3762364686

> <CNNaffinity>
5.4776954651

> <CNN_VS>
2.0609087944

> <CNNaffinity_variance>
0.0842635930

$$$$
[H]c1c([H])c([H])c(C2([H])C(C(=O)OC([H])([H])[H])=C(C([H])([H])[H])N([H])C(C([H])([H])[H])=C2C(=O)OC([H])([H])[H])c([H])c1[H]


 23 24  0  0  0  0  0  0  0  0999 V2000
  -90.4298   25.9823   -0.3501 C   0  0  0  0  0  0  0  0  0  0  0  0
  -89.6128   25.3072   -1.1065 C   0  0  0  0  0  0  0  0  0  0  0  0
  -89.8633   23.8494   -1.4339 C   0  0  0  0  0  0  0  0  0  0  0  0
  -88.4564   25.9106   -1.6944 N   0  0  0  0  0  0  0  0  0  0  0  0
  -88.2317   27.2833   -1.4135 C   0  0  0  0  0  0  0  0  0  0  0  0
  -87.0160   27.9459   -2.0376 C   0  0  0  0  0  0  0  0  0  0  0  0
  -89.0256   27.9818   -0.6444 C   0  0  0  0  0  0  0  0  0  0  0  0
  -90.1980   27.3778   -0.0103 C   0  0  0  0  0  0  0  0  0  0  0  0
  -87.8025   25.3742   -2.3029 H   0  0  0  0  0  0  0  0  0  0  0  0
  -90.2033   27.6015    1.4675 C   0  0  0  0  0  0  0  0  0  0  0  0
  -91.1140   28.4371    2.0574 C   0  0  0  0  0  0  0  0  0  0  0  0
  -91.1575   28.6744    3.4150 C   0  0  0  0  0  0  0  0  0  0  0  0
  -90.2471   28.0479    4.2329 C   0  0  0  0  0  0  0  0  0  0  0  0
  -89.3242   27.2044    3.6574 C   0  0  0  0  0  0  0  0  0  0  0  0
  -89.2982   26.9803    2.2918 C   0  0  0  0  0  0  0  0  0  0  0  0
  -91.6241   25.2886    0.1859 C   0  0  0  0  0  0  0  0  0  0  0  0
  -91.4966   24.5305    1.2084 O   0  0  0  0  0  0  0  0  0  0  0  0
  -93.2086   25.8153   -1.6056 C   0  0  0  0  0  0  0  0  0  0  0  0
  -92.8941   25.3689   -0.3054 O   0  0  0  0  0  0  0  0  0  0  0  0
  -88.7483   29.4320   -0.4214 C   0  0  0  0  0  0  0  0  0  0  0  0
  -89.3822   30.3682   -0.9200 O   0  0  0  0  0  0  0  0  0  0  0  0
  -87.7031   29.7824    0.4084 O   0  0  0  0  0  0  0  0  0  0  0  0
  -86.8112   30.8554    0.0699 C   0  0  0  0  0  0  0  0  0  0  0  0
 18 19  1  0  0  0
 19 16  1  0  0  0
 16 17  2  0  0  0
 16  1  1  0  0  0
  1  2  2  0  0  0
  2  3  1  0  0  0
  2  4  1  0  0  0
  4  5  1  0  0  0
  5  6  1  0  0  0
  5  7  2  0  0  0
  7  8  1  0  0  0
  8 10  1  0  0  0
 10 11  2  0  0  0
 11 12  1  0  0  0
 12 13  2  0  0  0
 13 14  1  0  0  0
 14 15  2  0  0  0
  7 20  1  0  0  0
 20 21  2  0  0  0
 20 22  1  0  0  0
 22 23  1  0  0  0
  8  1  1  0  0  0
 15 10  1  0  0  0
  4  9  1  0  0  0
M  END
> <minimizedAffinity>
-5.73976

> <CNNscore>
0.3610872626

> <CNNaffinity>
4.8962211609

> <CNN_VS>
1.7679630518

> <CNNaffinity_variance>
0.1820281744

$$$$
[H]c1c([H])c([H])c(C2([H])C(C(=O)OC([H])([H])[H])=C(C([H])([H])[H])N([H])C(C([H])([H])[H])=C2C(=O)OC([H])([H])[H])c([H])c1[H]


 23 24  0  0  0  0  0  0  0  0999 V2000
  -87.2218   28.4729    0.1542 C   0  0  0  0  0  0  0  0  0  0  0  0
  -87.5814   27.8241   -0.9158 C   0  0  0  0  0  0  0  0  0  0  0  0
  -87.7218   26.3156   -0.9139 C   0  0  0  0  0  0  0  0  0  0  0  0
  -87.8944   28.4993   -2.1378 N   0  0  0  0  0  0  0  0  0  0  0  0
  -87.7913   29.9146   -2.1375 C   0  0  0  0  0  0  0  0  0  0  0  0
  -88.1306   30.6513   -3.4214 C   0  0  0  0  0  0  0  0  0  0  0  0
  -87.4167   30.5912   -1.0832 C   0  0  0  0  0  0  0  0  0  0  0  0
  -87.0649   29.9192    0.1682 C   0  0  0  0  0  0  0  0  0  0  0  0
  -88.1858   27.9835   -2.9949 H   0  0  0  0  0  0  0  0  0  0  0  0
  -85.7126   30.3300    0.6544 C   0  0  0  0  0  0  0  0  0  0  0  0
  -85.5563   31.0095    1.8332 C   0  0  0  0  0  0  0  0  0  0  0  0
  -84.3303   31.4088    2.3218 C   0  0  0  0  0  0  0  0  0  0  0  0
  -83.1962   31.1180    1.6009 C   0  0  0  0  0  0  0  0  0  0  0  0
  -83.3341   30.4356    0.4136 C   0  0  0  0  0  0  0  0  0  0  0  0
  -84.5749   30.0440   -0.0586 C   0  0  0  0  0  0  0  0  0  0  0  0
  -86.9538   27.6971    1.3877 C   0  0  0  0  0  0  0  0  0  0  0  0
  -85.8101   27.1443    1.5387 O   0  0  0  0  0  0  0  0  0  0  0  0
  -88.5363   26.2993    2.6284 C   0  0  0  0  0  0  0  0  0  0  0  0
  -87.8212   27.4970    2.4213 O   0  0  0  0  0  0  0  0  0  0  0  0
  -87.3655   32.0823   -1.1437 C   0  0  0  0  0  0  0  0  0  0  0  0
  -88.2499   32.8469   -0.7437 O   0  0  0  0  0  0  0  0  0  0  0  0
  -86.2467   32.6811   -1.6853 O   0  0  0  0  0  0  0  0  0  0  0  0
  -85.4325   33.5753   -0.9116 C   0  0  0  0  0  0  0  0  0  0  0  0
 18 19  1  0  0  0
 19 16  1  0  0  0
 16 17  2  0  0  0
 16  1  1  0  0  0
  1  2  2  0  0  0
  2  3  1  0  0  0
  2  4  1  0  0  0
  4  5  1  0  0  0
  5  6  1  0  0  0
  5  7  2  0  0  0
  7  8  1  0  0  0
  8 10  1  0  0  0
 10 11  2  0  0  0
 11 12  1  0  0  0
 12 13  2  0  0  0
 13 14  1  0  0  0
 14 15  2  0  0  0
  7 20  1  0  0  0
 20 21  2  0  0  0
 20 22  1  0  0  0
 22 23  1  0  0  0
  8  1  1  0  0  0
 15 10  1  0  0  0
  4  9  1  0  0  0
M  END
> <minimizedAffinity>
-7.22008

> <CNNscore>
0.3480033875

> <CNNaffinity>
5.4496755600

> <CNN_VS>
1.8965055943

> <CNNaffinity_variance>
0.0748515576

$$$$
[H]c1c([H])c([H])c(C2([H])C(C(=O)OC([H])([H])[H])=C(C([H])([H])[H])N([H])C(C([H])([H])[H])=C2C(=O)OC([H])([H])[H])c([H])c1[H]


 23 24  0  0  0  0  0  0  0  0999 V2000
  -87.1220   31.9216   -0.6472 C   0  0  0  0  0  0  0  0  0  0  0  0
  -86.2250   32.7464   -1.1057 C   0  0  0  0  0  0  0  0  0  0  0  0
  -86.5683   33.7793   -2.1595 C   0  0  0  0  0  0  0  0  0  0  0  0
  -84.8798   32.7451   -0.6184 N   0  0  0  0  0  0  0  0  0  0  0  0
  -84.5595   31.7981    0.3888 C   0  0  0  0  0  0  0  0  0  0  0  0
  -83.1399   31.7881    0.9281 C   0  0  0  0  0  0  0  0  0  0  0  0
  -85.4349   30.9467    0.8561 C   0  0  0  0  0  0  0  0  0  0  0  0
  -86.8083   30.9118    0.3520 C   0  0  0  0  0  0  0  0  0  0  0  0
  -84.1604   33.4061   -0.9805 H   0  0  0  0  0  0  0  0  0  0  0  0
  -87.1967   29.5405   -0.0981 C   0  0  0  0  0  0  0  0  0  0  0  0
  -88.1016   28.7904    0.6049 C   0  0  0  0  0  0  0  0  0  0  0  0
  -88.4903   27.5220    0.2289 C   0  0  0  0  0  0  0  0  0  0  0  0
  -87.9515   26.9667   -0.9076 C   0  0  0  0  0  0  0  0  0  0  0  0
  -87.0402   27.7062   -1.6268 C   0  0  0  0  0  0  0  0  0  0  0  0
  -86.6639   28.9781   -1.2314 C   0  0  0  0  0  0  0  0  0  0  0  0
  -88.5009   32.0180   -1.1804 C   0  0  0  0  0  0  0  0  0  0  0  0
  -89.3904   32.6335   -0.4974 O   0  0  0  0  0  0  0  0  0  0  0  0
  -89.8985   30.4683   -2.4621 C   0  0  0  0  0  0  0  0  0  0  0  0
  -88.9482   31.5055   -2.3628 O   0  0  0  0  0  0  0  0  0  0  0  0
  -85.0380   30.0020    1.9422 C   0  0  0  0  0  0  0  0  0  0  0  0
  -85.2652   30.1579    3.1467 O   0  0  0  0  0  0  0  0  0  0  0  0
  -84.3613   28.8499    1.5978 O   0  0  0  0  0  0  0  0  0  0  0  0
  -83.2961   28.3398    2.4140 C   0  0  0  0  0  0  0  0  0  0  0  0
 18 19  1  0  0  0
 19 16  1  0  0  0
 16 17  2  0  0  0
 16  1  1  0  0  0
  1  2  2  0  0  0
  2  3  1  0  0  0
  2  4  1  0  0  0
  4  5  1  0  0  0
  5  6  1  0  0  0
  5  7  2  0  0  0
  7  8  1  0  0  0
  8 10  1  0  0  0
 10 11  2  0  0  0
 11 12  1  0  0  0
 12 13  2  0  0  0
 13 14  1  0  0  0
 14 15  2  0  0  0
  7 20  1  0  0  0
 20 21  2  0  0  0
 20 22  1  0  0  0
 22 23  1  0  0  0
  8  1  1  0  0  0
 15 10  1  0  0  0
  4  9  1  0  0  0
M  END
> <minimizedAffinity>
-7.16924

> <CNNscore>
0.3151318729

> <CNNaffinity>
5.5574731827

> <CNN_VS>
1.7513369322

> <CNNaffinity_variance>
0.1749288142

$$$$
[H]c1c([H])c([H])c(C2([H])C(C(=O)OC([H])([H])[H])=C(C([H])([H])[H])N([H])C(C([H])([H])[H])=C2C(=O)OC([H])([H])[H])c([H])c1[H]


 23 24  0  0  0  0  0  0  0  0999 V2000
  -87.0357   32.5269   -1.5125 C   0  0  0  0  0  0  0  0  0  0  0  0
  -86.0872   33.2075   -2.0889 C   0  0  0  0  0  0  0  0  0  0  0  0
  -86.3571   34.0529   -3.3168 C   0  0  0  0  0  0  0  0  0  0  0  0
  -84.7509   33.2208   -1.5780 N   0  0  0  0  0  0  0  0  0  0  0  0
  -84.4984   32.4525   -0.4119 C   0  0  0  0  0  0  0  0  0  0  0  0
  -83.0889   32.4626    0.1535 C   0  0  0  0  0  0  0  0  0  0  0  0
  -85.4270   31.7463    0.1785 C   0  0  0  0  0  0  0  0  0  0  0  0
  -86.7934   31.6959   -0.3431 C   0  0  0  0  0  0  0  0  0  0  0  0
  -83.9902   33.7670   -2.0348 H   0  0  0  0  0  0  0  0  0  0  0  0
  -87.2532   30.2892   -0.5521 C   0  0  0  0  0  0  0  0  0  0  0  0
  -86.6077   29.4514   -1.4222 C   0  0  0  0  0  0  0  0  0  0  0  0
  -86.9949   28.1473   -1.6477 C   0  0  0  0  0  0  0  0  0  0  0  0
  -88.0829   27.6465   -0.9725 C   0  0  0  0  0  0  0  0  0  0  0  0
  -88.7440   28.4744   -0.0939 C   0  0  0  0  0  0  0  0  0  0  0  0
  -88.3383   29.7807    0.1176 C   0  0  0  0  0  0  0  0  0  0  0  0
  -88.3997   32.6007   -2.0862 C   0  0  0  0  0  0  0  0  0  0  0  0
  -88.8387   31.6164   -2.7754 O   0  0  0  0  0  0  0  0  0  0  0  0
  -89.7361   34.4177   -3.0401 C   0  0  0  0  0  0  0  0  0  0  0  0
  -89.2754   33.6387   -1.9586 O   0  0  0  0  0  0  0  0  0  0  0  0
  -85.0990   30.9903    1.4236 C   0  0  0  0  0  0  0  0  0  0  0  0
  -85.2026   31.4259    2.5753 O   0  0  0  0  0  0  0  0  0  0  0  0
  -84.6417   29.6938    1.3054 O   0  0  0  0  0  0  0  0  0  0  0  0
  -85.2576   28.6182    2.0299 C   0  0  0  0  0  0  0  0  0  0  0  0
 18 19  1  0  0  0
 19 16  1  0  0  0
 16 17  2  0  0  0
 16  1  1  0  0  0
  1  2  2  0  0  0
  2  3  1  0  0  0
  2  4  1  0  0  0
  4  5  1  0  0  0
  5  6  1  0  0  0
  5  7  2  0  0  0
  7  8  1  0  0  0
  8 10  1  0  0  0
 10 11  2  0  0  0
 11 12  1  0  0  0
 12 13  2  0  0  0
 13 14  1  0  0  0
 14 15  2  0  0  0
  7 20  1  0  0  0
 20 21  2  0  0  0
 20 22  1  0  0  0
 22 23  1  0  0  0
  8  1  1  0  0  0
 15 10  1  0  0  0
  4  9  1  0  0  0
M  END
> <minimizedAffinity>
-6.17831

> <CNNscore>
0.3150715530

> <CNNaffinity>
5.4875679016

> <CNN_VS>
1.7289764881

> <CNNaffinity_variance>
0.1347247809

$$$$
[H]c1c([H])c([H])c(C2([H])C(C(=O)OC([H])([H])[H])=C(C([H])([H])[H])N([H])C(C([H])([H])[H])=C2C(=O)OC([H])([H])[H])c([H])c1[H]


 23 24  0  0  0  0  0  0  0  0999 V2000
  -85.5210   31.6876   -0.1126 C   0  0  0  0  0  0  0  0  0  0  0  0
  -84.2469   31.9384   -0.2062 C   0  0  0  0  0  0  0  0  0  0  0  0
  -83.7304   33.1055   -1.0226 C   0  0  0  0  0  0  0  0  0  0  0  0
  -83.2704   31.1494    0.4800 N   0  0  0  0  0  0  0  0  0  0  0  0
  -83.7502   30.0716    1.2686 C   0  0  0  0  0  0  0  0  0  0  0  0
  -82.7306   29.2289    2.0147 C   0  0  0  0  0  0  0  0  0  0  0  0
  -85.0223   29.7860    1.3679 C   0  0  0  0  0  0  0  0  0  0  0  0
  -86.0357   30.5621    0.6523 C   0  0  0  0  0  0  0  0  0  0  0  0
  -82.2502   31.3494    0.4101 H   0  0  0  0  0  0  0  0  0  0  0  0
  -86.9229   29.6855   -0.1715 C   0  0  0  0  0  0  0  0  0  0  0  0
  -88.2650   29.5903    0.0842 C   0  0  0  0  0  0  0  0  0  0  0  0
  -89.1220   28.7958   -0.6477 C   0  0  0  0  0  0  0  0  0  0  0  0
  -88.6198   28.0547   -1.6912 C   0  0  0  0  0  0  0  0  0  0  0  0
  -87.2731   28.1380   -1.9627 C   0  0  0  0  0  0  0  0  0  0  0  0
  -86.4303   28.9421   -1.2151 C   0  0  0  0  0  0  0  0  0  0  0  0
  -86.4654   32.5793   -0.8254 C   0  0  0  0  0  0  0  0  0  0  0  0
  -87.0480   33.5149   -0.1761 O   0  0  0  0  0  0  0  0  0  0  0  0
  -88.0748   32.1486   -2.6204 C   0  0  0  0  0  0  0  0  0  0  0  0
  -86.7977   32.5142   -2.1467 O   0  0  0  0  0  0  0  0  0  0  0  0
  -85.4590   28.6593    2.2451 C   0  0  0  0  0  0  0  0  0  0  0  0
  -85.8290   28.7665    3.4191 O   0  0  0  0  0  0  0  0  0  0  0  0
  -85.4603   27.3817    1.7239 O   0  0  0  0  0  0  0  0  0  0  0  0
  -86.6528   26.5822    1.7157 C   0  0  0  0  0  0  0  0  0  0  0  0
 18 19  1  0  0  0
 19 16  1  0  0  0
 16 17  2  0  0  0
 16  1  1  0  0  0
  1  2  2  0  0  0
  2  3  1  0  0  0
  2  4  1  0  0  0
  4  5  1  0  0  0
  5  6  1  0  0  0
  5  7  2  0  0  0
  7  8  1  0  0  0
  8 10  1  0  0  0
 10 11  2  0  0  0
 11 12  1  0  0  0
 12 13  2  0  0  0
 13 14  1  0  0  0
 14 15  2  0  0  0
  7 20  1  0  0  0
 20 21  2  0  0  0
 20 22  1  0  0  0
 22 23  1  0  0  0
  8  1  1  0  0  0
 15 10  1  0  0  0
  4  9  1  0  0  0
M  END
> <minimizedAffinity>
-6.83341

> <CNNscore>
0.2528174222

> <CNNaffinity>
5.3808884621

> <CNN_VS>
1.3603823185

> <CNNaffinity_variance>
0.1815458983

$$$$
[H]c1c([H])c([H])c(C2([H])C(C(=O)OC([H])([H])[H])=C(C([H])([H])[H])N([H])C(C([H])([H])[H])=C2C(=O)OC([H])([H])[H])c([H])c1[H]


 23 24  0  0  0  0  0  0  0  0999 V2000
  -90.4177   26.2014    0.2474 C   0  0  0  0  0  0  0  0  0  0  0  0
  -89.2251   25.7792    0.5549 C   0  0  0  0  0  0  0  0  0  0  0  0
  -88.1836   26.7127    1.1373 C   0  0  0  0  0  0  0  0  0  0  0  0
  -88.8442   24.4099    0.3914 N   0  0  0  0  0  0  0  0  0  0  0  0
  -89.8247   23.5251   -0.1280 C   0  0  0  0  0  0  0  0  0  0  0  0
  -89.4443   22.0648   -0.2982 C   0  0  0  0  0  0  0  0  0  0  0  0
  -91.0246   23.9240   -0.4610 C   0  0  0  0  0  0  0  0  0  0  0  0
  -91.4261   25.3250   -0.3286 C   0  0  0  0  0  0  0  0  0  0  0  0
  -87.8918   24.0679    0.6397 H   0  0  0  0  0  0  0  0  0  0  0  0
  -91.9712   25.8668   -1.6105 C   0  0  0  0  0  0  0  0  0  0  0  0
  -93.2879   26.2248   -1.7289 C   0  0  0  0  0  0  0  0  0  0  0  0
  -93.8354   26.7286   -2.8898 C   0  0  0  0  0  0  0  0  0  0  0  0
  -93.0323   26.8861   -3.9946 C   0  0  0  0  0  0  0  0  0  0  0  0
  -91.7063   26.5315   -3.8939 C   0  0  0  0  0  0  0  0  0  0  0  0
  -91.1769   26.0275   -2.7185 C   0  0  0  0  0  0  0  0  0  0  0  0
  -90.7395   27.6279    0.4853 C   0  0  0  0  0  0  0  0  0  0  0  0
  -90.2980   28.5095   -0.3297 O   0  0  0  0  0  0  0  0  0  0  0  0
  -90.9744   28.3663    2.8085 C   0  0  0  0  0  0  0  0  0  0  0  0
  -91.4819   28.1285    1.5144 O   0  0  0  0  0  0  0  0  0  0  0  0
  -92.0179   22.9308   -0.9673 C   0  0  0  0  0  0  0  0  0  0  0  0
  -92.9642   22.4695   -0.3204 O   0  0  0  0  0  0  0  0  0  0  0  0
  -91.8916   22.4758   -2.2638 O   0  0  0  0  0  0  0  0  0  0  0  0
  -92.9093   22.7292   -3.2443 C   0  0  0  0  0  0  0  0  0  0  0  0
 18 19  1  0  0  0
 19 16  1  0  0  0
 16 17  2  0  0  0
 16  1  1  0  0  0
  1  2  2  0  0  0
  2  3  1  0  0  0
  2  4  1  0  0  0
  4  5  1  0  0  0
  5  6  1  0  0  0
  5  7  2  0  0  0
  7  8  1  0  0  0
  8 10  1  0  0  0
 10 11  2  0  0  0
 11 12  1  0  0  0
 12 13  2  0  0  0
 13 14  1  0  0  0
 14 15  2  0  0  0
  7 20  1  0  0  0
 20 21  2  0  0  0
 20 22  1  0  0  0
 22 23  1  0  0  0
  8  1  1  0  0  0
 15 10  1  0  0  0
  4  9  1  0  0  0
M  END
> <minimizedAffinity>
-5.00997

> <CNNscore>
0.2489866316

> <CNNaffinity>
4.4182209969

> <CNN_VS>
1.1000779867

> <CNNaffinity_variance>
0.1543943435

$$$$
[H]c1c([H])c([H])c(C2([H])C(C(=O)OC([H])([H])[H])=C(C([H])([H])[H])N([H])C(C([H])([H])[H])=C2C(=O)OC([H])([H])[H])c([H])c1[H]


 23 24  0  0  0  0  0  0  0  0999 V2000
  -87.0249   28.5734    0.2230 C   0  0  0  0  0  0  0  0  0  0  0  0
  -87.4182   27.8904   -0.8133 C   0  0  0  0  0  0  0  0  0  0  0  0
  -87.5096   26.3787   -0.7734 C   0  0  0  0  0  0  0  0  0  0  0  0
  -87.8153   28.5284   -2.0307 N   0  0  0  0  0  0  0  0  0  0  0  0
  -87.7580   29.9460   -2.0647 C   0  0  0  0  0  0  0  0  0  0  0  0
  -88.1866   30.6433   -3.3438 C   0  0  0  0  0  0  0  0  0  0  0  0
  -87.3515   30.6569   -1.0454 C   0  0  0  0  0  0  0  0  0  0  0  0
  -86.9141   30.0238    0.1994 C   0  0  0  0  0  0  0  0  0  0  0  0
  -88.1339   27.9851   -2.8607 H   0  0  0  0  0  0  0  0  0  0  0  0
  -85.5523   30.4871    0.6057 C   0  0  0  0  0  0  0  0  0  0  0  0
  -84.4512   30.2214   -0.1640 C   0  0  0  0  0  0  0  0  0  0  0  0
  -83.1765   30.6277    0.1696 C   0  0  0  0  0  0  0  0  0  0  0  0
  -82.9834   31.3371    1.3315 C   0  0  0  0  0  0  0  0  0  0  0  0
  -84.0788   31.6134    2.1177 C   0  0  0  0  0  0  0  0  0  0  0  0
  -85.3501   31.1958    1.7639 C   0  0  0  0  0  0  0  0  0  0  0  0
  -86.6688   27.8336    1.4564 C   0  0  0  0  0  0  0  0  0  0  0  0
  -87.4889   27.8299    2.4381 O   0  0  0  0  0  0  0  0  0  0  0  0
  -84.4249   27.6171    2.4131 C   0  0  0  0  0  0  0  0  0  0  0  0
  -85.5215   27.1284    1.6733 O   0  0  0  0  0  0  0  0  0  0  0  0
  -87.3514   32.1471   -1.1388 C   0  0  0  0  0  0  0  0  0  0  0  0
  -88.2357   32.8929   -0.7042 O   0  0  0  0  0  0  0  0  0  0  0  0
  -86.2848   32.7681   -1.7557 O   0  0  0  0  0  0  0  0  0  0  0  0
  -85.4294   33.6686   -1.0357 C   0  0  0  0  0  0  0  0  0  0  0  0
 18 19  1  0  0  0
 19 16  1  0  0  0
 16 17  2  0  0  0
 16  1  1  0  0  0
  1  2  2  0  0  0
  2  3  1  0  0  0
  2  4  1  0  0  0
  4  5  1  0  0  0
  5  6  1  0  0  0
  5  7  2  0  0  0
  7  8  1  0  0  0
  8 10  1  0  0  0
 10 11  2  0  0  0
 11 12  1  0  0  0
 12 13  2  0  0  0
 13 14  1  0  0  0
 14 15  2  0  0  0
  7 20  1  0  0  0
 20 21  2  0  0  0
 20 22  1  0  0  0
 22 23  1  0  0  0
  8  1  1  0  0  0
 15 10  1  0  0  0
  4  9  1  0  0  0
M  END
> <minimizedAffinity>
-7.25520

> <CNNscore>
0.2464664727

> <CNNaffinity>
5.2891612053

> <CNN_VS>
1.3036009073

> <CNNaffinity_variance>
0.1802829057

$$$$
[H]N=C(N([H])[H])N([H])C([H])([H])C([H])([H])C([H])([H])[C@@]1([H])C(=O)N([H])[C@@]([H])(C([H])([H])c2c([H])c([H])c([H])c([H])c2[H])C(=O)N([H])[C@@]([H])(C([H])([H])c2c([H])c([H])c([H])c([H])c2[H])C(=O)N2C([H])([H])C([H])([H])C([H])([H])[C@@]2([H])C(=O)N([H])C([H])([H])C(=O)N([H])[C@]([H])(C([H])([H])c2c([H])c([H])c([H])c([H])c2[H])C(=O)N1[H]


 64 68  0  0  0  0  0  0  0  0999 V2000
  -92.1297   26.8873   -0.4177 C   0  0  0  0  0  0  0  0  0  0  0  0
  -92.4464   28.2639   -0.3661 N   0  0  0  0  0  0  0  0  0  0  0  0
  -93.0375   29.1189   -1.3165 C   0  0  0  0  0  0  0  0  0  0  0  0
  -93.9648   29.9274   -0.9341 O   0  0  0  0  0  0  0  0  0  0  0  0
  -92.7208   29.2186   -2.7567 C   0  0  0  0  0  0  0  0  0  0  0  0
  -92.5575   30.6288   -3.1562 N   0  0  0  0  0  0  0  0  0  0  0  0
  -91.3619   31.1019   -3.7836 C   0  0  0  0  0  0  0  0  0  0  0  0
  -91.3804   32.1375   -4.4905 O   0  0  0  0  0  0  0  0  0  0  0  0
  -90.1236   30.3146   -3.5559 C   0  0  0  0  0  0  0  0  0  0  0  0
  -89.0037   31.1328   -3.9594 N   0  0  0  0  0  0  0  0  0  0  0  0
  -88.4182   32.1619   -3.1970 C   0  0  0  0  0  0  0  0  0  0  0  0
  -88.2029   33.2726   -3.7962 O   0  0  0  0  0  0  0  0  0  0  0  0
  -88.0290   32.0758   -1.7654 C   0  0  0  0  0  0  0  0  0  0  0  0
  -87.8831   33.4819   -1.1860 C   0  0  0  0  0  0  0  0  0  0  0  0
  -86.4876   33.8689   -1.6231 C   0  0  0  0  0  0  0  0  0  0  0  0
  -85.8725   32.6313   -2.2458 C   0  0  0  0  0  0  0  0  0  0  0  0
  -86.6689   31.5387   -1.6742 N   0  0  0  0  0  0  0  0  0  0  0  0
  -86.4175   30.2640   -1.1293 C   0  0  0  0  0  0  0  0  0  0  0  0
  -85.5452   29.5332   -1.7287 O   0  0  0  0  0  0  0  0  0  0  0  0
  -87.0588   29.6780    0.0699 C   0  0  0  0  0  0  0  0  0  0  0  0
  -87.4554   28.3045   -0.1412 N   0  0  0  0  0  0  0  0  0  0  0  0
  -88.1605   27.4307    0.6624 C   0  0  0  0  0  0  0  0  0  0  0  0
  -87.6904   26.2342    0.7341 O   0  0  0  0  0  0  0  0  0  0  0  0
  -89.3741   27.6176    1.4671 C   0  0  0  0  0  0  0  0  0  0  0  0
  -90.2705   26.4833    1.3297 N   0  0  0  0  0  0  0  0  0  0  0  0
  -91.5843   26.4261    0.8912 C   0  0  0  0  0  0  0  0  0  0  0  0
  -92.4403   25.9132    1.7080 O   0  0  0  0  0  0  0  0  0  0  0  0
  -92.2039   28.7606    0.5550 H   0  0  0  0  0  0  0  0  0  0  0  0
  -93.3644   31.2506   -2.9502 H   0  0  0  0  0  0  0  0  0  0  0  0
  -88.5621   30.9652   -4.9162 H   0  0  0  0  0  0  0  0  0  0  0  0
  -87.1445   27.9065   -1.0822 H   0  0  0  0  0  0  0  0  0  0  0  0
  -89.8045   25.5666    1.6314 H   0  0  0  0  0  0  0  0  0  0  0  0
  -91.2741   26.4265   -1.5671 C   0  0  0  0  0  0  0  0  0  0  0  0
  -92.0718   25.4891   -2.4581 C   0  0  0  0  0  0  0  0  0  0  0  0
  -91.9327   25.8053   -3.9198 C   0  0  0  0  0  0  0  0  0  0  0  0
  -93.0594   25.3122   -4.6739 N   0  0  0  0  0  0  0  0  0  0  0  0
  -93.7837   24.7603   -4.1763 H   0  0  0  0  0  0  0  0  0  0  0  0
  -93.0627   26.8607   -6.5477 N   0  0  0  0  0  0  0  0  0  0  0  0
  -93.2305   25.5429   -6.0625 C   0  0  0  0  0  0  0  0  0  0  0  0
  -93.5360   24.5530   -6.8573 N   0  0  0  0  0  0  0  0  0  0  0  0
  -93.9010   27.4390   -6.7343 H   0  0  0  0  0  0  0  0  0  0  0  0
  -92.1115   27.2328   -6.7110 H   0  0  0  0  0  0  0  0  0  0  0  0
  -93.6691   24.6889   -7.8787 H   0  0  0  0  0  0  0  0  0  0  0  0
  -93.7646   28.6479   -3.6766 C   0  0  0  0  0  0  0  0  0  0  0  0
  -94.2705   29.5208   -4.7172 C   0  0  0  0  0  0  0  0  0  0  0  0
  -94.7207   29.0348   -5.9243 C   0  0  0  0  0  0  0  0  0  0  0  0
  -95.1888   29.9193   -6.8871 C   0  0  0  0  0  0  0  0  0  0  0  0
  -95.2155   31.2808   -6.6669 C   0  0  0  0  0  0  0  0  0  0  0  0
  -94.7650   31.7821   -5.4559 C   0  0  0  0  0  0  0  0  0  0  0  0
  -94.3056   30.8923   -4.5151 C   0  0  0  0  0  0  0  0  0  0  0  0
  -86.0036   29.6273    1.1534 C   0  0  0  0  0  0  0  0  0  0  0  0
  -84.8448   30.4852    0.9501 C   0  0  0  0  0  0  0  0  0  0  0  0
  -84.8289   31.8230    1.2877 C   0  0  0  0  0  0  0  0  0  0  0  0
  -83.7014   32.6239    1.1082 C   0  0  0  0  0  0  0  0  0  0  0  0
  -82.5498   32.0745    0.5742 C   0  0  0  0  0  0  0  0  0  0  0  0
  -82.5419   30.7353    0.2281 C   0  0  0  0  0  0  0  0  0  0  0  0
  -83.6839   29.9711    0.4221 C   0  0  0  0  0  0  0  0  0  0  0  0
  -89.1819   27.8114    2.9368 C   0  0  0  0  0  0  0  0  0  0  0  0
  -89.1770   26.6199    3.7748 C   0  0  0  0  0  0  0  0  0  0  0  0
  -89.2625   26.7848    5.1630 C   0  0  0  0  0  0  0  0  0  0  0  0
  -89.2685   25.7444    6.0496 C   0  0  0  0  0  0  0  0  0  0  0  0
  -89.1877   24.4555    5.5793 C   0  0  0  0  0  0  0  0  0  0  0  0
  -89.1014   24.2446    4.2200 C   0  0  0  0  0  0  0  0  0  0  0  0
  -89.0975   25.3153    3.3515 C   0  0  0  0  0  0  0  0  0  0  0  0
 38 39  1  0  0  0
 39 40  2  0  0  0
 39 36  1  0  0  0
 36 35  1  0  0  0
 35 34  1  0  0  0
 34 33  1  0  0  0
 33  1  1  0  0  0
  1  2  1  0  0  0
  2  3  1  0  0  0
  3  4  2  0  0  0
  3  5  1  0  0  0
  5 44  1  0  0  0
 44 45  1  0  0  0
 45 46  2  0  0  0
 46 47  1  0  0  0
 47 48  2  0  0  0
 48 49  1  0  0  0
 49 50  2  0  0  0
  5  6  1  0  0  0
  6  7  1  0  0  0
  7  8  2  0  0  0
  7  9  1  0  0  0
  9 10  1  0  0  0
 10 11  1  0  0  0
 11 12  2  0  0  0
 11 13  1  0  0  0
 13 14  1  0  0  0
 14 15  1  0  0  0
 15 16  1  0  0  0
 16 17  1  0  0  0
 17 18  1  0  0  0
 18 19  2  0  0  0
 18 20  1  0  0  0
 20 51  1  0  0  0
 51 52  1  0  0  0
 52 53  2  0  0  0
 53 54  1  0  0  0
 54 55  2  0  0  0
 55 56  1  0  0  0
 56 57  2  0  0  0
 20 21  1  0  0  0
 21 22  1  0  0  0
 22 23  2  0  0  0
 22 24  1  0  0  0
 24 58  1  0  0  0
 58 59  1  0  0  0
 59 60  2  0  0  0
 60 61  1  0  0  0
 61 62  2  0  0  0
 62 63  1  0  0  0
 63 64  2  0  0  0
 24 25  1  0  0  0
 25 26  1  0  0  0
 26 27  2  0  0  0
 26  1  1  0  0  0
 50 45  1  0  0  0
 17 13  1  0  0  0
 57 52  1  0  0  0
 64 59  1  0  0  0
 38 41  1  0  0  0
 38 42  1  0  0  0
 40 43  1  0  0  0
 36 37  1  0  0  0
  2 28  1  0  0  0
  6 29  1  0  0  0
 10 30  1  0  0  0
 21 31  1  0  0  0
 25 32  1  0  0  0
M  END
> <minimizedAffinity>
-2.95332

> <CNNscore>
0.3881696165

> <CNNaffinity>
7.1633849144

> <CNN_VS>
2.7806084156

> <CNNaffinity_variance>
1.0389314890

$$$$
[H]N=C(N([H])[H])N([H])C([H])([H])C([H])([H])C([H])([H])[C@@]1([H])C(=O)N([H])[C@@]([H])(C([H])([H])c2c([H])c([H])c([H])c([H])c2[H])C(=O)N([H])[C@@]([H])(C([H])([H])c2c([H])c([H])c([H])c([H])c2[H])C(=O)N2C([H])([H])C([H])([H])C([H])([H])[C@@]2([H])C(=O)N([H])C([H])([H])C(=O)N([H])[C@]([H])(C([H])([H])c2c([H])c([H])c([H])c([H])c2[H])C(=O)N1[H]


 64 68  0  0  0  0  0  0  0  0999 V2000
  -87.5480   28.2542    1.6379 C   0  0  0  0  0  0  0  0  0  0  0  0
  -88.8492   28.3659    2.1789 N   0  0  0  0  0  0  0  0  0  0  0  0
  -89.4849   27.6690    3.2248 C   0  0  0  0  0  0  0  0  0  0  0  0
  -90.1623   28.3355    4.0946 O   0  0  0  0  0  0  0  0  0  0  0  0
  -89.4804   26.2111    3.4673 C   0  0  0  0  0  0  0  0  0  0  0  0
  -90.8466   25.7252    3.7366 N   0  0  0  0  0  0  0  0  0  0  0  0
  -91.4436   24.6824    2.9601 C   0  0  0  0  0  0  0  0  0  0  0  0
  -92.3789   23.9929    3.4315 O   0  0  0  0  0  0  0  0  0  0  0  0
  -90.9051   24.4664    1.5932 C   0  0  0  0  0  0  0  0  0  0  0  0
  -91.8517   23.6461    0.8738 N   0  0  0  0  0  0  0  0  0  0  0  0
  -93.0408   24.0976    0.2693 C   0  0  0  0  0  0  0  0  0  0  0  0
  -94.1007   23.4187    0.5036 O   0  0  0  0  0  0  0  0  0  0  0  0
  -93.1764   25.2860   -0.6124 C   0  0  0  0  0  0  0  0  0  0  0  0
  -94.6412   25.7155   -0.6761 C   0  0  0  0  0  0  0  0  0  0  0  0
  -95.2081   24.7788   -1.7199 C   0  0  0  0  0  0  0  0  0  0  0  0
  -94.0317   24.0213   -2.3032 C   0  0  0  0  0  0  0  0  0  0  0  0
  -92.8888   24.8887   -1.9931 N   0  0  0  0  0  0  0  0  0  0  0  0
  -91.7409   25.3510   -2.6665 C   0  0  0  0  0  0  0  0  0  0  0  0
  -91.1070   24.5003   -3.3937 O   0  0  0  0  0  0  0  0  0  0  0  0
  -91.1882   26.7240   -2.6221 C   0  0  0  0  0  0  0  0  0  0  0  0
  -89.7530   26.7279   -2.4539 N   0  0  0  0  0  0  0  0  0  0  0  0
  -88.8649   27.7684   -2.2667 C   0  0  0  0  0  0  0  0  0  0  0  0
  -87.7794   27.7076   -2.9565 O   0  0  0  0  0  0  0  0  0  0  0  0
  -88.9306   28.9569   -1.4074 C   0  0  0  0  0  0  0  0  0  0  0  0
  -87.6536   29.2047   -0.7619 N   0  0  0  0  0  0  0  0  0  0  0  0
  -87.3292   29.2855    0.5834 C   0  0  0  0  0  0  0  0  0  0  0  0
  -86.7707   30.3802    0.9746 O   0  0  0  0  0  0  0  0  0  0  0  0
  -89.4760   29.1121    1.7270 H   0  0  0  0  0  0  0  0  0  0  0  0
  -91.3422   26.1906    4.5227 H   0  0  0  0  0  0  0  0  0  0  0  0
  -91.6585   22.6011    0.7777 H   0  0  0  0  0  0  0  0  0  0  0  0
  -89.3138   25.7548   -2.4813 H   0  0  0  0  0  0  0  0  0  0  0  0
  -86.8663   29.3480   -1.4747 H   0  0  0  0  0  0  0  0  0  0  0  0
  -87.1165   26.8888    1.1746 C   0  0  0  0  0  0  0  0  0  0  0  0
  -88.3391   26.0330    0.8883 C   0  0  0  0  0  0  0  0  0  0  0  0
  -88.0153   24.5738    0.7408 C   0  0  0  0  0  0  0  0  0  0  0  0
  -87.9622   24.1848   -0.6473 N   0  0  0  0  0  0  0  0  0  0  0  0
  -87.1622   24.5114   -1.2218 H   0  0  0  0  0  0  0  0  0  0  0  0
  -89.0618   23.4273   -2.6786 N   0  0  0  0  0  0  0  0  0  0  0  0
  -88.9473   23.3770   -1.2698 C   0  0  0  0  0  0  0  0  0  0  0  0
  -89.7206   22.6136   -0.5457 N   0  0  0  0  0  0  0  0  0  0  0  0
  -89.8104   24.0034   -3.1026 H   0  0  0  0  0  0  0  0  0  0  0  0
  -88.4022   22.8923   -3.2690 H   0  0  0  0  0  0  0  0  0  0  0  0
  -90.4523   22.0109   -0.9708 H   0  0  0  0  0  0  0  0  0  0  0  0
  -88.6464   25.7651    4.6363 C   0  0  0  0  0  0  0  0  0  0  0  0
  -88.5757   24.3391    4.8863 C   0  0  0  0  0  0  0  0  0  0  0  0
  -89.1628   23.4197    4.0461 C   0  0  0  0  0  0  0  0  0  0  0  0
  -89.0682   22.0656    4.3392 C   0  0  0  0  0  0  0  0  0  0  0  0
  -88.3978   21.6124    5.4564 C   0  0  0  0  0  0  0  0  0  0  0  0
  -87.8027   22.5281    6.3097 C   0  0  0  0  0  0  0  0  0  0  0  0
  -87.9064   23.8636    6.0038 C   0  0  0  0  0  0  0  0  0  0  0  0
  -91.4330   27.3418   -3.9816 C   0  0  0  0  0  0  0  0  0  0  0  0
  -92.7206   27.0414   -4.5917 C   0  0  0  0  0  0  0  0  0  0  0  0
  -93.9078   27.5946   -4.1575 C   0  0  0  0  0  0  0  0  0  0  0  0
  -95.1290   27.3140   -4.7696 C   0  0  0  0  0  0  0  0  0  0  0  0
  -95.1703   26.4530   -5.8513 C   0  0  0  0  0  0  0  0  0  0  0  0
  -93.9928   25.8861   -6.3046 C   0  0  0  0  0  0  0  0  0  0  0  0
  -92.7973   26.1902   -5.6688 C   0  0  0  0  0  0  0  0  0  0  0  0
  -89.3114   30.2427   -2.0679 C   0  0  0  0  0  0  0  0  0  0  0  0
  -90.7198   30.4440   -2.3806 C   0  0  0  0  0  0  0  0  0  0  0  0
  -91.0486   31.0555   -3.5970 C   0  0  0  0  0  0  0  0  0  0  0  0
  -92.3323   31.2958   -4.0004 C   0  0  0  0  0  0  0  0  0  0  0  0
  -93.3765   30.9267   -3.1866 C   0  0  0  0  0  0  0  0  0  0  0  0
  -93.1010   30.3218   -1.9792 C   0  0  0  0  0  0  0  0  0  0  0  0
  -91.7952   30.0933   -1.6007 C   0  0  0  0  0  0  0  0  0  0  0  0
 38 39  1  0  0  0
 39 40  2  0  0  0
 39 36  1  0  0  0
 36 35  1  0  0  0
 35 34  1  0  0  0
 34 33  1  0  0  0
 33  1  1  0  0  0
  1  2  1  0  0  0
  2  3  1  0  0  0
  3  4  2  0  0  0
  3  5  1  0  0  0
  5 44  1  0  0  0
 44 45  1  0  0  0
 45 46  2  0  0  0
 46 47  1  0  0  0
 47 48  2  0  0  0
 48 49  1  0  0  0
 49 50  2  0  0  0
  5  6  1  0  0  0
  6  7  1  0  0  0
  7  8  2  0  0  0
  7  9  1  0  0  0
  9 10  1  0  0  0
 10 11  1  0  0  0
 11 12  2  0  0  0
 11 13  1  0  0  0
 13 14  1  0  0  0
 14 15  1  0  0  0
 15 16  1  0  0  0
 16 17  1  0  0  0
 17 18  1  0  0  0
 18 19  2  0  0  0
 18 20  1  0  0  0
 20 51  1  0  0  0
 51 52  1  0  0  0
 52 53  2  0  0  0
 53 54  1  0  0  0
 54 55  2  0  0  0
 55 56  1  0  0  0
 56 57  2  0  0  0
 20 21  1  0  0  0
 21 22  1  0  0  0
 22 23  2  0  0  0
 22 24  1  0  0  0
 24 58  1  0  0  0
 58 59  1  0  0  0
 59 60  2  0  0  0
 60 61  1  0  0  0
 61 62  2  0  0  0
 62 63  1  0  0  0
 63 64  2  0  0  0
 24 25  1  0  0  0
 25 26  1  0  0  0
 26 27  2  0  0  0
 26  1  1  0  0  0
 50 45  1  0  0  0
 17 13  1  0  0  0
 57 52  1  0  0  0
 64 59  1  0  0  0
 38 41  1  0  0  0
 38 42  1  0  0  0
 40 43  1  0  0  0
 36 37  1  0  0  0
  2 28  1  0  0  0
  6 29  1  0  0  0
 10 30  1  0  0  0
 21 31  1  0  0  0
 25 32  1  0  0  0
M  END
> <minimizedAffinity>
-2.21152

> <CNNscore>
0.3579152226

> <CNNaffinity>
6.5207877159

> <CNN_VS>
2.3338892460

> <CNNaffinity_variance>
0.4206929207

$$$$
[H]N=C(N([H])[H])N([H])C([H])([H])C([H])([H])C([H])([H])[C@@]1([H])C(=O)N([H])[C@@]([H])(C([H])([H])c2c([H])c([H])c([H])c([H])c2[H])C(=O)N([H])[C@@]([H])(C([H])([H])c2c([H])c([H])c([H])c([H])c2[H])C(=O)N2C([H])([H])C([H])([H])C([H])([H])[C@@]2([H])C(=O)N([H])C([H])([H])C(=O)N([H])[C@]([H])(C([H])([H])c2c([H])c([H])c([H])c([H])c2[H])C(=O)N1[H]


 64 68  0  0  0  0  0  0  0  0999 V2000
  -87.3792   36.0511   -3.3769 C   0  0  0  0  0  0  0  0  0  0  0  0
  -88.1304   35.2777   -2.4628 N   0  0  0  0  0  0  0  0  0  0  0  0
  -87.9754   33.9496   -2.0203 C   0  0  0  0  0  0  0  0  0  0  0  0
  -88.0823   33.6969   -0.7615 O   0  0  0  0  0  0  0  0  0  0  0  0
  -87.6962   32.7541   -2.8433 C   0  0  0  0  0  0  0  0  0  0  0  0
  -88.6019   31.6490   -2.4780 N   0  0  0  0  0  0  0  0  0  0  0  0
  -89.4385   31.0076   -3.4454 C   0  0  0  0  0  0  0  0  0  0  0  0
  -89.8594   29.8425   -3.2510 O   0  0  0  0  0  0  0  0  0  0  0  0
  -89.7736   31.7824   -4.6671 C   0  0  0  0  0  0  0  0  0  0  0  0
  -90.8808   31.1197   -5.3162 N   0  0  0  0  0  0  0  0  0  0  0  0
  -92.2359   31.2278   -4.9485 C   0  0  0  0  0  0  0  0  0  0  0  0
  -92.8959   30.1351   -4.8511 O   0  0  0  0  0  0  0  0  0  0  0  0
  -92.9663   32.4903   -4.6643 C   0  0  0  0  0  0  0  0  0  0  0  0
  -94.2297   32.1846   -3.8613 C   0  0  0  0  0  0  0  0  0  0  0  0
  -95.2063   31.7705   -4.9397 C   0  0  0  0  0  0  0  0  0  0  0  0
  -94.5207   32.0336   -6.2659 C   0  0  0  0  0  0  0  0  0  0  0  0
  -93.4958   33.0262   -5.9210 N   0  0  0  0  0  0  0  0  0  0  0  0
  -92.9986   34.2213   -6.4772 C   0  0  0  0  0  0  0  0  0  0  0  0
  -92.8272   34.2465   -7.7516 O   0  0  0  0  0  0  0  0  0  0  0  0
  -92.6524   35.4576   -5.7393 C   0  0  0  0  0  0  0  0  0  0  0  0
  -91.3927   36.0164   -6.1742 N   0  0  0  0  0  0  0  0  0  0  0  0
  -90.6614   37.0851   -5.6952 C   0  0  0  0  0  0  0  0  0  0  0  0
  -90.1757   37.8751   -6.5883 O   0  0  0  0  0  0  0  0  0  0  0  0
  -90.3273   37.4958   -4.3259 C   0  0  0  0  0  0  0  0  0  0  0  0
  -88.9420   37.9216   -4.2326 N   0  0  0  0  0  0  0  0  0  0  0  0
  -87.9079   37.4437   -3.4427 C   0  0  0  0  0  0  0  0  0  0  0  0
  -87.3306   38.3016   -2.6721 O   0  0  0  0  0  0  0  0  0  0  0  0
  -88.9690   35.7768   -2.0137 H   0  0  0  0  0  0  0  0  0  0  0  0
  -88.5916   31.3719   -1.4764 H   0  0  0  0  0  0  0  0  0  0  0  0
  -90.6830   30.4847   -6.1506 H   0  0  0  0  0  0  0  0  0  0  0  0
  -90.9625   35.5094   -7.0099 H   0  0  0  0  0  0  0  0  0  0  0  0
  -88.7302   38.7405   -4.8906 H   0  0  0  0  0  0  0  0  0  0  0  0
  -87.1712   35.4726   -4.7507 C   0  0  0  0  0  0  0  0  0  0  0  0
  -86.7860   36.5771   -5.7206 C   0  0  0  0  0  0  0  0  0  0  0  0
  -87.3158   36.3537   -7.1082 C   0  0  0  0  0  0  0  0  0  0  0  0
  -86.7997   37.3342   -8.0321 N   0  0  0  0  0  0  0  0  0  0  0  0
  -86.7930   37.1043   -9.0440 H   0  0  0  0  0  0  0  0  0  0  0  0
  -84.9012   38.7552   -7.4980 N   0  0  0  0  0  0  0  0  0  0  0  0
  -86.3007   38.5990   -7.6299 C   0  0  0  0  0  0  0  0  0  0  0  0
  -87.1261   39.5820   -7.3906 N   0  0  0  0  0  0  0  0  0  0  0  0
  -84.4764   38.7115   -6.5547 H   0  0  0  0  0  0  0  0  0  0  0  0
  -84.3183   38.9109   -8.3381 H   0  0  0  0  0  0  0  0  0  0  0  0
  -86.7928   40.5201   -7.0936 H   0  0  0  0  0  0  0  0  0  0  0  0
  -86.3024   32.2051   -2.7122 C   0  0  0  0  0  0  0  0  0  0  0  0
  -85.7987   32.0071   -1.3676 C   0  0  0  0  0  0  0  0  0  0  0  0
  -86.2418   30.9799   -0.5648 C   0  0  0  0  0  0  0  0  0  0  0  0
  -85.7280   30.8427    0.7180 C   0  0  0  0  0  0  0  0  0  0  0  0
  -84.7794   31.7127    1.2143 C   0  0  0  0  0  0  0  0  0  0  0  0
  -84.3255   32.7506    0.4158 C   0  0  0  0  0  0  0  0  0  0  0  0
  -84.8449   32.8708   -0.8505 C   0  0  0  0  0  0  0  0  0  0  0  0
  -93.6950   36.4931   -6.1008 C   0  0  0  0  0  0  0  0  0  0  0  0
  -93.3037   37.4578   -7.1189 C   0  0  0  0  0  0  0  0  0  0  0  0
  -93.5959   38.8036   -7.0339 C   0  0  0  0  0  0  0  0  0  0  0  0
  -93.1918   39.7172   -8.0072 C   0  0  0  0  0  0  0  0  0  0  0  0
  -92.4721   39.2761   -9.1028 C   0  0  0  0  0  0  0  0  0  0  0  0
  -92.1672   37.9311   -9.2097 C   0  0  0  0  0  0  0  0  0  0  0  0
  -92.5871   37.0531   -8.2204 C   0  0  0  0  0  0  0  0  0  0  0  0
  -91.1373   38.6082   -3.7421 C   0  0  0  0  0  0  0  0  0  0  0  0
  -92.5134   38.3105   -3.3682 C   0  0  0  0  0  0  0  0  0  0  0  0
  -93.4417   39.3592   -3.3649 C   0  0  0  0  0  0  0  0  0  0  0  0
  -94.7588   39.2028   -3.0341 C   0  0  0  0  0  0  0  0  0  0  0  0
  -95.2237   37.9583   -2.6820 C   0  0  0  0  0  0  0  0  0  0  0  0
  -94.3459   36.8958   -2.6707 C   0  0  0  0  0  0  0  0  0  0  0  0
  -93.0231   37.0862   -3.0092 C   0  0  0  0  0  0  0  0  0  0  0  0
 38 39  1  0  0  0
 39 40  2  0  0  0
 39 36  1  0  0  0
 36 35  1  0  0  0
 35 34  1  0  0  0
 34 33  1  0  0  0
 33  1  1  0  0  0
  1  2  1  0  0  0
  2  3  1  0  0  0
  3  4  2  0  0  0
  3  5  1  0  0  0
  5 44  1  0  0  0
 44 45  1  0  0  0
 45 46  2  0  0  0
 46 47  1  0  0  0
 47 48  2  0  0  0
 48 49  1  0  0  0
 49 50  2  0  0  0
  5  6  1  0  0  0
  6  7  1  0  0  0
  7  8  2  0  0  0
  7  9  1  0  0  0
  9 10  1  0  0  0
 10 11  1  0  0  0
 11 12  2  0  0  0
 11 13  1  0  0  0
 13 14  1  0  0  0
 14 15  1  0  0  0
 15 16  1  0  0  0
 16 17  1  0  0  0
 17 18  1  0  0  0
 18 19  2  0  0  0
 18 20  1  0  0  0
 20 51  1  0  0  0
 51 52  1  0  0  0
 52 53  2  0  0  0
 53 54  1  0  0  0
 54 55  2  0  0  0
 55 56  1  0  0  0
 56 57  2  0  0  0
 20 21  1  0  0  0
 21 22  1  0  0  0
 22 23  2  0  0  0
 22 24  1  0  0  0
 24 58  1  0  0  0
 58 59  1  0  0  0
 59 60  2  0  0  0
 60 61  1  0  0  0
 61 62  2  0  0  0
 62 63  1  0  0  0
 63 64  2  0  0  0
 24 25  1  0  0  0
 25 26  1  0  0  0
 26 27  2  0  0  0
 26  1  1  0  0  0
 50 45  1  0  0  0
 17 13  1  0  0  0
 57 52  1  0  0  0
 64 59  1  0  0  0
 38 41  1  0  0  0
 38 42  1  0  0  0
 40 43  1  0  0  0
 36 37  1  0  0  0
  2 28  1  0  0  0
  6 29  1  0  0  0
 10 30  1  0  0  0
 21 31  1  0  0  0
 25 32  1  0  0  0
M  END
> <minimizedAffinity>
-5.53801

> <CNNscore>
0.3542676866

> <CNNaffinity>
7.2120447159

> <CNN_VS>
2.5549943447

> <CNNaffinity_variance>
1.5191869736

$$$$
[H]N=C(N([H])[H])N([H])C([H])([H])C([H])([H])C([H])([H])[C@@]1([H])C(=O)N([H])[C@@]([H])(C([H])([H])c2c([H])c([H])c([H])c([H])c2[H])C(=O)N([H])[C@@]([H])(C([H])([H])c2c([H])c([H])c([H])c([H])c2[H])C(=O)N2C([H])([H])C([H])([H])C([H])([H])[C@@]2([H])C(=O)N([H])C([H])([H])C(=O)N([H])[C@]([H])(C([H])([H])c2c([H])c([H])c([H])c([H])c2[H])C(=O)N1[H]


 64 68  0  0  0  0  0  0  0  0999 V2000
  -91.8023   26.7370   -0.7458 C   0  0  0  0  0  0  0  0  0  0  0  0
  -92.3812   28.0266   -0.7421 N   0  0  0  0  0  0  0  0  0  0  0  0
  -93.1217   28.7168   -1.7213 C   0  0  0  0  0  0  0  0  0  0  0  0
  -94.1909   29.3420   -1.3666 O   0  0  0  0  0  0  0  0  0  0  0  0
  -92.8219   28.8265   -3.1644 C   0  0  0  0  0  0  0  0  0  0  0  0
  -92.9338   30.2269   -3.6131 N   0  0  0  0  0  0  0  0  0  0  0  0
  -91.8494   30.9018   -4.2577 C   0  0  0  0  0  0  0  0  0  0  0  0
  -92.0649   31.8890   -5.0004 O   0  0  0  0  0  0  0  0  0  0  0  0
  -90.4829   30.3790   -4.0037 C   0  0  0  0  0  0  0  0  0  0  0  0
  -89.5413   31.3852   -4.4366 N   0  0  0  0  0  0  0  0  0  0  0  0
  -89.1718   32.5343   -3.7112 C   0  0  0  0  0  0  0  0  0  0  0  0
  -89.1733   33.6443   -4.3491 O   0  0  0  0  0  0  0  0  0  0  0  0
  -88.7819   32.5750   -2.2778 C   0  0  0  0  0  0  0  0  0  0  0  0
  -88.9159   34.0018   -1.7481 C   0  0  0  0  0  0  0  0  0  0  0  0
  -87.6199   34.6378   -2.1997 C   0  0  0  0  0  0  0  0  0  0  0  0
  -86.7719   33.5229   -2.7792 C   0  0  0  0  0  0  0  0  0  0  0  0
  -87.3438   32.3165   -2.1690 N   0  0  0  0  0  0  0  0  0  0  0  0
  -86.8524   31.1347   -1.5801 C   0  0  0  0  0  0  0  0  0  0  0  0
  -85.8510   30.5676   -2.1543 O   0  0  0  0  0  0  0  0  0  0  0  0
  -87.3745   30.4768   -0.3606 C   0  0  0  0  0  0  0  0  0  0  0  0
  -87.4949   29.0459   -0.5232 N   0  0  0  0  0  0  0  0  0  0  0  0
  -88.0213   28.0799    0.3112 C   0  0  0  0  0  0  0  0  0  0  0  0
  -87.3277   27.0010    0.4243 O   0  0  0  0  0  0  0  0  0  0  0  0
  -89.2527   28.0545    1.1099 C   0  0  0  0  0  0  0  0  0  0  0  0
  -89.9104   26.7633    1.0131 N   0  0  0  0  0  0  0  0  0  0  0  0
  -91.1853   26.4363    0.5780 C   0  0  0  0  0  0  0  0  0  0  0  0
  -91.9300   25.7950    1.4130 O   0  0  0  0  0  0  0  0  0  0  0  0
  -92.2454   28.5924    0.1609 H   0  0  0  0  0  0  0  0  0  0  0  0
  -93.8475   30.6864   -3.4283 H   0  0  0  0  0  0  0  0  0  0  0  0
  -89.0698   31.2739   -5.3873 H   0  0  0  0  0  0  0  0  0  0  0  0
  -87.1069   28.6839   -1.4499 H   0  0  0  0  0  0  0  0  0  0  0  0
  -89.2768   25.9658    1.3462 H   0  0  0  0  0  0  0  0  0  0  0  0
  -90.8666   26.4123   -1.8791 C   0  0  0  0  0  0  0  0  0  0  0  0
  -91.6646   25.9657   -3.0926 C   0  0  0  0  0  0  0  0  0  0  0  0
  -91.0643   26.4202   -4.3922 C   0  0  0  0  0  0  0  0  0  0  0  0
  -92.0221   26.3454   -5.4684 N   0  0  0  0  0  0  0  0  0  0  0  0
  -92.8256   25.6961   -5.3706 H   0  0  0  0  0  0  0  0  0  0  0  0
  -92.0904   28.5160   -6.5605 N   0  0  0  0  0  0  0  0  0  0  0  0
  -91.9241   27.1148   -6.6554 C   0  0  0  0  0  0  0  0  0  0  0  0
  -91.6871   26.5281   -7.7976 N   0  0  0  0  0  0  0  0  0  0  0  0
  -93.0027   28.9332   -6.8170 H   0  0  0  0  0  0  0  0  0  0  0  0
  -91.3056   29.1078   -6.2384 H   0  0  0  0  0  0  0  0  0  0  0  0
  -91.6105   27.0628   -8.6850 H   0  0  0  0  0  0  0  0  0  0  0  0
  -93.7291   28.0321   -4.0628 C   0  0  0  0  0  0  0  0  0  0  0  0
  -94.2358   26.7783   -3.5414 C   0  0  0  0  0  0  0  0  0  0  0  0
  -94.4669   25.6895   -4.3519 C   0  0  0  0  0  0  0  0  0  0  0  0
  -94.9593   24.5152   -3.7977 C   0  0  0  0  0  0  0  0  0  0  0  0
  -95.2254   24.4080   -2.4484 C   0  0  0  0  0  0  0  0  0  0  0  0
  -94.9967   25.4971   -1.6222 C   0  0  0  0  0  0  0  0  0  0  0  0
  -94.5094   26.6505   -2.1879 C   0  0  0  0  0  0  0  0  0  0  0  0
  -86.3361   30.6699    0.7232 C   0  0  0  0  0  0  0  0  0  0  0  0
  -85.1249   31.3719    0.3224 C   0  0  0  0  0  0  0  0  0  0  0  0
  -85.0921   32.7246    0.0522 C   0  0  0  0  0  0  0  0  0  0  0  0
  -83.9173   33.3849   -0.3069 C   0  0  0  0  0  0  0  0  0  0  0  0
  -82.7343   32.6744   -0.4002 C   0  0  0  0  0  0  0  0  0  0  0  0
  -82.7424   31.3171   -0.1339 C   0  0  0  0  0  0  0  0  0  0  0  0
  -83.9318   30.6959    0.2204 C   0  0  0  0  0  0  0  0  0  0  0  0
  -89.1107   28.3326    2.5717 C   0  0  0  0  0  0  0  0  0  0  0  0
  -89.1844   27.1963    3.4803 C   0  0  0  0  0  0  0  0  0  0  0  0
  -89.7613   27.3916    4.7415 C   0  0  0  0  0  0  0  0  0  0  0  0
  -89.8874   26.4030    5.6771 C   0  0  0  0  0  0  0  0  0  0  0  0
  -89.4316   25.1387    5.3897 C   0  0  0  0  0  0  0  0  0  0  0  0
  -88.8559   24.8995    4.1605 C   0  0  0  0  0  0  0  0  0  0  0  0
  -88.7430   25.9180    3.2382 C   0  0  0  0  0  0  0  0  0  0  0  0
 38 39  1  0  0  0
 39 40  2  0  0  0
 39 36  1  0  0  0
 36 35  1  0  0  0
 35 34  1  0  0  0
 34 33  1  0  0  0
 33  1  1  0  0  0
  1  2  1  0  0  0
  2  3  1  0  0  0
  3  4  2  0  0  0
  3  5  1  0  0  0
  5 44  1  0  0  0
 44 45  1  0  0  0
 45 46  2  0  0  0
 46 47  1  0  0  0
 47 48  2  0  0  0
 48 49  1  0  0  0
 49 50  2  0  0  0
  5  6  1  0  0  0
  6  7  1  0  0  0
  7  8  2  0  0  0
  7  9  1  0  0  0
  9 10  1  0  0  0
 10 11  1  0  0  0
 11 12  2  0  0  0
 11 13  1  0  0  0
 13 14  1  0  0  0
 14 15  1  0  0  0
 15 16  1  0  0  0
 16 17  1  0  0  0
 17 18  1  0  0  0
 18 19  2  0  0  0
 18 20  1  0  0  0
 20 51  1  0  0  0
 51 52  1  0  0  0
 52 53  2  0  0  0
 53 54  1  0  0  0
 54 55  2  0  0  0
 55 56  1  0  0  0
 56 57  2  0  0  0
 20 21  1  0  0  0
 21 22  1  0  0  0
 22 23  2  0  0  0
 22 24  1  0  0  0
 24 58  1  0  0  0
 58 59  1  0  0  0
 59 60  2  0  0  0
 60 61  1  0  0  0
 61 62  2  0  0  0
 62 63  1  0  0  0
 63 64  2  0  0  0
 24 25  1  0  0  0
 25 26  1  0  0  0
 26 27  2  0  0  0
 26  1  1  0  0  0
 50 45  1  0  0  0
 17 13  1  0  0  0
 57 52  1  0  0  0
 64 59  1  0  0  0
 38 41  1  0  0  0
 38 42  1  0  0  0
 40 43  1  0  0  0
 36 37  1  0  0  0
  2 28  1  0  0  0
  6 29  1  0  0  0
 10 30  1  0  0  0
 21 31  1  0  0  0
 25 32  1  0  0  0
M  END
> <minimizedAffinity>
-3.69676

> <CNNscore>
0.3063837886

> <CNNaffinity>
7.0090713501

> <CNN_VS>
2.1474659443

> <CNNaffinity_variance>
0.5048508644

$$$$
[H]N=C(N([H])[H])N([H])C([H])([H])C([H])([H])C([H])([H])[C@@]1([H])C(=O)N([H])[C@@]([H])(C([H])([H])c2c([H])c([H])c([H])c([H])c2[H])C(=O)N([H])[C@@]([H])(C([H])([H])c2c([H])c([H])c([H])c([H])c2[H])C(=O)N2C([H])([H])C([H])([H])C([H])([H])[C@@]2([H])C(=O)N([H])C([H])([H])C(=O)N([H])[C@]([H])(C([H])([H])c2c([H])c([H])c([H])c([H])c2[H])C(=O)N1[H]


 64 68  0  0  0  0  0  0  0  0999 V2000
  -88.3631   26.8345   -0.2600 C   0  0  0  0  0  0  0  0  0  0  0  0
  -88.1776   26.8994   -1.6599 N   0  0  0  0  0  0  0  0  0  0  0  0
  -87.7169   27.9397   -2.4901 C   0  0  0  0  0  0  0  0  0  0  0  0
  -86.8542   27.6676   -3.4074 O   0  0  0  0  0  0  0  0  0  0  0  0
  -88.1095   29.3640   -2.4492 C   0  0  0  0  0  0  0  0  0  0  0  0
  -88.4260   29.8545   -3.8035 N   0  0  0  0  0  0  0  0  0  0  0  0
  -89.6898   30.4484   -4.1150 C   0  0  0  0  0  0  0  0  0  0  0  0
  -89.8042   31.2280   -5.0906 O   0  0  0  0  0  0  0  0  0  0  0  0
  -90.8348   30.0976   -3.2370 C   0  0  0  0  0  0  0  0  0  0  0  0
  -92.0458   30.4974   -3.9153 N   0  0  0  0  0  0  0  0  0  0  0  0
  -92.6904   29.7804   -4.9416 C   0  0  0  0  0  0  0  0  0  0  0  0
  -93.0392   30.4454   -5.9785 O   0  0  0  0  0  0  0  0  0  0  0  0
  -93.0013   28.3273   -4.9303 C   0  0  0  0  0  0  0  0  0  0  0  0
  -93.2536   27.8435   -6.3574 C   0  0  0  0  0  0  0  0  0  0  0  0
  -94.6988   28.2308   -6.5797 C   0  0  0  0  0  0  0  0  0  0  0  0
  -95.2214   28.7283   -5.2465 C   0  0  0  0  0  0  0  0  0  0  0  0
  -94.2978   28.1237   -4.2789 N   0  0  0  0  0  0  0  0  0  0  0  0
  -94.3998   27.4756   -3.0322 C   0  0  0  0  0  0  0  0  0  0  0  0
  -95.2254   27.9724   -2.1804 O   0  0  0  0  0  0  0  0  0  0  0  0
  -93.6492   26.2740   -2.6016 C   0  0  0  0  0  0  0  0  0  0  0  0
  -93.1333   26.4068   -1.2582 N   0  0  0  0  0  0  0  0  0  0  0  0
  -92.3104   25.5820   -0.5174 C   0  0  0  0  0  0  0  0  0  0  0  0
  -92.6598   25.3987    0.7082 O   0  0  0  0  0  0  0  0  0  0  0  0
  -91.0836   24.8600   -0.8764 C   0  0  0  0  0  0  0  0  0  0  0  0
  -90.0901   24.9639    0.1778 N   0  0  0  0  0  0  0  0  0  0  0  0
  -88.7992   25.4680    0.1474 C   0  0  0  0  0  0  0  0  0  0  0  0
  -87.8601   24.6642    0.5151 O   0  0  0  0  0  0  0  0  0  0  0  0
  -88.4227   26.0046   -2.2014 H   0  0  0  0  0  0  0  0  0  0  0  0
  -87.6735   29.7381   -4.5109 H   0  0  0  0  0  0  0  0  0  0  0  0
  -92.5142   31.4142   -3.6347 H   0  0  0  0  0  0  0  0  0  0  0  0
  -93.4488   27.2984   -0.7622 H   0  0  0  0  0  0  0  0  0  0  0  0
  -90.4513   24.5721    1.1076 H   0  0  0  0  0  0  0  0  0  0  0  0
  -89.2241   27.8994    0.3644 C   0  0  0  0  0  0  0  0  0  0  0  0
  -88.5061   28.5063    1.5583 C   0  0  0  0  0  0  0  0  0  0  0  0
  -87.4987   29.5509    1.1711 C   0  0  0  0  0  0  0  0  0  0  0  0
  -86.1724   28.9918    1.0738 N   0  0  0  0  0  0  0  0  0  0  0  0
  -85.5952   29.2302    0.2451 H   0  0  0  0  0  0  0  0  0  0  0  0
  -85.9834   26.7671    2.0351 N   0  0  0  0  0  0  0  0  0  0  0  0
  -85.6139   28.1322    2.0534 C   0  0  0  0  0  0  0  0  0  0  0  0
  -84.7829   28.6059    2.9423 N   0  0  0  0  0  0  0  0  0  0  0  0
  -86.7039   26.4316    2.6986 H   0  0  0  0  0  0  0  0  0  0  0  0
  -85.5341   26.1204    1.3644 H   0  0  0  0  0  0  0  0  0  0  0  0
  -84.3573   28.0031    3.6735 H   0  0  0  0  0  0  0  0  0  0  0  0
  -87.0607   30.2959   -1.9080 C   0  0  0  0  0  0  0  0  0  0  0  0
  -87.3257   31.7166   -2.0168 C   0  0  0  0  0  0  0  0  0  0  0  0
  -88.3444   32.3258   -1.3189 C   0  0  0  0  0  0  0  0  0  0  0  0
  -88.5560   33.6903   -1.4673 C   0  0  0  0  0  0  0  0  0  0  0  0
  -87.7688   34.4581   -2.3001 C   0  0  0  0  0  0  0  0  0  0  0  0
  -86.7402   33.8564   -3.0080 C   0  0  0  0  0  0  0  0  0  0  0  0
  -86.5456   32.5056   -2.8487 C   0  0  0  0  0  0  0  0  0  0  0  0
  -94.6421   25.1337   -2.5374 C   0  0  0  0  0  0  0  0  0  0  0  0
  -94.2727   23.9299   -3.2686 C   0  0  0  0  0  0  0  0  0  0  0  0
  -93.0002   23.3968   -3.2490 C   0  0  0  0  0  0  0  0  0  0  0  0
  -92.6704   22.2289   -3.9362 C   0  0  0  0  0  0  0  0  0  0  0  0
  -93.6406   21.5687   -4.6682 C   0  0  0  0  0  0  0  0  0  0  0  0
  -94.9238   22.0842   -4.7027 C   0  0  0  0  0  0  0  0  0  0  0  0
  -95.2128   23.2488   -4.0056 C   0  0  0  0  0  0  0  0  0  0  0  0
  -91.2236   23.3998   -1.1640 C   0  0  0  0  0  0  0  0  0  0  0  0
  -90.8340   22.4695   -0.1130 C   0  0  0  0  0  0  0  0  0  0  0  0
  -91.7978   22.0936    0.8311 C   0  0  0  0  0  0  0  0  0  0  0  0
  -91.5518   21.2281    1.8602 C   0  0  0  0  0  0  0  0  0  0  0  0
  -90.2982   20.6820    1.9986 C   0  0  0  0  0  0  0  0  0  0  0  0
  -89.3171   21.0234    1.0928 C   0  0  0  0  0  0  0  0  0  0  0  0
  -89.5968   21.8995    0.0657 C   0  0  0  0  0  0  0  0  0  0  0  0
 38 39  1  0  0  0
 39 40  2  0  0  0
 39 36  1  0  0  0
 36 35  1  0  0  0
 35 34  1  0  0  0
 34 33  1  0  0  0
 33  1  1  0  0  0
  1  2  1  0  0  0
  2  3  1  0  0  0
  3  4  2  0  0  0
  3  5  1  0  0  0
  5 44  1  0  0  0
 44 45  1  0  0  0
 45 46  2  0  0  0
 46 47  1  0  0  0
 47 48  2  0  0  0
 48 49  1  0  0  0
 49 50  2  0  0  0
  5  6  1  0  0  0
  6  7  1  0  0  0
  7  8  2  0  0  0
  7  9  1  0  0  0
  9 10  1  0  0  0
 10 11  1  0  0  0
 11 12  2  0  0  0
 11 13  1  0  0  0
 13 14  1  0  0  0
 14 15  1  0  0  0
 15 16  1  0  0  0
 16 17  1  0  0  0
 17 18  1  0  0  0
 18 19  2  0  0  0
 18 20  1  0  0  0
 20 51  1  0  0  0
 51 52  1  0  0  0
 52 53  2  0  0  0
 53 54  1  0  0  0
 54 55  2  0  0  0
 55 56  1  0  0  0
 56 57  2  0  0  0
 20 21  1  0  0  0
 21 22  1  0  0  0
 22 23  2  0  0  0
 22 24  1  0  0  0
 24 58  1  0  0  0
 58 59  1  0  0  0
 59 60  2  0  0  0
 60 61  1  0  0  0
 61 62  2  0  0  0
 62 63  1  0  0  0
 63 64  2  0  0  0
 24 25  1  0  0  0
 25 26  1  0  0  0
 26 27  2  0  0  0
 26  1  1  0  0  0
 50 45  1  0  0  0
 17 13  1  0  0  0
 57 52  1  0  0  0
 64 59  1  0  0  0
 38 41  1  0  0  0
 38 42  1  0  0  0
 40 43  1  0  0  0
 36 37  1  0  0  0
  2 28  1  0  0  0
  6 29  1  0  0  0
 10 30  1  0  0  0
 21 31  1  0  0  0
 25 32  1  0  0  0
M  END
> <minimizedAffinity>
-4.18271

> <CNNscore>
0.2989172935

> <CNNaffinity>
6.7086973190

> <CNN_VS>
2.0053455830

> <CNNaffinity_variance>
1.4639852047

$$$$
[H]N=C(N([H])[H])N([H])C([H])([H])C([H])([H])C([H])([H])[C@@]1([H])C(=O)N([H])[C@@]([H])(C([H])([H])c2c([H])c([H])c([H])c([H])c2[H])C(=O)N([H])[C@@]([H])(C([H])([H])c2c([H])c([H])c([H])c([H])c2[H])C(=O)N2C([H])([H])C([H])([H])C([H])([H])[C@@]2([H])C(=O)N([H])C([H])([H])C(=O)N([H])[C@]([H])(C([H])([H])c2c([H])c([H])c([H])c([H])c2[H])C(=O)N1[H]


 64 68  0  0  0  0  0  0  0  0999 V2000
  -86.7986   27.7930    2.9424 C   0  0  0  0  0  0  0  0  0  0  0  0
  -88.1094   28.3022    3.0862 N   0  0  0  0  0  0  0  0  0  0  0  0
  -89.2886   27.7102    3.5790 C   0  0  0  0  0  0  0  0  0  0  0  0
  -90.0270   28.3804    4.3947 O   0  0  0  0  0  0  0  0  0  0  0  0
  -89.8165   26.3647    3.2701 C   0  0  0  0  0  0  0  0  0  0  0  0
  -91.2520   26.4335    2.9390 N   0  0  0  0  0  0  0  0  0  0  0  0
  -91.7662   25.9312    1.7019 C   0  0  0  0  0  0  0  0  0  0  0  0
  -92.9709   25.5980    1.6012 O   0  0  0  0  0  0  0  0  0  0  0  0
  -90.8136   25.8284    0.5675 C   0  0  0  0  0  0  0  0  0  0  0  0
  -91.5870   25.6530   -0.6397 N   0  0  0  0  0  0  0  0  0  0  0  0
  -92.2380   26.6751   -1.3570 C   0  0  0  0  0  0  0  0  0  0  0  0
  -93.4518   26.4558   -1.7002 O   0  0  0  0  0  0  0  0  0  0  0  0
  -91.6461   27.9803   -1.7501 C   0  0  0  0  0  0  0  0  0  0  0  0
  -92.7603   28.9739   -2.0754 C   0  0  0  0  0  0  0  0  0  0  0  0
  -93.1090   28.6133   -3.5025 C   0  0  0  0  0  0  0  0  0  0  0  0
  -92.0814   27.5938   -3.9526 C   0  0  0  0  0  0  0  0  0  0  0  0
  -90.9591   27.8229   -3.0346 N   0  0  0  0  0  0  0  0  0  0  0  0
  -89.5567   27.9138   -3.1335 C   0  0  0  0  0  0  0  0  0  0  0  0
  -88.9683   27.0665   -3.9016 O   0  0  0  0  0  0  0  0  0  0  0  0
  -88.6875   28.8914   -2.4396 C   0  0  0  0  0  0  0  0  0  0  0  0
  -87.5120   28.2695   -1.8741 N   0  0  0  0  0  0  0  0  0  0  0  0
  -86.5091   28.7837   -1.0765 C   0  0  0  0  0  0  0  0  0  0  0  0
  -85.3099   28.4414   -1.3963 O   0  0  0  0  0  0  0  0  0  0  0  0
  -86.5585   29.6674    0.0948 C   0  0  0  0  0  0  0  0  0  0  0  0
  -85.6398   29.2181    1.1259 N   0  0  0  0  0  0  0  0  0  0  0  0
  -85.8772   28.8532    2.4420 C   0  0  0  0  0  0  0  0  0  0  0  0
  -85.2256   29.5041    3.3447 O   0  0  0  0  0  0  0  0  0  0  0  0
  -88.2475   29.3204    2.7730 H   0  0  0  0  0  0  0  0  0  0  0  0
  -91.8592   26.8705    3.6605 H   0  0  0  0  0  0  0  0  0  0  0  0
  -91.6922   24.6717   -1.0456 H   0  0  0  0  0  0  0  0  0  0  0  0
  -87.4106   27.2357   -2.1219 H   0  0  0  0  0  0  0  0  0  0  0  0
  -84.6285   29.1835    0.7729 H   0  0  0  0  0  0  0  0  0  0  0  0
  -86.6450   26.5138    2.1643 C   0  0  0  0  0  0  0  0  0  0  0  0
  -87.5364   26.5503    0.9342 C   0  0  0  0  0  0  0  0  0  0  0  0
  -88.2027   25.2344    0.6504 C   0  0  0  0  0  0  0  0  0  0  0  0
  -88.1539   24.9127   -0.7550 N   0  0  0  0  0  0  0  0  0  0  0  0
  -87.4397   25.3807   -1.3445 H   0  0  0  0  0  0  0  0  0  0  0  0
  -89.2810   22.7593   -0.7201 N   0  0  0  0  0  0  0  0  0  0  0  0
  -89.0318   23.9878   -1.3749 C   0  0  0  0  0  0  0  0  0  0  0  0
  -89.5857   24.2788   -2.5210 N   0  0  0  0  0  0  0  0  0  0  0  0
  -88.7767   21.9107   -1.0328 H   0  0  0  0  0  0  0  0  0  0  0  0
  -89.9597   22.7189    0.0594 H   0  0  0  0  0  0  0  0  0  0  0  0
  -90.2324   23.6229   -3.0016 H   0  0  0  0  0  0  0  0  0  0  0  0
  -89.6988   25.3653    4.3874 C   0  0  0  0  0  0  0  0  0  0  0  0
  -89.7220   23.9636    4.0195 C   0  0  0  0  0  0  0  0  0  0  0  0
  -90.5571   23.4792    3.0376 C   0  0  0  0  0  0  0  0  0  0  0  0
  -90.5410   22.1248    2.7315 C   0  0  0  0  0  0  0  0  0  0  0  0
  -89.7060   21.2446    3.3879 C   0  0  0  0  0  0  0  0  0  0  0  0
  -88.8607   21.7201    4.3781 C   0  0  0  0  0  0  0  0  0  0  0  0
  -88.8902   23.0629    4.6675 C   0  0  0  0  0  0  0  0  0  0  0  0
  -88.1674   29.8446   -3.4936 C   0  0  0  0  0  0  0  0  0  0  0  0
  -89.1265   30.8181   -3.9963 C   0  0  0  0  0  0  0  0  0  0  0  0
  -90.4474   30.8496   -3.5985 C   0  0  0  0  0  0  0  0  0  0  0  0
  -91.3462   31.8049   -4.0724 C   0  0  0  0  0  0  0  0  0  0  0  0
  -90.9157   32.7619   -4.9734 C   0  0  0  0  0  0  0  0  0  0  0  0
  -89.5957   32.7503   -5.3869 C   0  0  0  0  0  0  0  0  0  0  0  0
  -88.7317   31.7834   -4.8925 C   0  0  0  0  0  0  0  0  0  0  0  0
  -86.2390   31.1090   -0.1378 C   0  0  0  0  0  0  0  0  0  0  0  0
  -87.2911   31.9466   -0.6978 C   0  0  0  0  0  0  0  0  0  0  0  0
  -88.6155   31.6876   -0.3231 C   0  0  0  0  0  0  0  0  0  0  0  0
  -89.6854   32.4052   -0.7803 C   0  0  0  0  0  0  0  0  0  0  0  0
  -89.4777   33.4435   -1.6564 C   0  0  0  0  0  0  0  0  0  0  0  0
  -88.1905   33.7351   -2.0537 C   0  0  0  0  0  0  0  0  0  0  0  0
  -87.1324   32.9923   -1.5747 C   0  0  0  0  0  0  0  0  0  0  0  0
 38 39  1  0  0  0
 39 40  2  0  0  0
 39 36  1  0  0  0
 36 35  1  0  0  0
 35 34  1  0  0  0
 34 33  1  0  0  0
 33  1  1  0  0  0
  1  2  1  0  0  0
  2  3  1  0  0  0
  3  4  2  0  0  0
  3  5  1  0  0  0
  5 44  1  0  0  0
 44 45  1  0  0  0
 45 46  2  0  0  0
 46 47  1  0  0  0
 47 48  2  0  0  0
 48 49  1  0  0  0
 49 50  2  0  0  0
  5  6  1  0  0  0
  6  7  1  0  0  0
  7  8  2  0  0  0
  7  9  1  0  0  0
  9 10  1  0  0  0
 10 11  1  0  0  0
 11 12  2  0  0  0
 11 13  1  0  0  0
 13 14  1  0  0  0
 14 15  1  0  0  0
 15 16  1  0  0  0
 16 17  1  0  0  0
 17 18  1  0  0  0
 18 19  2  0  0  0
 18 20  1  0  0  0
 20 51  1  0  0  0
 51 52  1  0  0  0
 52 53  2  0  0  0
 53 54  1  0  0  0
 54 55  2  0  0  0
 55 56  1  0  0  0
 56 57  2  0  0  0
 20 21  1  0  0  0
 21 22  1  0  0  0
 22 23  2  0  0  0
 22 24  1  0  0  0
 24 58  1  0  0  0
 58 59  1  0  0  0
 59 60  2  0  0  0
 60 61  1  0  0  0
 61 62  2  0  0  0
 62 63  1  0  0  0
 63 64  2  0  0  0
 24 25  1  0  0  0
 25 26  1  0  0  0
 26 27  2  0  0  0
 26  1  1  0  0  0
 50 45  1  0  0  0
 17 13  1  0  0  0
 57 52  1  0  0  0
 64 59  1  0  0  0
 38 41  1  0  0  0
 38 42  1  0  0  0
 40 43  1  0  0  0
 36 37  1  0  0  0
  2 28  1  0  0  0
  6 29  1  0  0  0
 10 30  1  0  0  0
 21 31  1  0  0  0
 25 32  1  0  0  0
M  END
> <minimizedAffinity>
-4.23825

> <CNNscore>
0.2706708014

> <CNNaffinity>
6.6014046669

> <CNN_VS>
1.7868075371

> <CNNaffinity_variance>
0.8092330694

$$$$
[H]N=C(N([H])[H])N([H])C([H])([H])C([H])([H])C([H])([H])[C@@]1([H])C(=O)N([H])[C@@]([H])(C([H])([H])c2c([H])c([H])c([H])c([H])c2[H])C(=O)N([H])[C@@]([H])(C([H])([H])c2c([H])c([H])c([H])c([H])c2[H])C(=O)N2C([H])([H])C([H])([H])C([H])([H])[C@@]2([H])C(=O)N([H])C([H])([H])C(=O)N([H])[C@]([H])(C([H])([H])c2c([H])c([H])c([H])c([H])c2[H])C(=O)N1[H]


 64 68  0  0  0  0  0  0  0  0999 V2000
  -88.5832   26.9869    0.9243 C   0  0  0  0  0  0  0  0  0  0  0  0
  -89.7963   27.6981    1.0685 N   0  0  0  0  0  0  0  0  0  0  0  0
  -91.1327   27.3130    0.8458 C   0  0  0  0  0  0  0  0  0  0  0  0
  -92.0233   27.6214    1.7240 O   0  0  0  0  0  0  0  0  0  0  0  0
  -91.6740   26.5717   -0.3126 C   0  0  0  0  0  0  0  0  0  0  0  0
  -92.8914   27.2271   -0.8257 N   0  0  0  0  0  0  0  0  0  0  0  0
  -93.0053   27.6469   -2.1887 C   0  0  0  0  0  0  0  0  0  0  0  0
  -94.1326   27.7928   -2.7182 O   0  0  0  0  0  0  0  0  0  0  0  0
  -91.7405   27.8949   -2.9262 C   0  0  0  0  0  0  0  0  0  0  0  0
  -92.0689   28.6333   -4.1234 N   0  0  0  0  0  0  0  0  0  0  0  0
  -92.3130   30.0183   -4.1963 C   0  0  0  0  0  0  0  0  0  0  0  0
  -93.3527   30.3872   -4.8460 O   0  0  0  0  0  0  0  0  0  0  0  0
  -91.4765   31.0863   -3.5898 C   0  0  0  0  0  0  0  0  0  0  0  0
  -92.2900   32.3744   -3.4744 C   0  0  0  0  0  0  0  0  0  0  0  0
  -92.1683   32.9596   -4.8640 C   0  0  0  0  0  0  0  0  0  0  0  0
  -91.1731   32.0934   -5.6105 C   0  0  0  0  0  0  0  0  0  0  0  0
  -90.4143   31.4501   -4.5311 N   0  0  0  0  0  0  0  0  0  0  0  0
  -89.0622   31.1618   -4.2602 C   0  0  0  0  0  0  0  0  0  0  0  0
  -88.3480   30.7320   -5.2396 O   0  0  0  0  0  0  0  0  0  0  0  0
  -88.3767   31.3049   -2.9554 C   0  0  0  0  0  0  0  0  0  0  0  0
  -87.5455   30.1632   -2.6491 N   0  0  0  0  0  0  0  0  0  0  0  0
  -86.8241   29.8450   -1.5156 C   0  0  0  0  0  0  0  0  0  0  0  0
  -85.6356   29.3931   -1.7181 O   0  0  0  0  0  0  0  0  0  0  0  0
  -87.1694   29.9279   -0.0911 C   0  0  0  0  0  0  0  0  0  0  0  0
  -86.7171   28.7479    0.6244 N   0  0  0  0  0  0  0  0  0  0  0  0
  -87.4308   27.8220    1.3693 C   0  0  0  0  0  0  0  0  0  0  0  0
  -87.0572   27.6588    2.5928 O   0  0  0  0  0  0  0  0  0  0  0  0
  -89.7009   28.7116    1.4115 H   0  0  0  0  0  0  0  0  0  0  0  0
  -93.6544   27.3633   -0.1332 H   0  0  0  0  0  0  0  0  0  0  0  0
  -92.1410   28.1073   -5.0490 H   0  0  0  0  0  0  0  0  0  0  0  0
  -87.4850   29.4499   -3.4415 H   0  0  0  0  0  0  0  0  0  0  0  0
  -85.6572   28.6123    0.5425 H   0  0  0  0  0  0  0  0  0  0  0  0
  -88.3207   26.3494   -0.4136 C   0  0  0  0  0  0  0  0  0  0  0  0
  -87.9740   24.8821   -0.2246 C   0  0  0  0  0  0  0  0  0  0  0  0
  -89.1177   24.0712    0.3143 C   0  0  0  0  0  0  0  0  0  0  0  0
  -89.2543   22.8207   -0.3919 N   0  0  0  0  0  0  0  0  0  0  0  0
  -88.9554   22.7787   -1.3846 H   0  0  0  0  0  0  0  0  0  0  0  0
  -88.9685   20.9470    1.1300 N   0  0  0  0  0  0  0  0  0  0  0  0
  -89.7759   21.6428    0.2004 C   0  0  0  0  0  0  0  0  0  0  0  0
  -90.9718   21.2253   -0.1167 N   0  0  0  0  0  0  0  0  0  0  0  0
  -88.4516   20.1060    0.8176 H   0  0  0  0  0  0  0  0  0  0  0  0
  -88.9017   21.2812    2.1066 H   0  0  0  0  0  0  0  0  0  0  0  0
  -91.3824   20.3661    0.2984 H   0  0  0  0  0  0  0  0  0  0  0  0
  -92.0614   25.1467   -0.0290 C   0  0  0  0  0  0  0  0  0  0  0  0
  -92.6315   24.3906   -1.1262 C   0  0  0  0  0  0  0  0  0  0  0  0
  -93.9215   23.9104   -1.0908 C   0  0  0  0  0  0  0  0  0  0  0  0
  -94.4128   23.1864   -2.1691 C   0  0  0  0  0  0  0  0  0  0  0  0
  -93.6393   22.9326   -3.2828 C   0  0  0  0  0  0  0  0  0  0  0  0
  -92.3393   23.4107   -3.3304 C   0  0  0  0  0  0  0  0  0  0  0  0
  -91.8702   24.1251   -2.2545 C   0  0  0  0  0  0  0  0  0  0  0  0
  -87.4214   32.4714   -3.0852 C   0  0  0  0  0  0  0  0  0  0  0  0
  -88.0117   33.7281   -3.5239 C   0  0  0  0  0  0  0  0  0  0  0  0
  -89.0779   34.3246   -2.8825 C   0  0  0  0  0  0  0  0  0  0  0  0
  -89.6149   35.5412   -3.3026 C   0  0  0  0  0  0  0  0  0  0  0  0
  -89.0721   36.1866   -4.3988 C   0  0  0  0  0  0  0  0  0  0  0  0
  -88.0026   35.6079   -5.0581 C   0  0  0  0  0  0  0  0  0  0  0  0
  -87.4962   34.3961   -4.6096 C   0  0  0  0  0  0  0  0  0  0  0  0
  -86.6261   31.0977    0.6644 C   0  0  0  0  0  0  0  0  0  0  0  0
  -85.1824   31.2911    0.6527 C   0  0  0  0  0  0  0  0  0  0  0  0
  -84.6579   32.3258   -0.1321 C   0  0  0  0  0  0  0  0  0  0  0  0
  -83.3227   32.6049   -0.2222 C   0  0  0  0  0  0  0  0  0  0  0  0
  -82.4241   31.8438    0.4865 C   0  0  0  0  0  0  0  0  0  0  0  0
  -82.8945   30.8139    1.2725 C   0  0  0  0  0  0  0  0  0  0  0  0
  -84.2473   30.5576    1.3421 C   0  0  0  0  0  0  0  0  0  0  0  0
 38 39  1  0  0  0
 39 40  2  0  0  0
 39 36  1  0  0  0
 36 35  1  0  0  0
 35 34  1  0  0  0
 34 33  1  0  0  0
 33  1  1  0  0  0
  1  2  1  0  0  0
  2  3  1  0  0  0
  3  4  2  0  0  0
  3  5  1  0  0  0
  5 44  1  0  0  0
 44 45  1  0  0  0
 45 46  2  0  0  0
 46 47  1  0  0  0
 47 48  2  0  0  0
 48 49  1  0  0  0
 49 50  2  0  0  0
  5  6  1  0  0  0
  6  7  1  0  0  0
  7  8  2  0  0  0
  7  9  1  0  0  0
  9 10  1  0  0  0
 10 11  1  0  0  0
 11 12  2  0  0  0
 11 13  1  0  0  0
 13 14  1  0  0  0
 14 15  1  0  0  0
 15 16  1  0  0  0
 16 17  1  0  0  0
 17 18  1  0  0  0
 18 19  2  0  0  0
 18 20  1  0  0  0
 20 51  1  0  0  0
 51 52  1  0  0  0
 52 53  2  0  0  0
 53 54  1  0  0  0
 54 55  2  0  0  0
 55 56  1  0  0  0
 56 57  2  0  0  0
 20 21  1  0  0  0
 21 22  1  0  0  0
 22 23  2  0  0  0
 22 24  1  0  0  0
 24 58  1  0  0  0
 58 59  1  0  0  0
 59 60  2  0  0  0
 60 61  1  0  0  0
 61 62  2  0  0  0
 62 63  1  0  0  0
 63 64  2  0  0  0
 24 25  1  0  0  0
 25 26  1  0  0  0
 26 27  2  0  0  0
 26  1  1  0  0  0
 50 45  1  0  0  0
 17 13  1  0  0  0
 57 52  1  0  0  0
 64 59  1  0  0  0
 38 41  1  0  0  0
 38 42  1  0  0  0
 40 43  1  0  0  0
 36 37  1  0  0  0
  2 28  1  0  0  0
  6 29  1  0  0  0
 10 30  1  0  0  0
 21 31  1  0  0  0
 25 32  1  0  0  0
M  END
> <minimizedAffinity>
-7.94822

> <CNNscore>
0.2583096325

> <CNNaffinity>
7.1284523010

> <CNN_VS>
1.8413479328

> <CNNaffinity_variance>
0.4456209242

$$$$
[H]N=C(N([H])[H])N([H])C([H])([H])C([H])([H])C([H])([H])[C@@]1([H])C(=O)N([H])[C@@]([H])(C([H])([H])c2c([H])c([H])c([H])c([H])c2[H])C(=O)N([H])[C@@]([H])(C([H])([H])c2c([H])c([H])c([H])c([H])c2[H])C(=O)N2C([H])([H])C([H])([H])C([H])([H])[C@@]2([H])C(=O)N([H])C([H])([H])C(=O)N([H])[C@]([H])(C([H])([H])c2c([H])c([H])c([H])c([H])c2[H])C(=O)N1[H]


 64 68  0  0  0  0  0  0  0  0999 V2000
  -87.3551   26.9557    2.6089 C   0  0  0  0  0  0  0  0  0  0  0  0
  -88.6559   27.4520    2.8538 N   0  0  0  0  0  0  0  0  0  0  0  0
  -89.8275   26.8106    3.3008 C   0  0  0  0  0  0  0  0  0  0  0  0
  -90.5358   27.3767    4.2160 O   0  0  0  0  0  0  0  0  0  0  0  0
  -90.3783   25.5194    2.8385 C   0  0  0  0  0  0  0  0  0  0  0  0
  -91.8215   25.6404    2.5601 N   0  0  0  0  0  0  0  0  0  0  0  0
  -92.3749   25.3037    1.2844 C   0  0  0  0  0  0  0  0  0  0  0  0
  -93.5855   24.9949    1.1766 O   0  0  0  0  0  0  0  0  0  0  0  0
  -91.4550   25.3394    0.1193 C   0  0  0  0  0  0  0  0  0  0  0  0
  -92.2632   25.3249   -1.0778 N   0  0  0  0  0  0  0  0  0  0  0  0
  -92.9225   26.4349   -1.6403 C   0  0  0  0  0  0  0  0  0  0  0  0
  -94.1475   26.2701   -1.9737 O   0  0  0  0  0  0  0  0  0  0  0  0
  -92.3274   27.7752   -1.8809 C   0  0  0  0  0  0  0  0  0  0  0  0
  -93.4391   28.8103   -2.0451 C   0  0  0  0  0  0  0  0  0  0  0  0
  -93.8309   28.6372   -3.4959 C   0  0  0  0  0  0  0  0  0  0  0  0
  -92.8272   27.6758   -4.1013 C   0  0  0  0  0  0  0  0  0  0  0  0
  -91.6777   27.7778   -3.1941 N   0  0  0  0  0  0  0  0  0  0  0  0
  -90.2776   27.8703   -3.3208 C   0  0  0  0  0  0  0  0  0  0  0  0
  -89.7198   27.1235   -4.2070 O   0  0  0  0  0  0  0  0  0  0  0  0
  -89.3791   28.7451   -2.5333 C   0  0  0  0  0  0  0  0  0  0  0  0
  -88.1954   28.0475   -2.0854 N   0  0  0  0  0  0  0  0  0  0  0  0
  -87.1654   28.4485   -1.2579 C   0  0  0  0  0  0  0  0  0  0  0  0
  -85.9791   28.1410   -1.6529 O   0  0  0  0  0  0  0  0  0  0  0  0
  -87.1729   29.1760    0.0172 C   0  0  0  0  0  0  0  0  0  0  0  0
  -86.2312   28.5922    0.9560 N   0  0  0  0  0  0  0  0  0  0  0  0
  -86.4363   28.0642    2.2212 C   0  0  0  0  0  0  0  0  0  0  0  0
  -85.7531   28.5899    3.1804 O   0  0  0  0  0  0  0  0  0  0  0  0
  -88.7914   28.5028    2.6768 H   0  0  0  0  0  0  0  0  0  0  0  0
  -92.4039   25.9862    3.3484 H   0  0  0  0  0  0  0  0  0  0  0  0
  -92.3903   24.4042   -1.6020 H   0  0  0  0  0  0  0  0  0  0  0  0
  -88.1121   27.0531   -2.4656 H   0  0  0  0  0  0  0  0  0  0  0  0
  -85.2304   28.5955    0.5727 H   0  0  0  0  0  0  0  0  0  0  0  0
  -87.2369   25.7850    1.6703 C   0  0  0  0  0  0  0  0  0  0  0  0
  -88.1873   25.9676    0.4987 C   0  0  0  0  0  0  0  0  0  0  0  0
  -87.7950   25.1648   -0.7086 C   0  0  0  0  0  0  0  0  0  0  0  0
  -88.9415   24.8494   -1.5254 N   0  0  0  0  0  0  0  0  0  0  0  0
  -89.3996   25.6174   -2.0518 H   0  0  0  0  0  0  0  0  0  0  0  0
  -90.4135   23.2963   -2.6786 N   0  0  0  0  0  0  0  0  0  0  0  0
  -89.4765   23.5420   -1.6482 C   0  0  0  0  0  0  0  0  0  0  0  0
  -89.1034   22.6022   -0.8220 N   0  0  0  0  0  0  0  0  0  0  0  0
  -91.4227   23.2776   -2.4475 H   0  0  0  0  0  0  0  0  0  0  0  0
  -90.0856   23.1384   -3.6468 H   0  0  0  0  0  0  0  0  0  0  0  0
  -89.4770   21.6349   -0.8845 H   0  0  0  0  0  0  0  0  0  0  0  0
  -90.2408   24.3848    3.8157 C   0  0  0  0  0  0  0  0  0  0  0  0
  -90.2566   23.0424    3.2695 C   0  0  0  0  0  0  0  0  0  0  0  0
  -90.9647   22.7242    2.1322 C   0  0  0  0  0  0  0  0  0  0  0  0
  -90.9484   21.4191    1.6580 C   0  0  0  0  0  0  0  0  0  0  0  0
  -90.2378   20.4253    2.2986 C   0  0  0  0  0  0  0  0  0  0  0  0
  -89.5210   20.7333    3.4442 C   0  0  0  0  0  0  0  0  0  0  0  0
  -89.5486   22.0296    3.8987 C   0  0  0  0  0  0  0  0  0  0  0  0
  -88.8778   29.8211   -3.4719 C   0  0  0  0  0  0  0  0  0  0  0  0
  -88.6429   31.1267   -2.8715 C   0  0  0  0  0  0  0  0  0  0  0  0
  -87.6022   31.9520   -3.2455 C   0  0  0  0  0  0  0  0  0  0  0  0
  -87.4069   33.2101   -2.6763 C   0  0  0  0  0  0  0  0  0  0  0  0
  -88.2772   33.6625   -1.7012 C   0  0  0  0  0  0  0  0  0  0  0  0
  -89.3281   32.8526   -1.3098 C   0  0  0  0  0  0  0  0  0  0  0  0
  -89.4892   31.6069   -1.9000 C   0  0  0  0  0  0  0  0  0  0  0  0
  -86.8442   30.6331   -0.0391 C   0  0  0  0  0  0  0  0  0  0  0  0
  -85.4841   31.0270    0.3025 C   0  0  0  0  0  0  0  0  0  0  0  0
  -85.2282   31.4650    1.6079 C   0  0  0  0  0  0  0  0  0  0  0  0
  -83.9945   31.8582    2.0460 C   0  0  0  0  0  0  0  0  0  0  0  0
  -82.9292   31.8316    1.1779 C   0  0  0  0  0  0  0  0  0  0  0  0
  -83.1336   31.4079   -0.1176 C   0  0  0  0  0  0  0  0  0  0  0  0
  -84.3903   31.0178   -0.5289 C   0  0  0  0  0  0  0  0  0  0  0  0
 38 39  1  0  0  0
 39 40  2  0  0  0
 39 36  1  0  0  0
 36 35  1  0  0  0
 35 34  1  0  0  0
 34 33  1  0  0  0
 33  1  1  0  0  0
  1  2  1  0  0  0
  2  3  1  0  0  0
  3  4  2  0  0  0
  3  5  1  0  0  0
  5 44  1  0  0  0
 44 45  1  0  0  0
 45 46  2  0  0  0
 46 47  1  0  0  0
 47 48  2  0  0  0
 48 49  1  0  0  0
 49 50  2  0  0  0
  5  6  1  0  0  0
  6  7  1  0  0  0
  7  8  2  0  0  0
  7  9  1  0  0  0
  9 10  1  0  0  0
 10 11  1  0  0  0
 11 12  2  0  0  0
 11 13  1  0  0  0
 13 14  1  0  0  0
 14 15  1  0  0  0
 15 16  1  0  0  0
 16 17  1  0  0  0
 17 18  1  0  0  0
 18 19  2  0  0  0
 18 20  1  0  0  0
 20 51  1  0  0  0
 51 52  1  0  0  0
 52 53  2  0  0  0
 53 54  1  0  0  0
 54 55  2  0  0  0
 55 56  1  0  0  0
 56 57  2  0  0  0
 20 21  1  0  0  0
 21 22  1  0  0  0
 22 23  2  0  0  0
 22 24  1  0  0  0
 24 58  1  0  0  0
 58 59  1  0  0  0
 59 60  2  0  0  0
 60 61  1  0  0  0
 61 62  2  0  0  0
 62 63  1  0  0  0
 63 64  2  0  0  0
 24 25  1  0  0  0
 25 26  1  0  0  0
 26 27  2  0  0  0
 26  1  1  0  0  0
 50 45  1  0  0  0
 17 13  1  0  0  0
 57 52  1  0  0  0
 64 59  1  0  0  0
 38 41  1  0  0  0
 38 42  1  0  0  0
 40 43  1  0  0  0
 36 37  1  0  0  0
  2 28  1  0  0  0
  6 29  1  0  0  0
 10 30  1  0  0  0
 21 31  1  0  0  0
 25 32  1  0  0  0
M  END
> <minimizedAffinity>
-4.94610

> <CNNscore>
0.2505268753

> <CNNaffinity>
6.9897308350

> <CNN_VS>
1.7511154413

> <CNNaffinity_variance>
0.6608021259

$$$$
[H]N=C(N([H])[H])N([H])C([H])([H])C([H])([H])C([H])([H])[C@@]1([H])C(=O)N([H])[C@@]([H])(C([H])([H])c2c([H])c([H])c([H])c([H])c2[H])C(=O)N([H])[C@@]([H])(C([H])([H])c2c([H])c([H])c([H])c([H])c2[H])C(=O)N2C([H])([H])C([H])([H])C([H])([H])[C@@]2([H])C(=O)N([H])C([H])([H])C(=O)N([H])[C@]([H])(C([H])([H])c2c([H])c([H])c([H])c([H])c2[H])C(=O)N1[H]


 64 68  0  0  0  0  0  0  0  0999 V2000
  -87.9346   32.9692   -3.0887 C   0  0  0  0  0  0  0  0  0  0  0  0
  -88.2671   32.1298   -4.1763 N   0  0  0  0  0  0  0  0  0  0  0  0
  -89.2390   32.2582   -5.1876 C   0  0  0  0  0  0  0  0  0  0  0  0
  -88.9057   32.0059   -6.4061 O   0  0  0  0  0  0  0  0  0  0  0  0
  -90.6528   32.6593   -5.0305 C   0  0  0  0  0  0  0  0  0  0  0  0
  -91.5386   31.7395   -5.7682 N   0  0  0  0  0  0  0  0  0  0  0  0
  -92.6059   31.0390   -5.1223 C   0  0  0  0  0  0  0  0  0  0  0  0
  -93.5865   30.6223   -5.7835 O   0  0  0  0  0  0  0  0  0  0  0  0
  -92.4902   30.8373   -3.6557 C   0  0  0  0  0  0  0  0  0  0  0  0
  -93.4530   29.8303   -3.2745 N   0  0  0  0  0  0  0  0  0  0  0  0
  -93.2908   28.4389   -3.4184 C   0  0  0  0  0  0  0  0  0  0  0  0
  -94.2681   27.7949   -3.9374 O   0  0  0  0  0  0  0  0  0  0  0  0
  -92.0927   27.6533   -3.0240 C   0  0  0  0  0  0  0  0  0  0  0  0
  -92.0962   26.3091   -3.7503 C   0  0  0  0  0  0  0  0  0  0  0  0
  -93.0214   25.4782   -2.8890 C   0  0  0  0  0  0  0  0  0  0  0  0
  -93.3332   26.3127   -1.6625 C   0  0  0  0  0  0  0  0  0  0  0  0
  -92.2195   27.2678   -1.6161 N   0  0  0  0  0  0  0  0  0  0  0  0
  -91.3693   27.8031   -0.6285 C   0  0  0  0  0  0  0  0  0  0  0  0
  -91.9074   28.1261    0.4941 O   0  0  0  0  0  0  0  0  0  0  0  0
  -89.9116   28.0321   -0.7527 C   0  0  0  0  0  0  0  0  0  0  0  0
  -89.5174   29.3230   -0.2366 N   0  0  0  0  0  0  0  0  0  0  0  0
  -88.2971   29.9689   -0.2456 C   0  0  0  0  0  0  0  0  0  0  0  0
  -87.9599   30.5419    0.8570 O   0  0  0  0  0  0  0  0  0  0  0  0
  -87.2913   30.1271   -1.3032 C   0  0  0  0  0  0  0  0  0  0  0  0
  -86.7689   31.4819   -1.3274 N   0  0  0  0  0  0  0  0  0  0  0  0
  -86.7633   32.4232   -2.3449 C   0  0  0  0  0  0  0  0  0  0  0  0
  -85.6108   32.8856   -2.6929 O   0  0  0  0  0  0  0  0  0  0  0  0
  -87.6823   31.2330   -4.2647 H   0  0  0  0  0  0  0  0  0  0  0  0
  -91.3342   31.6351   -6.7819 H   0  0  0  0  0  0  0  0  0  0  0  0
  -94.3791   30.1402   -2.8445 H   0  0  0  0  0  0  0  0  0  0  0  0
  -90.3130   29.8611    0.2303 H   0  0  0  0  0  0  0  0  0  0  0  0
  -86.3203   31.7542   -0.3930 H   0  0  0  0  0  0  0  0  0  0  0  0
  -89.0522   33.3530   -2.1564 C   0  0  0  0  0  0  0  0  0  0  0  0
  -89.4982   34.7763   -2.4471 C   0  0  0  0  0  0  0  0  0  0  0  0
  -88.4322   35.6048   -3.1052 C   0  0  0  0  0  0  0  0  0  0  0  0
  -88.9855   36.4549   -4.1311 N   0  0  0  0  0  0  0  0  0  0  0  0
  -90.0150   36.4680   -4.2598 H   0  0  0  0  0  0  0  0  0  0  0  0
  -86.9203   36.8042   -5.3647 N   0  0  0  0  0  0  0  0  0  0  0  0
  -88.1951   37.2761   -4.9745 C   0  0  0  0  0  0  0  0  0  0  0  0
  -88.6478   38.4353   -5.3698 N   0  0  0  0  0  0  0  0  0  0  0  0
  -86.0806   37.1555   -4.8711 H   0  0  0  0  0  0  0  0  0  0  0  0
  -86.8379   36.1175   -6.1338 H   0  0  0  0  0  0  0  0  0  0  0  0
  -88.0935   39.0608   -5.9869 H   0  0  0  0  0  0  0  0  0  0  0  0
  -90.9805   34.0384   -5.5326 C   0  0  0  0  0  0  0  0  0  0  0  0
  -91.6648   34.1275   -6.8072 C   0  0  0  0  0  0  0  0  0  0  0  0
  -90.9823   34.1596   -8.0027 C   0  0  0  0  0  0  0  0  0  0  0  0
  -91.6908   34.2520   -9.1935 C   0  0  0  0  0  0  0  0  0  0  0  0
  -93.0687   34.3131   -9.2127 C   0  0  0  0  0  0  0  0  0  0  0  0
  -93.7669   34.2816   -8.0158 C   0  0  0  0  0  0  0  0  0  0  0  0
  -93.0496   34.1898   -6.8476 C   0  0  0  0  0  0  0  0  0  0  0  0
  -89.2288   27.0191    0.1403 C   0  0  0  0  0  0  0  0  0  0  0  0
  -89.5594   25.6243   -0.1153 C   0  0  0  0  0  0  0  0  0  0  0  0
  -89.4344   25.0353   -1.3568 C   0  0  0  0  0  0  0  0  0  0  0  0
  -89.7328   23.6910   -1.5778 C   0  0  0  0  0  0  0  0  0  0  0  0
  -90.1707   22.9056   -0.5268 C   0  0  0  0  0  0  0  0  0  0  0  0
  -90.3038   23.4740    0.7272 C   0  0  0  0  0  0  0  0  0  0  0  0
  -89.9969   24.8154    0.9071 C   0  0  0  0  0  0  0  0  0  0  0  0
  -86.0979   29.2296   -1.2345 C   0  0  0  0  0  0  0  0  0  0  0  0
  -85.4491   29.0755    0.0606 C   0  0  0  0  0  0  0  0  0  0  0  0
  -84.4341   29.9768    0.4057 C   0  0  0  0  0  0  0  0  0  0  0  0
  -83.7548   29.9337    1.5912 C   0  0  0  0  0  0  0  0  0  0  0  0
  -84.0655   28.9628    2.5130 C   0  0  0  0  0  0  0  0  0  0  0  0
  -85.0577   28.0533    2.2166 C   0  0  0  0  0  0  0  0  0  0  0  0
  -85.7244   28.1232    1.0118 C   0  0  0  0  0  0  0  0  0  0  0  0
 38 39  1  0  0  0
 39 40  2  0  0  0
 39 36  1  0  0  0
 36 35  1  0  0  0
 35 34  1  0  0  0
 34 33  1  0  0  0
 33  1  1  0  0  0
  1  2  1  0  0  0
  2  3  1  0  0  0
  3  4  2  0  0  0
  3  5  1  0  0  0
  5 44  1  0  0  0
 44 45  1  0  0  0
 45 46  2  0  0  0
 46 47  1  0  0  0
 47 48  2  0  0  0
 48 49  1  0  0  0
 49 50  2  0  0  0
  5  6  1  0  0  0
  6  7  1  0  0  0
  7  8  2  0  0  0
  7  9  1  0  0  0
  9 10  1  0  0  0
 10 11  1  0  0  0
 11 12  2  0  0  0
 11 13  1  0  0  0
 13 14  1  0  0  0
 14 15  1  0  0  0
 15 16  1  0  0  0
 16 17  1  0  0  0
 17 18  1  0  0  0
 18 19  2  0  0  0
 18 20  1  0  0  0
 20 51  1  0  0  0
 51 52  1  0  0  0
 52 53  2  0  0  0
 53 54  1  0  0  0
 54 55  2  0  0  0
 55 56  1  0  0  0
 56 57  2  0  0  0
 20 21  1  0  0  0
 21 22  1  0  0  0
 22 23  2  0  0  0
 22 24  1  0  0  0
 24 58  1  0  0  0
 58 59  1  0  0  0
 59 60  2  0  0  0
 60 61  1  0  0  0
 61 62  2  0  0  0
 62 63  1  0  0  0
 63 64  2  0  0  0
 24 25  1  0  0  0
 25 26  1  0  0  0
 26 27  2  0  0  0
 26  1  1  0  0  0
 50 45  1  0  0  0
 17 13  1  0  0  0
 57 52  1  0  0  0
 64 59  1  0  0  0
 38 41  1  0  0  0
 38 42  1  0  0  0
 40 43  1  0  0  0
 36 37  1  0  0  0
  2 28  1  0  0  0
  6 29  1  0  0  0
 10 30  1  0  0  0
 21 31  1  0  0  0
 25 32  1  0  0  0
M  END
> <minimizedAffinity>
-6.59905

> <CNNscore>
0.2434852123

> <CNNaffinity>
6.6636695862

> <CNN_VS>
1.6225049496

> <CNNaffinity_variance>
0.9844020009

$$$$
[H]c1nc([H])c(N2C([H])([H])C([H])([H])N3C([H])([H])C([H])([H])C2([H])C([H])([H])C3([H])[H])c([H])c1[H]


 15 17  0  0  0  0  0  0  0  0999 V2000
  -89.1375   32.5023   -0.7541 C   0  0  0  0  0  0  0  0  0  0  0  0
  -89.9858   31.4311   -1.3928 C   0  0  0  0  0  0  0  0  0  0  0  0
  -89.1197   30.2896   -1.5681 N   0  0  0  0  0  0  0  0  0  0  0  0
  -88.1536   30.4800   -2.6245 C   0  0  0  0  0  0  0  0  0  0  0  0
  -87.7401   31.9402   -2.7512 C   0  0  0  0  0  0  0  0  0  0  0  0
  -87.7164   32.4845   -1.3175 C   0  0  0  0  0  0  0  0  0  0  0  0
  -86.8563   31.6107   -0.5744 N   0  0  0  0  0  0  0  0  0  0  0  0
  -87.2222   30.3523    0.0277 C   0  0  0  0  0  0  0  0  0  0  0  0
  -88.5576   29.8156   -0.3395 C   0  0  0  0  0  0  0  0  0  0  0  0
  -85.4821   31.9413   -0.3737 C   0  0  0  0  0  0  0  0  0  0  0  0
  -84.6166   31.0472    0.2594 C   0  0  0  0  0  0  0  0  0  0  0  0
  -83.3079   31.4393    0.4020 C   0  0  0  0  0  0  0  0  0  0  0  0
  -82.7973   32.6423   -0.0326 C   0  0  0  0  0  0  0  0  0  0  0  0
  -83.6591   33.4779   -0.6372 N   0  0  0  0  0  0  0  0  0  0  0  0
  -84.9617   33.1442   -0.8058 C   0  0  0  0  0  0  0  0  0  0  0  0
  1  2  1  0  0  0
  2  3  1  0  0  0
  3  4  1  0  0  0
  4  5  1  0  0  0
  5  6  1  0  0  0
  6  7  1  0  0  0
  7  8  1  0  0  0
  8  9  1  0  0  0
  7 10  1  0  0  0
 10 11  2  0  0  0
 11 12  1  0  0  0
 12 13  2  0  0  0
 13 14  1  0  0  0
 14 15  2  0  0  0
  6  1  1  0  0  0
 15 10  1  0  0  0
  9  3  1  0  0  0
M  END
> <minimizedAffinity>
-6.07798

> <CNNscore>
0.7704970241

> <CNNaffinity>
5.3965234756

> <CNN_VS>
4.1580052376

> <CNNaffinity_variance>
0.0863952562

$$$$
[H]c1nc([H])c(N2C([H])([H])C([H])([H])N3C([H])([H])C([H])([H])C2([H])C([H])([H])C3([H])[H])c([H])c1[H]


 15 17  0  0  0  0  0  0  0  0999 V2000
  -88.0281   31.0057   -2.8788 C   0  0  0  0  0  0  0  0  0  0  0  0
  -89.0858   32.0747   -2.9953 C   0  0  0  0  0  0  0  0  0  0  0  0
  -88.8383   32.9986   -1.9141 N   0  0  0  0  0  0  0  0  0  0  0  0
  -89.1981   32.4570   -0.6247 C   0  0  0  0  0  0  0  0  0  0  0  0
  -88.9943   30.9487   -0.5722 C   0  0  0  0  0  0  0  0  0  0  0  0
  -87.7415   30.6757   -1.4138 C   0  0  0  0  0  0  0  0  0  0  0  0
  -86.7078   31.5069   -0.8696 N   0  0  0  0  0  0  0  0  0  0  0  0
  -86.4736   32.8971   -1.1734 C   0  0  0  0  0  0  0  0  0  0  0  0
  -87.5314   33.5816   -1.9599 C   0  0  0  0  0  0  0  0  0  0  0  0
  -85.7819   30.9852    0.0836 C   0  0  0  0  0  0  0  0  0  0  0  0
  -85.0593   31.8385    0.9197 C   0  0  0  0  0  0  0  0  0  0  0  0
  -84.1982   31.2536    1.8159 C   0  0  0  0  0  0  0  0  0  0  0  0
  -84.0014   29.8965    1.9438 C   0  0  0  0  0  0  0  0  0  0  0  0
  -84.7134   29.1057    1.1227 N   0  0  0  0  0  0  0  0  0  0  0  0
  -85.5782   29.6269    0.2189 C   0  0  0  0  0  0  0  0  0  0  0  0
  1  2  1  0  0  0
  2  3  1  0  0  0
  3  4  1  0  0  0
  4  5  1  0  0  0
  5  6  1  0  0  0
  6  7  1  0  0  0
  7  8  1  0  0  0
  8  9  1  0  0  0
  7 10  1  0  0  0
 10 11  2  0  0  0
 11 12  1  0  0  0
 12 13  2  0  0  0
 13 14  1  0  0  0
 14 15  2  0  0  0
  6  1  1  0  0  0
 15 10  1  0  0  0
  9  3  1  0  0  0
M  END
> <minimizedAffinity>
-5.85108

> <CNNscore>
0.3754169047

> <CNNaffinity>
5.0849885941

> <CNN_VS>
1.9089906216

> <CNNaffinity_variance>
0.1006518751

$$$$
[H]c1nc([H])c(N2C([H])([H])C([H])([H])N3C([H])([H])C([H])([H])C2([H])C([H])([H])C3([H])[H])c([H])c1[H]


 15 17  0  0  0  0  0  0  0  0999 V2000
  -87.6580   28.8210   -2.2485 C   0  0  0  0  0  0  0  0  0  0  0  0
  -89.1009   28.5886   -1.8753 C   0  0  0  0  0  0  0  0  0  0  0  0
  -89.2920   29.2395   -0.6011 N   0  0  0  0  0  0  0  0  0  0  0  0
  -88.6554   28.5339    0.4863 C   0  0  0  0  0  0  0  0  0  0  0  0
  -87.3880   27.8237    0.0296 C   0  0  0  0  0  0  0  0  0  0  0  0
  -86.7551   28.7492   -1.0169 C   0  0  0  0  0  0  0  0  0  0  0  0
  -86.6110   30.0269   -0.3828 N   0  0  0  0  0  0  0  0  0  0  0  0
  -87.6257   31.0443   -0.2589 C   0  0  0  0  0  0  0  0  0  0  0  0
  -89.0046   30.6417   -0.6365 C   0  0  0  0  0  0  0  0  0  0  0  0
  -85.3733   30.4035    0.2207 C   0  0  0  0  0  0  0  0  0  0  0  0
  -84.6177   29.4762    0.9409 C   0  0  0  0  0  0  0  0  0  0  0  0
  -83.4339   29.9183    1.4795 C   0  0  0  0  0  0  0  0  0  0  0  0
  -82.9473   31.2010    1.3584 C   0  0  0  0  0  0  0  0  0  0  0  0
  -83.7010   32.0665    0.6588 N   0  0  0  0  0  0  0  0  0  0  0  0
  -84.8778   31.6863    0.1047 C   0  0  0  0  0  0  0  0  0  0  0  0
  1  2  1  0  0  0
  2  3  1  0  0  0
  3  4  1  0  0  0
  4  5  1  0  0  0
  5  6  1  0  0  0
  6  7  1  0  0  0
  7  8  1  0  0  0
  8  9  1  0  0  0
  7 10  1  0  0  0
 10 11  2  0  0  0
 11 12  1  0  0  0
 12 13  2  0  0  0
 13 14  1  0  0  0
 14 15  2  0  0  0
  6  1  1  0  0  0
 15 10  1  0  0  0
  9  3  1  0  0  0
M  END
> <minimizedAffinity>
-5.86382

> <CNNscore>
0.3101231158

> <CNNaffinity>
5.2610011101

> <CNN_VS>
1.6315580606

> <CNNaffinity_variance>
0.1495189816

$$$$
[H]c1nc([H])c(N2C([H])([H])C([H])([H])N3C([H])([H])C([H])([H])C2([H])C([H])([H])C3([H])[H])c([H])c1[H]


 15 17  0  0  0  0  0  0  0  0999 V2000
  -88.9600   29.1750    0.1053 C   0  0  0  0  0  0  0  0  0  0  0  0
  -89.7769   28.0269   -0.4331 C   0  0  0  0  0  0  0  0  0  0  0  0
  -89.0016   26.8352   -0.1827 N   0  0  0  0  0  0  0  0  0  0  0  0
  -87.8511   26.7266   -1.0488 C   0  0  0  0  0  0  0  0  0  0  0  0
  -87.2899   28.0949   -1.4118 C   0  0  0  0  0  0  0  0  0  0  0  0
  -87.4696   28.9569   -0.1560 C   0  0  0  0  0  0  0  0  0  0  0  0
  -86.8375   28.2398    0.9125 N   0  0  0  0  0  0  0  0  0  0  0  0
  -87.4174   27.1760    1.6948 C   0  0  0  0  0  0  0  0  0  0  0  0
  -88.7106   26.6342    1.2047 C   0  0  0  0  0  0  0  0  0  0  0  0
  -85.4958   28.5408    1.2962 C   0  0  0  0  0  0  0  0  0  0  0  0
  -84.8459   29.6713    0.7972 C   0  0  0  0  0  0  0  0  0  0  0  0
  -83.5600   29.8931    1.2262 C   0  0  0  0  0  0  0  0  0  0  0  0
  -82.8756   29.0841    2.1059 C   0  0  0  0  0  0  0  0  0  0  0  0
  -83.5322   28.0050    2.5655 N   0  0  0  0  0  0  0  0  0  0  0  0
  -84.8023   27.7360    2.1771 C   0  0  0  0  0  0  0  0  0  0  0  0
  1  2  1  0  0  0
  2  3  1  0  0  0
  3  4  1  0  0  0
  4  5  1  0  0  0
  5  6  1  0  0  0
  6  7  1  0  0  0
  7  8  1  0  0  0
  8  9  1  0  0  0
  7 10  1  0  0  0
 10 11  2  0  0  0
 11 12  1  0  0  0
 12 13  2  0  0  0
 13 14  1  0  0  0
 14 15  2  0  0  0
  6  1  1  0  0  0
 15 10  1  0  0  0
  9  3  1  0  0  0
M  END
> <minimizedAffinity>
-5.88013

> <CNNscore>
0.2817435265

> <CNNaffinity>
4.9895558357

> <CNN_VS>
1.4057750702

> <CNNaffinity_variance>
0.1412474364

$$$$
[H]c1nc([H])c(N2C([H])([H])C([H])([H])N3C([H])([H])C([H])([H])C2([H])C([H])([H])C3([H])[H])c([H])c1[H]


 15 17  0  0  0  0  0  0  0  0999 V2000
  -89.8061   30.7022   -1.1464 C   0  0  0  0  0  0  0  0  0  0  0  0
  -90.2339   30.2165   -2.5088 C   0  0  0  0  0  0  0  0  0  0  0  0
  -89.0852   29.5472   -3.0712 N   0  0  0  0  0  0  0  0  0  0  0  0
  -88.0444   30.4658   -3.4694 C   0  0  0  0  0  0  0  0  0  0  0  0
  -88.0084   31.6966   -2.5734 C   0  0  0  0  0  0  0  0  0  0  0  0
  -88.3575   31.1901   -1.1685 C   0  0  0  0  0  0  0  0  0  0  0  0
  -87.4316   30.1327   -0.8853 N   0  0  0  0  0  0  0  0  0  0  0  0
  -87.5510   28.7540   -1.2913 C   0  0  0  0  0  0  0  0  0  0  0  0
  -88.6247   28.4520   -2.2721 C   0  0  0  0  0  0  0  0  0  0  0  0
  -86.2407   30.3892   -0.1409 C   0  0  0  0  0  0  0  0  0  0  0  0
  -85.8653   31.6953    0.1798 C   0  0  0  0  0  0  0  0  0  0  0  0
  -84.7115   31.8527    0.9082 C   0  0  0  0  0  0  0  0  0  0  0  0
  -83.9082   30.8201    1.3389 C   0  0  0  0  0  0  0  0  0  0  0  0
  -84.3003   29.5768    1.0117 N   0  0  0  0  0  0  0  0  0  0  0  0
  -85.4299   29.3610    0.2947 C   0  0  0  0  0  0  0  0  0  0  0  0
  1  2  1  0  0  0
  2  3  1  0  0  0
  3  4  1  0  0  0
  4  5  1  0  0  0
  5  6  1  0  0  0
  6  7  1  0  0  0
  7  8  1  0  0  0
  8  9  1  0  0  0
  7 10  1  0  0  0
 10 11  2  0  0  0
 11 12  1  0  0  0
 12 13  2  0  0  0
 13 14  1  0  0  0
 14 15  2  0  0  0
  6  1  1  0  0  0
 15 10  1  0  0  0
  9  3  1  0  0  0
M  END
> <minimizedAffinity>
-5.48818

> <CNNscore>
0.2766941488

> <CNNaffinity>
4.9212508202

> <CNN_VS>
1.3616813421

> <CNNaffinity_variance>
0.0990381837

$$$$
[H]c1nc([H])c(N2C([H])([H])C([H])([H])N3C([H])([H])C([H])([H])C2([H])C([H])([H])C3([H])[H])c([H])c1[H]


 15 17  0  0  0  0  0  0  0  0999 V2000
  -88.3008   30.3713   -0.2362 C   0  0  0  0  0  0  0  0  0  0  0  0
  -89.3942   29.5838   -0.9141 C   0  0  0  0  0  0  0  0  0  0  0  0
  -89.1451   28.1989   -0.5921 N   0  0  0  0  0  0  0  0  0  0  0  0
  -88.0033   27.6602   -1.2932 C   0  0  0  0  0  0  0  0  0  0  0  0
  -86.9407   28.7234   -1.5368 C   0  0  0  0  0  0  0  0  0  0  0  0
  -86.9693   29.6224   -0.2945 C   0  0  0  0  0  0  0  0  0  0  0  0
  -86.7945   28.7516    0.8309 N   0  0  0  0  0  0  0  0  0  0  0  0
  -87.8226   27.9891    1.4955 C   0  0  0  0  0  0  0  0  0  0  0  0
  -89.1425   27.9401    0.8162 C   0  0  0  0  0  0  0  0  0  0  0  0
  -85.5021   28.5560    1.4049 C   0  0  0  0  0  0  0  0  0  0  0  0
  -84.5315   29.5575    1.3391 C   0  0  0  0  0  0  0  0  0  0  0  0
  -83.3187   29.2917    1.9266 C   0  0  0  0  0  0  0  0  0  0  0  0
  -82.9988   28.1164    2.5693 C   0  0  0  0  0  0  0  0  0  0  0  0
  -83.9572   27.1750    2.6131 N   0  0  0  0  0  0  0  0  0  0  0  0
  -85.1727   27.3817    2.0508 C   0  0  0  0  0  0  0  0  0  0  0  0
  1  2  1  0  0  0
  2  3  1  0  0  0
  3  4  1  0  0  0
  4  5  1  0  0  0
  5  6  1  0  0  0
  6  7  1  0  0  0
  7  8  1  0  0  0
  8  9  1  0  0  0
  7 10  1  0  0  0
 10 11  2  0  0  0
 11 12  1  0  0  0
 12 13  2  0  0  0
 13 14  1  0  0  0
 14 15  2  0  0  0
  6  1  1  0  0  0
 15 10  1  0  0  0
  9  3  1  0  0  0
M  END
> <minimizedAffinity>
-6.34115

> <CNNscore>
0.2751089931

> <CNNaffinity>
4.9223375320

> <CNN_VS>
1.3541792631

> <CNNaffinity_variance>
0.1500128806

$$$$
[H]c1nc([H])c(N2C([H])([H])C([H])([H])N3C([H])([H])C([H])([H])C2([H])C([H])([H])C3([H])[H])c([H])c1[H]


 15 17  0  0  0  0  0  0  0  0999 V2000
  -88.6461   25.7290    0.1296 C   0  0  0  0  0  0  0  0  0  0  0  0
  -90.0621   26.2487    0.1123 C   0  0  0  0  0  0  0  0  0  0  0  0
  -89.9784   27.6434    0.4749 N   0  0  0  0  0  0  0  0  0  0  0  0
  -89.6775   27.8385    1.8738 C   0  0  0  0  0  0  0  0  0  0  0  0
  -88.7990   26.7213    2.4207 C   0  0  0  0  0  0  0  0  0  0  0  0
  -87.8481   26.3510    1.2756 C   0  0  0  0  0  0  0  0  0  0  0  0
  -87.2062   27.5709    0.8814 N   0  0  0  0  0  0  0  0  0  0  0  0
  -87.7302   28.5645   -0.0231 C   0  0  0  0  0  0  0  0  0  0  0  0
  -89.1548   28.4074   -0.4128 C   0  0  0  0  0  0  0  0  0  0  0  0
  -85.9216   27.9166    1.3994 C   0  0  0  0  0  0  0  0  0  0  0  0
  -85.4162   29.2100    1.2534 C   0  0  0  0  0  0  0  0  0  0  0  0
  -84.1774   29.4611    1.7911 C   0  0  0  0  0  0  0  0  0  0  0  0
  -83.4083   28.5330    2.4575 C   0  0  0  0  0  0  0  0  0  0  0  0
  -83.9264   27.2987    2.5789 N   0  0  0  0  0  0  0  0  0  0  0  0
  -85.1441   26.9934    2.0685 C   0  0  0  0  0  0  0  0  0  0  0  0
  1  2  1  0  0  0
  2  3  1  0  0  0
  3  4  1  0  0  0
  4  5  1  0  0  0
  5  6  1  0  0  0
  6  7  1  0  0  0
  7  8  1  0  0  0
  8  9  1  0  0  0
  7 10  1  0  0  0
 10 11  2  0  0  0
 11 12  1  0  0  0
 12 13  2  0  0  0
 13 14  1  0  0  0
 14 15  2  0  0  0
  6  1  1  0  0  0
 15 10  1  0  0  0
  9  3  1  0  0  0
M  END
> <minimizedAffinity>
-5.62292

> <CNNscore>
0.2748877108

> <CNNaffinity>
4.8958206177

> <CNN_VS>
1.3458008766

> <CNNaffinity_variance>
0.1799074709

$$$$
[H]c1nc([H])c(N2C([H])([H])C([H])([H])N3C([H])([H])C([H])([H])C2([H])C([H])([H])C3([H])[H])c([H])c1[H]


 15 17  0  0  0  0  0  0  0  0999 V2000
  -87.3523   26.1184    0.1616 C   0  0  0  0  0  0  0  0  0  0  0  0
  -88.7220   26.0771   -0.4687 C   0  0  0  0  0  0  0  0  0  0  0  0
  -89.0051   27.4272   -0.8940 N   0  0  0  0  0  0  0  0  0  0  0  0
  -89.2859   28.3126    0.2117 C   0  0  0  0  0  0  0  0  0  0  0  0
  -88.5096   27.9160    1.4603 C   0  0  0  0  0  0  0  0  0  0  0  0
  -87.1529   27.4100    0.9548 C   0  0  0  0  0  0  0  0  0  0  0  0
  -86.6144   28.4607    0.1414 N   0  0  0  0  0  0  0  0  0  0  0  0
  -86.9130   28.7117   -1.2470 C   0  0  0  0  0  0  0  0  0  0  0  0
  -88.0427   27.9382   -1.8229 C   0  0  0  0  0  0  0  0  0  0  0  0
  -85.6910   29.4024    0.6878 C   0  0  0  0  0  0  0  0  0  0  0  0
  -85.8653   30.7732    0.4881 C   0  0  0  0  0  0  0  0  0  0  0  0
  -84.9374   31.6106    1.0577 C   0  0  0  0  0  0  0  0  0  0  0  0
  -83.8579   31.1937    1.8047 C   0  0  0  0  0  0  0  0  0  0  0  0
  -83.7217   29.8675    1.9760 N   0  0  0  0  0  0  0  0  0  0  0  0
  -84.6067   28.9939    1.4375 C   0  0  0  0  0  0  0  0  0  0  0  0
  1  2  1  0  0  0
  2  3  1  0  0  0
  3  4  1  0  0  0
  4  5  1  0  0  0
  5  6  1  0  0  0
  6  7  1  0  0  0
  7  8  1  0  0  0
  8  9  1  0  0  0
  7 10  1  0  0  0
 10 11  2  0  0  0
 11 12  1  0  0  0
 12 13  2  0  0  0
 13 14  1  0  0  0
 14 15  2  0  0  0
  6  1  1  0  0  0
 15 10  1  0  0  0
  9  3  1  0  0  0
M  END
> <minimizedAffinity>
-5.52074

> <CNNscore>
0.2413893640

> <CNNaffinity>
4.9336957932

> <CNN_VS>
1.1909416914

> <CNNaffinity_variance>
0.1266978532

$$$$
[H]c1nc([H])c(N2C([H])([H])C([H])([H])N3C([H])([H])C([H])([H])C2([H])C([H])([H])C3([H])[H])c([H])c1[H]


 15 17  0  0  0  0  0  0  0  0999 V2000
  -88.0383   32.0199   -4.4013 C   0  0  0  0  0  0  0  0  0  0  0  0
  -88.7310   33.2797   -4.8577 C   0  0  0  0  0  0  0  0  0  0  0  0
  -88.4712   34.2681   -3.8383 N   0  0  0  0  0  0  0  0  0  0  0  0
  -89.2124   34.0239   -2.6232 C   0  0  0  0  0  0  0  0  0  0  0  0
  -89.4282   32.5351   -2.3865 C   0  0  0  0  0  0  0  0  0  0  0  0
  -88.1492   31.8519   -2.8859 C   0  0  0  0  0  0  0  0  0  0  0  0
  -87.0641   32.4856   -2.1957 N   0  0  0  0  0  0  0  0  0  0  0  0
  -86.4156   33.7202   -2.5634 C   0  0  0  0  0  0  0  0  0  0  0  0
  -87.0752   34.5117   -3.6333 C   0  0  0  0  0  0  0  0  0  0  0  0
  -86.5195   31.9063   -1.0099 C   0  0  0  0  0  0  0  0  0  0  0  0
  -86.9072   30.6312   -0.5940 C   0  0  0  0  0  0  0  0  0  0  0  0
  -86.3264   30.1441    0.5515 C   0  0  0  0  0  0  0  0  0  0  0  0
  -85.3972   30.8216    1.3095 C   0  0  0  0  0  0  0  0  0  0  0  0
  -85.0480   32.0462    0.8792 N   0  0  0  0  0  0  0  0  0  0  0  0
  -85.5881   32.5777   -0.2443 C   0  0  0  0  0  0  0  0  0  0  0  0
  1  2  1  0  0  0
  2  3  1  0  0  0
  3  4  1  0  0  0
  4  5  1  0  0  0
  5  6  1  0  0  0
  6  7  1  0  0  0
  7  8  1  0  0  0
  8  9  1  0  0  0
  7 10  1  0  0  0
 10 11  2  0  0  0
 11 12  1  0  0  0
 12 13  2  0  0  0
 13 14  1  0  0  0
 14 15  2  0  0  0
  6  1  1  0  0  0
 15 10  1  0  0  0
  9  3  1  0  0  0
M  END
> <minimizedAffinity>
-5.35174

> <CNNscore>
0.2381192148

> <CNNaffinity>
4.5574922562

> <CNN_VS>
1.0852265358

> <CNNaffinity_variance>
0.0732954368

$$$$
[H]/C(C(=O)N1C([H])([H])C([H])([H])C([H])([H])[C@@]([H])(n2nc(-c3c([H])c([H])c(Oc4c([H])c([H])c([H])c([H])c4[H])c([H])c3[H])c3c(N([H])[H])nc([H])nc32)C1([H])[H])=C(/[H])C([H])([H])N(C([H])([H])[H])C([H])([H])[H]


 39 43  0  0  0  0  0  0  0  0999 V2000
  -87.3048   29.7746    0.3308 N   0  0  0  0  0  0  0  0  0  0  0  0
  -87.9937   30.4003   -0.5915 N   0  0  0  0  0  0  0  0  0  0  0  0
  -87.3424   31.5113   -1.0405 C   0  0  0  0  0  0  0  0  0  0  0  0
  -86.1669   31.5942   -0.3623 C   0  0  0  0  0  0  0  0  0  0  0  0
  -85.0881   32.4645   -0.3806 C   0  0  0  0  0  0  0  0  0  0  0  0
  -85.0316   33.5731   -1.2702 N   0  0  0  0  0  0  0  0  0  0  0  0
  -84.0631   32.1980    0.4594 N   0  0  0  0  0  0  0  0  0  0  0  0
  -84.0352   31.1515    1.2950 C   0  0  0  0  0  0  0  0  0  0  0  0
  -85.0923   30.3289    1.2854 N   0  0  0  0  0  0  0  0  0  0  0  0
  -86.1628   30.4882    0.5008 C   0  0  0  0  0  0  0  0  0  0  0  0
  -85.1894   34.5205   -0.8736 H   0  0  0  0  0  0  0  0  0  0  0  0
  -84.8429   33.5084   -2.2932 H   0  0  0  0  0  0  0  0  0  0  0  0
  -90.2705   25.9049    1.2279 C   0  0  0  0  0  0  0  0  0  0  0  0
  -90.4292   24.9440    2.0375 O   0  0  0  0  0  0  0  0  0  0  0  0
  -89.1438   26.7480    1.3417 N   0  0  0  0  0  0  0  0  0  0  0  0
  -88.1756   26.4768    2.4037 C   0  0  0  0  0  0  0  0  0  0  0  0
  -86.7681   26.4076    1.8309 C   0  0  0  0  0  0  0  0  0  0  0  0
  -86.4803   27.5731    0.9406 C   0  0  0  0  0  0  0  0  0  0  0  0
  -87.6345   28.5550    1.0487 C   0  0  0  0  0  0  0  0  0  0  0  0
  -88.8603   27.8798    0.4830 C   0  0  0  0  0  0  0  0  0  0  0  0
  -91.1797   25.4729   -0.9726 C   0  0  0  0  0  0  0  0  0  0  0  0
  -91.2872   26.0900    0.1979 C   0  0  0  0  0  0  0  0  0  0  0  0
  -92.1452   25.5905   -2.0771 C   0  0  0  0  0  0  0  0  0  0  0  0
  -91.7737   23.2151   -2.2940 C   0  0  0  0  0  0  0  0  0  0  0  0
  -92.0412   24.4486   -2.9984 N   0  0  0  0  0  0  0  0  0  0  0  0
  -93.2827   24.3344   -3.7589 C   0  0  0  0  0  0  0  0  0  0  0  0
  -87.8201   32.3980   -2.0817 C   0  0  0  0  0  0  0  0  0  0  0  0
  -88.7710   33.3754   -1.7809 C   0  0  0  0  0  0  0  0  0  0  0  0
  -89.1932   34.2664   -2.7433 C   0  0  0  0  0  0  0  0  0  0  0  0
  -88.6773   34.2045   -4.0307 C   0  0  0  0  0  0  0  0  0  0  0  0
  -87.7469   33.2498   -4.3258 C   0  0  0  0  0  0  0  0  0  0  0  0
  -87.3343   32.3671   -3.3545 C   0  0  0  0  0  0  0  0  0  0  0  0
  -89.1322   35.1283   -4.9858 O   0  0  0  0  0  0  0  0  0  0  0  0
  -89.2392   36.4621   -4.6042 C   0  0  0  0  0  0  0  0  0  0  0  0
  -88.1541   37.1636   -4.1207 C   0  0  0  0  0  0  0  0  0  0  0  0
  -88.2468   38.4847   -3.7394 C   0  0  0  0  0  0  0  0  0  0  0  0
  -89.4412   39.1691   -3.8264 C   0  0  0  0  0  0  0  0  0  0  0  0
  -90.5379   38.4789   -4.3096 C   0  0  0  0  0  0  0  0  0  0  0  0
  -90.4439   37.1568   -4.6906 C   0  0  0  0  0  0  0  0  0  0  0  0
 24 25  1  0  0  0
 25 26  1  0  0  0
 25 23  1  0  0  0
 23 21  1  0  0  0
 21 22  2  0  0  0
 22 13  1  0  0  0
 13 14  2  0  0  0
 13 15  1  0  0  0
 15 16  1  0  0  0
 16 17  1  0  0  0
 17 18  1  0  0  0
 18 19  1  0  0  0
 19 20  1  0  0  0
 19  1  1  0  0  0
  1  2  1  0  0  0
  2  3  2  0  0  0
  3 27  1  0  0  0
 27 28  2  0  0  0
 28 29  1  0  0  0
 29 30  2  0  0  0
 30 33  1  0  0  0
 33 34  1  0  0  0
 34 35  2  0  0  0
 35 36  1  0  0  0
 36 37  2  0  0  0
 37 38  1  0  0  0
 38 39  2  0  0  0
 30 31  1  0  0  0
 31 32  2  0  0  0
  3  4  1  0  0  0
  4  5  2  0  0  0
  5  6  1  0  0  0
  5  7  1  0  0  0
  7  8  2  0  0  0
  8  9  1  0  0  0
  9 10  2  0  0  0
 20 15  1  0  0  0
 10  1  1  0  0  0
 32 27  1  0  0  0
 10  4  1  0  0  0
 39 34  1  0  0  0
  6 11  1  0  0  0
  6 12  1  0  0  0
M  END
> <minimizedAffinity>
-8.43445

> <CNNscore>
0.3322809339

> <CNNaffinity>
7.1604523659

> <CNN_VS>
2.3792817593

> <CNNaffinity_variance>
0.3132763207

$$$$
[H]/C(C(=O)N1C([H])([H])C([H])([H])C([H])([H])[C@@]([H])(n2nc(-c3c([H])c([H])c(Oc4c([H])c([H])c([H])c([H])c4[H])c([H])c3[H])c3c(N([H])[H])nc([H])nc32)C1([H])[H])=C(/[H])C([H])([H])N(C([H])([H])[H])C([H])([H])[H]


 39 43  0  0  0  0  0  0  0  0999 V2000
  -87.3764   29.8841    0.1756 N   0  0  0  0  0  0  0  0  0  0  0  0
  -88.0793   30.4322   -0.7846 N   0  0  0  0  0  0  0  0  0  0  0  0
  -87.4821   31.5597   -1.2663 C   0  0  0  0  0  0  0  0  0  0  0  0
  -86.3280   31.7366   -0.5695 C   0  0  0  0  0  0  0  0  0  0  0  0
  -85.2997   32.6657   -0.6026 C   0  0  0  0  0  0  0  0  0  0  0  0
  -85.2865   33.7393   -1.5357 N   0  0  0  0  0  0  0  0  0  0  0  0
  -84.2798   32.4918    0.2673 N   0  0  0  0  0  0  0  0  0  0  0  0
  -84.2112   31.4828    1.1456 C   0  0  0  0  0  0  0  0  0  0  0  0
  -85.2199   30.6015    1.1493 N   0  0  0  0  0  0  0  0  0  0  0  0
  -86.2803   30.6680    0.3382 C   0  0  0  0  0  0  0  0  0  0  0  0
  -85.5059   34.6912   -1.1815 H   0  0  0  0  0  0  0  0  0  0  0  0
  -85.0724   33.6447   -2.5513 H   0  0  0  0  0  0  0  0  0  0  0  0
  -90.2966   26.0704    1.4017 C   0  0  0  0  0  0  0  0  0  0  0  0
  -90.3898   25.1206    2.2343 O   0  0  0  0  0  0  0  0  0  0  0  0
  -89.1521   26.8971    1.3958 N   0  0  0  0  0  0  0  0  0  0  0  0
  -88.0894   26.6220    2.3621 C   0  0  0  0  0  0  0  0  0  0  0  0
  -86.7453   26.5250    1.6565 C   0  0  0  0  0  0  0  0  0  0  0  0
  -86.5285   27.6766    0.7287 C   0  0  0  0  0  0  0  0  0  0  0  0
  -87.6524   28.6773    0.9365 C   0  0  0  0  0  0  0  0  0  0  0  0
  -88.9370   28.0154    0.5003 C   0  0  0  0  0  0  0  0  0  0  0  0
  -91.5132   25.5021   -0.6113 C   0  0  0  0  0  0  0  0  0  0  0  0
  -91.4057   26.2606    0.4730 C   0  0  0  0  0  0  0  0  0  0  0  0
  -92.5886   25.6106   -1.6102 C   0  0  0  0  0  0  0  0  0  0  0  0
  -93.1236   24.4648   -3.6666 C   0  0  0  0  0  0  0  0  0  0  0  0
  -92.1173   25.2102   -2.9448 N   0  0  0  0  0  0  0  0  0  0  0  0
  -91.7405   26.4045   -3.6961 C   0  0  0  0  0  0  0  0  0  0  0  0
  -87.9862   32.3754   -2.3520 C   0  0  0  0  0  0  0  0  0  0  0  0
  -87.7405   32.0019   -3.6750 C   0  0  0  0  0  0  0  0  0  0  0  0
  -88.2621   32.7315   -4.7209 C   0  0  0  0  0  0  0  0  0  0  0  0
  -89.0419   33.8530   -4.4731 C   0  0  0  0  0  0  0  0  0  0  0  0
  -89.2835   34.2189   -3.1801 C   0  0  0  0  0  0  0  0  0  0  0  0
  -88.7567   33.4804   -2.1458 C   0  0  0  0  0  0  0  0  0  0  0  0
  -89.5556   34.5730   -5.5642 O   0  0  0  0  0  0  0  0  0  0  0  0
  -88.7855   35.6094   -6.0827 C   0  0  0  0  0  0  0  0  0  0  0  0
  -87.5598   35.9381   -5.5416 C   0  0  0  0  0  0  0  0  0  0  0  0
  -86.7875   36.9622   -6.0457 C   0  0  0  0  0  0  0  0  0  0  0  0
  -87.2116   37.7096   -7.1246 C   0  0  0  0  0  0  0  0  0  0  0  0
  -88.4386   37.3915   -7.6779 C   0  0  0  0  0  0  0  0  0  0  0  0
  -89.2106   36.3667   -7.1723 C   0  0  0  0  0  0  0  0  0  0  0  0
 24 25  1  0  0  0
 25 26  1  0  0  0
 25 23  1  0  0  0
 23 21  1  0  0  0
 21 22  2  0  0  0
 22 13  1  0  0  0
 13 14  2  0  0  0
 13 15  1  0  0  0
 15 16  1  0  0  0
 16 17  1  0  0  0
 17 18  1  0  0  0
 18 19  1  0  0  0
 19 20  1  0  0  0
 19  1  1  0  0  0
  1  2  1  0  0  0
  2  3  2  0  0  0
  3 27  1  0  0  0
 27 28  2  0  0  0
 28 29  1  0  0  0
 29 30  2  0  0  0
 30 33  1  0  0  0
 33 34  1  0  0  0
 34 35  2  0  0  0
 35 36  1  0  0  0
 36 37  2  0  0  0
 37 38  1  0  0  0
 38 39  2  0  0  0
 30 31  1  0  0  0
 31 32  2  0  0  0
  3  4  1  0  0  0
  4  5  2  0  0  0
  5  6  1  0  0  0
  5  7  1  0  0  0
  7  8  2  0  0  0
  8  9  1  0  0  0
  9 10  2  0  0  0
 20 15  1  0  0  0
 10  1  1  0  0  0
 32 27  1  0  0  0
 10  4  1  0  0  0
 39 34  1  0  0  0
  6 11  1  0  0  0
  6 12  1  0  0  0
M  END
> <minimizedAffinity>
-8.78048

> <CNNscore>
0.2635559440

> <CNNaffinity>
7.1208066940

> <CNN_VS>
1.8767309189

> <CNNaffinity_variance>
0.1972411126

$$$$
[H]/C(C(=O)N1C([H])([H])C([H])([H])C([H])([H])[C@@]([H])(n2nc(-c3c([H])c([H])c(Oc4c([H])c([H])c([H])c([H])c4[H])c([H])c3[H])c3c(N([H])[H])nc([H])nc32)C1([H])[H])=C(/[H])C([H])([H])N(C([H])([H])[H])C([H])([H])[H]


 39 43  0  0  0  0  0  0  0  0999 V2000
  -87.2704   29.9376    0.2099 N   0  0  0  0  0  0  0  0  0  0  0  0
  -87.9756   30.5116   -0.7334 N   0  0  0  0  0  0  0  0  0  0  0  0
  -87.3629   31.6333   -1.2092 C   0  0  0  0  0  0  0  0  0  0  0  0
  -86.1961   31.7786   -0.5266 C   0  0  0  0  0  0  0  0  0  0  0  0
  -85.1502   32.6878   -0.5625 C   0  0  0  0  0  0  0  0  0  0  0  0
  -85.1287   33.7728   -1.4822 N   0  0  0  0  0  0  0  0  0  0  0  0
  -84.1219   32.4828    0.2906 N   0  0  0  0  0  0  0  0  0  0  0  0
  -84.0610   31.4615    1.1551 C   0  0  0  0  0  0  0  0  0  0  0  0
  -85.0868   30.6001    1.1620 N   0  0  0  0  0  0  0  0  0  0  0  0
  -86.1569   30.6977    0.3669 C   0  0  0  0  0  0  0  0  0  0  0  0
  -85.3243   34.7242   -1.1129 H   0  0  0  0  0  0  0  0  0  0  0  0
  -84.9306   33.6870   -2.5018 H   0  0  0  0  0  0  0  0  0  0  0  0
  -90.2333   26.1463    1.4024 C   0  0  0  0  0  0  0  0  0  0  0  0
  -90.3367   25.1896    2.2258 O   0  0  0  0  0  0  0  0  0  0  0  0
  -89.0793   26.9596    1.4032 N   0  0  0  0  0  0  0  0  0  0  0  0
  -88.0189   26.6629    2.3655 C   0  0  0  0  0  0  0  0  0  0  0  0
  -86.6767   26.5572    1.6575 C   0  0  0  0  0  0  0  0  0  0  0  0
  -86.4475   27.7151    0.7406 C   0  0  0  0  0  0  0  0  0  0  0  0
  -87.5596   28.7267    0.9594 C   0  0  0  0  0  0  0  0  0  0  0  0
  -88.8522   28.0840    0.5183 C   0  0  0  0  0  0  0  0  0  0  0  0
  -91.3508   25.7619   -0.7092 C   0  0  0  0  0  0  0  0  0  0  0  0
  -91.3411   26.3583    0.4768 C   0  0  0  0  0  0  0  0  0  0  0  0
  -92.4153   25.9074   -1.7150 C   0  0  0  0  0  0  0  0  0  0  0  0
  -92.3867   27.6238   -3.4124 C   0  0  0  0  0  0  0  0  0  0  0  0
  -91.8676   26.3358   -3.0111 N   0  0  0  0  0  0  0  0  0  0  0  0
  -90.4109   26.3868   -2.9203 C   0  0  0  0  0  0  0  0  0  0  0  0
  -87.8658   32.4726   -2.2774 C   0  0  0  0  0  0  0  0  0  0  0  0
  -87.6132   32.1315   -3.6078 C   0  0  0  0  0  0  0  0  0  0  0  0
  -88.1333   32.8838   -4.6383 C   0  0  0  0  0  0  0  0  0  0  0  0
  -88.9187   33.9960   -4.3673 C   0  0  0  0  0  0  0  0  0  0  0  0
  -89.1672   34.3301   -3.0669 C   0  0  0  0  0  0  0  0  0  0  0  0
  -88.6417   33.5693   -2.0482 C   0  0  0  0  0  0  0  0  0  0  0  0
  -89.4309   34.7396   -5.4431 O   0  0  0  0  0  0  0  0  0  0  0  0
  -90.5472   34.2415   -6.1078 C   0  0  0  0  0  0  0  0  0  0  0  0
  -90.7780   34.5199   -7.4392 C   0  0  0  0  0  0  0  0  0  0  0  0
  -91.8796   34.0328   -8.1090 C   0  0  0  0  0  0  0  0  0  0  0  0
  -92.8076   33.2373   -7.4700 C   0  0  0  0  0  0  0  0  0  0  0  0
  -92.5894   32.9494   -6.1349 C   0  0  0  0  0  0  0  0  0  0  0  0
  -91.4868   33.4377   -5.4657 C   0  0  0  0  0  0  0  0  0  0  0  0
 24 25  1  0  0  0
 25 26  1  0  0  0
 25 23  1  0  0  0
 23 21  1  0  0  0
 21 22  2  0  0  0
 22 13  1  0  0  0
 13 14  2  0  0  0
 13 15  1  0  0  0
 15 16  1  0  0  0
 16 17  1  0  0  0
 17 18  1  0  0  0
 18 19  1  0  0  0
 19 20  1  0  0  0
 19  1  1  0  0  0
  1  2  1  0  0  0
  2  3  2  0  0  0
  3 27  1  0  0  0
 27 28  2  0  0  0
 28 29  1  0  0  0
 29 30  2  0  0  0
 30 33  1  0  0  0
 33 34  1  0  0  0
 34 35  2  0  0  0
 35 36  1  0  0  0
 36 37  2  0  0  0
 37 38  1  0  0  0
 38 39  2  0  0  0
 30 31  1  0  0  0
 31 32  2  0  0  0
  3  4  1  0  0  0
  4  5  2  0  0  0
  5  6  1  0  0  0
  5  7  1  0  0  0
  7  8  2  0  0  0
  8  9  1  0  0  0
  9 10  2  0  0  0
 20 15  1  0  0  0
 10  1  1  0  0  0
 32 27  1  0  0  0
 10  4  1  0  0  0
 39 34  1  0  0  0
  6 11  1  0  0  0
  6 12  1  0  0  0
M  END
> <minimizedAffinity>
-8.54897

> <CNNscore>
0.2193718404

> <CNNaffinity>
7.0410356522

> <CNN_VS>
1.5446048975

> <CNNaffinity_variance>
0.2659187317

$$$$
[H]/C(C(=O)N1C([H])([H])C([H])([H])C([H])([H])[C@@]([H])(n2nc(-c3c([H])c([H])c(Oc4c([H])c([H])c([H])c([H])c4[H])c([H])c3[H])c3c(N([H])[H])nc([H])nc32)C1([H])[H])=C(/[H])C([H])([H])N(C([H])([H])[H])C([H])([H])[H]


 39 43  0  0  0  0  0  0  0  0999 V2000
  -87.9129   29.6096   -0.2770 N   0  0  0  0  0  0  0  0  0  0  0  0
  -88.4515   30.3204   -1.2368 N   0  0  0  0  0  0  0  0  0  0  0  0
  -87.7714   31.4840   -1.4451 C   0  0  0  0  0  0  0  0  0  0  0  0
  -86.7362   31.5119   -0.5641 C   0  0  0  0  0  0  0  0  0  0  0  0
  -85.7020   32.3966   -0.2999 C   0  0  0  0  0  0  0  0  0  0  0  0
  -85.5300   33.5959   -1.0452 N   0  0  0  0  0  0  0  0  0  0  0  0
  -84.8309   32.0571    0.6763 N   0  0  0  0  0  0  0  0  0  0  0  0
  -84.9127   30.9267    1.3903 C   0  0  0  0  0  0  0  0  0  0  0  0
  -85.9223   30.0930    1.1077 N   0  0  0  0  0  0  0  0  0  0  0  0
  -86.8440   30.3190    0.1663 C   0  0  0  0  0  0  0  0  0  0  0  0
  -85.7879   34.4920   -0.5866 H   0  0  0  0  0  0  0  0  0  0  0  0
  -85.1632   33.6456   -2.0196 H   0  0  0  0  0  0  0  0  0  0  0  0
  -90.8266   25.5996   -0.3532 C   0  0  0  0  0  0  0  0  0  0  0  0
  -91.0942   24.5557    0.3120 O   0  0  0  0  0  0  0  0  0  0  0  0
  -89.7788   26.4519    0.0578 N   0  0  0  0  0  0  0  0  0  0  0  0
  -89.0179   26.0932    1.2541 C   0  0  0  0  0  0  0  0  0  0  0  0
  -87.5259   26.1170    0.9588 C   0  0  0  0  0  0  0  0  0  0  0  0
  -87.1251   27.3759    0.2598 C   0  0  0  0  0  0  0  0  0  0  0  0
  -88.3199   28.3140    0.2402 C   0  0  0  0  0  0  0  0  0  0  0  0
  -89.3867   27.6739   -0.6145 C   0  0  0  0  0  0  0  0  0  0  0  0
  -92.3631   26.9771   -1.6169 C   0  0  0  0  0  0  0  0  0  0  0  0
  -91.6374   25.8684   -1.5362 C   0  0  0  0  0  0  0  0  0  0  0  0
  -93.2136   27.3440   -2.7606 C   0  0  0  0  0  0  0  0  0  0  0  0
  -93.4382   29.6165   -1.9777 C   0  0  0  0  0  0  0  0  0  0  0  0
  -93.0739   28.7703   -3.0915 N   0  0  0  0  0  0  0  0  0  0  0  0
  -91.6949   29.0342   -3.4936 C   0  0  0  0  0  0  0  0  0  0  0  0
  -88.0906   32.4706   -2.4566 C   0  0  0  0  0  0  0  0  0  0  0  0
  -88.8737   33.5783   -2.1254 C   0  0  0  0  0  0  0  0  0  0  0  0
  -89.1382   34.5575   -3.0578 C   0  0  0  0  0  0  0  0  0  0  0  0
  -88.6280   34.4561   -4.3450 C   0  0  0  0  0  0  0  0  0  0  0  0
  -87.8615   33.3739   -4.6699 C   0  0  0  0  0  0  0  0  0  0  0  0
  -87.6052   32.4042   -3.7283 C   0  0  0  0  0  0  0  0  0  0  0  0
  -88.9195   35.4727   -5.2692 O   0  0  0  0  0  0  0  0  0  0  0  0
  -89.7077   36.5367   -4.8417 C   0  0  0  0  0  0  0  0  0  0  0  0
  -91.0855   36.4695   -4.8663 C   0  0  0  0  0  0  0  0  0  0  0  0
  -91.8774   37.5162   -4.4458 C   0  0  0  0  0  0  0  0  0  0  0  0
  -91.3201   38.6876   -3.9771 C   0  0  0  0  0  0  0  0  0  0  0  0
  -89.9398   38.7695   -3.9463 C   0  0  0  0  0  0  0  0  0  0  0  0
  -89.1485   37.7216   -4.3677 C   0  0  0  0  0  0  0  0  0  0  0  0
 24 25  1  0  0  0
 25 26  1  0  0  0
 25 23  1  0  0  0
 23 21  1  0  0  0
 21 22  2  0  0  0
 22 13  1  0  0  0
 13 14  2  0  0  0
 13 15  1  0  0  0
 15 16  1  0  0  0
 16 17  1  0  0  0
 17 18  1  0  0  0
 18 19  1  0  0  0
 19 20  1  0  0  0
 19  1  1  0  0  0
  1  2  1  0  0  0
  2  3  2  0  0  0
  3 27  1  0  0  0
 27 28  2  0  0  0
 28 29  1  0  0  0
 29 30  2  0  0  0
 30 33  1  0  0  0
 33 34  1  0  0  0
 34 35  2  0  0  0
 35 36  1  0  0  0
 36 37  2  0  0  0
 37 38  1  0  0  0
 38 39  2  0  0  0
 30 31  1  0  0  0
 31 32  2  0  0  0
  3  4  1  0  0  0
  4  5  2  0  0  0
  5  6  1  0  0  0
  5  7  1  0  0  0
  7  8  2  0  0  0
  8  9  1  0  0  0
  9 10  2  0  0  0
 20 15  1  0  0  0
 10  1  1  0  0  0
 32 27  1  0  0  0
 10  4  1  0  0  0
 39 34  1  0  0  0
  6 11  1  0  0  0
  6 12  1  0  0  0
M  END
> <minimizedAffinity>
-7.83366

> <CNNscore>
0.0928521529

> <CNNaffinity>
6.6828985214

> <CNN_VS>
0.6205214858

> <CNNaffinity_variance>
0.3182572722

$$$$
[H]/C(C(=O)N1C([H])([H])C([H])([H])C([H])([H])[C@@]([H])(n2nc(-c3c([H])c([H])c(Oc4c([H])c([H])c([H])c([H])c4[H])c([H])c3[H])c3c(N([H])[H])nc([H])nc32)C1([H])[H])=C(/[H])C([H])([H])N(C([H])([H])[H])C([H])([H])[H]


 39 43  0  0  0  0  0  0  0  0999 V2000
  -86.9711   30.4774   -0.6322 N   0  0  0  0  0  0  0  0  0  0  0  0
  -87.8381   29.6079   -0.1752 N   0  0  0  0  0  0  0  0  0  0  0  0
  -87.2871   28.7968    0.7727 C   0  0  0  0  0  0  0  0  0  0  0  0
  -85.9909   29.1766    0.9276 C   0  0  0  0  0  0  0  0  0  0  0  0
  -84.9413   28.7624    1.7331 C   0  0  0  0  0  0  0  0  0  0  0  0
  -85.0929   27.7186    2.6875 N   0  0  0  0  0  0  0  0  0  0  0  0
  -83.7662   29.4180    1.6049 N   0  0  0  0  0  0  0  0  0  0  0  0
  -83.5663   30.4330    0.7538 C   0  0  0  0  0  0  0  0  0  0  0  0
  -84.6019   30.8096   -0.0076 N   0  0  0  0  0  0  0  0  0  0  0  0
  -85.8102   30.2392    0.0296 C   0  0  0  0  0  0  0  0  0  0  0  0
  -84.6709   26.7952    2.4661 H   0  0  0  0  0  0  0  0  0  0  0  0
  -85.5962   27.8089    3.5958 H   0  0  0  0  0  0  0  0  0  0  0  0
  -89.3791   32.4344   -4.4983 C   0  0  0  0  0  0  0  0  0  0  0  0
  -89.2987   33.3732   -5.3446 O   0  0  0  0  0  0  0  0  0  0  0  0
  -88.4283   32.3341   -3.4595 N   0  0  0  0  0  0  0  0  0  0  0  0
  -87.3670   33.3377   -3.3876 C   0  0  0  0  0  0  0  0  0  0  0  0
  -87.2944   33.9313   -1.9889 C   0  0  0  0  0  0  0  0  0  0  0  0
  -87.2840   32.8659   -0.9407 C   0  0  0  0  0  0  0  0  0  0  0  0
  -87.1581   31.5176   -1.6294 C   0  0  0  0  0  0  0  0  0  0  0  0
  -88.4120   31.3031   -2.4418 C   0  0  0  0  0  0  0  0  0  0  0  0
  -91.7288   31.8626   -4.4128 C   0  0  0  0  0  0  0  0  0  0  0  0
  -90.4778   31.4863   -4.6494 C   0  0  0  0  0  0  0  0  0  0  0  0
  -92.9069   30.9889   -4.5342 C   0  0  0  0  0  0  0  0  0  0  0  0
  -93.9187   31.9662   -6.4961 C   0  0  0  0  0  0  0  0  0  0  0  0
  -94.0597   31.7229   -5.0783 N   0  0  0  0  0  0  0  0  0  0  0  0
  -95.2774   30.9600   -4.8176 C   0  0  0  0  0  0  0  0  0  0  0  0
  -87.9903   27.7576    1.4966 C   0  0  0  0  0  0  0  0  0  0  0  0
  -88.6266   28.0586    2.7028 C   0  0  0  0  0  0  0  0  0  0  0  0
  -89.3504   27.0985    3.3755 C   0  0  0  0  0  0  0  0  0  0  0  0
  -89.4575   25.8133    2.8618 C   0  0  0  0  0  0  0  0  0  0  0  0
  -88.8366   25.5179    1.6822 C   0  0  0  0  0  0  0  0  0  0  0  0
  -88.1177   26.4869    1.0211 C   0  0  0  0  0  0  0  0  0  0  0  0
  -90.2025   24.8604    3.5756 O   0  0  0  0  0  0  0  0  0  0  0  0
  -89.5162   23.8015    4.1622 C   0  0  0  0  0  0  0  0  0  0  0  0
  -89.7536   22.4941    3.7915 C   0  0  0  0  0  0  0  0  0  0  0  0
  -89.0808   21.4366    4.3646 C   0  0  0  0  0  0  0  0  0  0  0  0
  -88.1310   21.6429    5.3432 C   0  0  0  0  0  0  0  0  0  0  0  0
  -87.8819   22.9486    5.7251 C   0  0  0  0  0  0  0  0  0  0  0  0
  -88.5561   24.0059    5.1510 C   0  0  0  0  0  0  0  0  0  0  0  0
 24 25  1  0  0  0
 25 26  1  0  0  0
 25 23  1  0  0  0
 23 21  1  0  0  0
 21 22  2  0  0  0
 22 13  1  0  0  0
 13 14  2  0  0  0
 13 15  1  0  0  0
 15 16  1  0  0  0
 16 17  1  0  0  0
 17 18  1  0  0  0
 18 19  1  0  0  0
 19 20  1  0  0  0
 19  1  1  0  0  0
  1  2  1  0  0  0
  2  3  2  0  0  0
  3 27  1  0  0  0
 27 28  2  0  0  0
 28 29  1  0  0  0
 29 30  2  0  0  0
 30 33  1  0  0  0
 33 34  1  0  0  0
 34 35  2  0  0  0
 35 36  1  0  0  0
 36 37  2  0  0  0
 37 38  1  0  0  0
 38 39  2  0  0  0
 30 31  1  0  0  0
 31 32  2  0  0  0
  3  4  1  0  0  0
  4  5  2  0  0  0
  5  6  1  0  0  0
  5  7  1  0  0  0
  7  8  2  0  0  0
  8  9  1  0  0  0
  9 10  2  0  0  0
 20 15  1  0  0  0
 10  1  1  0  0  0
 32 27  1  0  0  0
 10  4  1  0  0  0
 39 34  1  0  0  0
  6 11  1  0  0  0
  6 12  1  0  0  0
M  END
> <minimizedAffinity>
-7.90164

> <CNNscore>
0.0677230656

> <CNNaffinity>
6.6794075966

> <CNN_VS>
0.4523499608

> <CNNaffinity_variance>
0.3228386641

$$$$
[H]/C(C(=O)N1C([H])([H])C([H])([H])C([H])([H])[C@@]([H])(n2nc(-c3c([H])c([H])c(Oc4c([H])c([H])c([H])c([H])c4[H])c([H])c3[H])c3c(N([H])[H])nc([H])nc32)C1([H])[H])=C(/[H])C([H])([H])N(C([H])([H])[H])C([H])([H])[H]


 39 43  0  0  0  0  0  0  0  0999 V2000
  -86.7684   30.0935   -0.4017 N   0  0  0  0  0  0  0  0  0  0  0  0
  -87.8205   29.3625   -0.6762 N   0  0  0  0  0  0  0  0  0  0  0  0
  -87.8229   28.1965    0.0311 C   0  0  0  0  0  0  0  0  0  0  0  0
  -86.7039   28.1884    0.8034 C   0  0  0  0  0  0  0  0  0  0  0  0
  -86.1640   27.3114    1.7314 C   0  0  0  0  0  0  0  0  0  0  0  0
  -86.8156   26.0979    2.0865 N   0  0  0  0  0  0  0  0  0  0  0  0
  -85.0027   27.6721    2.3217 N   0  0  0  0  0  0  0  0  0  0  0  0
  -84.3566   28.8163    2.0616 C   0  0  0  0  0  0  0  0  0  0  0  0
  -84.9070   29.6421    1.1619 N   0  0  0  0  0  0  0  0  0  0  0  0
  -86.0499   29.3953    0.5141 C   0  0  0  0  0  0  0  0  0  0  0  0
  -86.4216   25.2105    1.7161 H   0  0  0  0  0  0  0  0  0  0  0  0
  -87.6609   26.0295    2.6924 H   0  0  0  0  0  0  0  0  0  0  0  0
  -87.8315   34.2786   -2.8368 C   0  0  0  0  0  0  0  0  0  0  0  0
  -87.2833   35.3198   -3.3053 O   0  0  0  0  0  0  0  0  0  0  0  0
  -87.0706   33.3521   -2.0913 N   0  0  0  0  0  0  0  0  0  0  0  0
  -85.6517   33.6315   -1.8735 C   0  0  0  0  0  0  0  0  0  0  0  0
  -85.3121   33.5220   -0.3948 C   0  0  0  0  0  0  0  0  0  0  0  0
  -85.8473   32.2589    0.1988 C   0  0  0  0  0  0  0  0  0  0  0  0
  -86.3996   31.3982   -0.9246 C   0  0  0  0  0  0  0  0  0  0  0  0
  -87.5831   32.1257   -1.5149 C   0  0  0  0  0  0  0  0  0  0  0  0
  -89.6609   33.5508   -4.2436 C   0  0  0  0  0  0  0  0  0  0  0  0
  -89.2542   34.0917   -3.1015 C   0  0  0  0  0  0  0  0  0  0  0  0
  -91.0672   33.3187   -4.6103 C   0  0  0  0  0  0  0  0  0  0  0  0
  -92.9230   31.7834   -4.4459 C   0  0  0  0  0  0  0  0  0  0  0  0
  -91.5716   32.0694   -4.0200 N   0  0  0  0  0  0  0  0  0  0  0  0
  -90.6835   30.9721   -4.3943 C   0  0  0  0  0  0  0  0  0  0  0  0
  -88.8628   27.1893   -0.0189 C   0  0  0  0  0  0  0  0  0  0  0  0
  -90.0095   27.3338    0.7649 C   0  0  0  0  0  0  0  0  0  0  0  0
  -91.0357   26.4177    0.6865 C   0  0  0  0  0  0  0  0  0  0  0  0
  -90.9434   25.3337   -0.1759 C   0  0  0  0  0  0  0  0  0  0  0  0
  -89.8231   25.1917   -0.9433 C   0  0  0  0  0  0  0  0  0  0  0  0
  -88.8067   26.1146   -0.8550 C   0  0  0  0  0  0  0  0  0  0  0  0
  -92.0084   24.4195   -0.2281 O   0  0  0  0  0  0  0  0  0  0  0  0
  -92.5529   24.1227   -1.4737 C   0  0  0  0  0  0  0  0  0  0  0  0
  -93.2844   25.0537   -2.1819 C   0  0  0  0  0  0  0  0  0  0  0  0
  -93.8289   24.7723   -3.4162 C   0  0  0  0  0  0  0  0  0  0  0  0
  -93.6635   23.5347   -4.0025 C   0  0  0  0  0  0  0  0  0  0  0  0
  -92.9321   22.5910   -3.3044 C   0  0  0  0  0  0  0  0  0  0  0  0
  -92.3880   22.8738   -2.0691 C   0  0  0  0  0  0  0  0  0  0  0  0
 24 25  1  0  0  0
 25 26  1  0  0  0
 25 23  1  0  0  0
 23 21  1  0  0  0
 21 22  2  0  0  0
 22 13  1  0  0  0
 13 14  2  0  0  0
 13 15  1  0  0  0
 15 16  1  0  0  0
 16 17  1  0  0  0
 17 18  1  0  0  0
 18 19  1  0  0  0
 19 20  1  0  0  0
 19  1  1  0  0  0
  1  2  1  0  0  0
  2  3  2  0  0  0
  3 27  1  0  0  0
 27 28  2  0  0  0
 28 29  1  0  0  0
 29 30  2  0  0  0
 30 33  1  0  0  0
 33 34  1  0  0  0
 34 35  2  0  0  0
 35 36  1  0  0  0
 36 37  2  0  0  0
 37 38  1  0  0  0
 38 39  2  0  0  0
 30 31  1  0  0  0
 31 32  2  0  0  0
  3  4  1  0  0  0
  4  5  2  0  0  0
  5  6  1  0  0  0
  5  7  1  0  0  0
  7  8  2  0  0  0
  8  9  1  0  0  0
  9 10  2  0  0  0
 20 15  1  0  0  0
 10  1  1  0  0  0
 32 27  1  0  0  0
 10  4  1  0  0  0
 39 34  1  0  0  0
  6 11  1  0  0  0
  6 12  1  0  0  0
M  END
> <minimizedAffinity>
-8.01234

> <CNNscore>
0.0425655730

> <CNNaffinity>
6.6195106506

> <CNN_VS>
0.2817632556

> <CNNaffinity_variance>
0.1750706285

$$$$
[H]/C(C(=O)N1C([H])([H])C([H])([H])C([H])([H])[C@@]([H])(n2nc(-c3c([H])c([H])c(Oc4c([H])c([H])c([H])c([H])c4[H])c([H])c3[H])c3c(N([H])[H])nc([H])nc32)C1([H])[H])=C(/[H])C([H])([H])N(C([H])([H])[H])C([H])([H])[H]


 39 43  0  0  0  0  0  0  0  0999 V2000
  -87.8527   29.0183   -0.8367 N   0  0  0  0  0  0  0  0  0  0  0  0
  -87.5660   30.2542   -1.1638 N   0  0  0  0  0  0  0  0  0  0  0  0
  -88.4019   30.7262   -2.1326 C   0  0  0  0  0  0  0  0  0  0  0  0
  -89.2737   29.7285   -2.4374 C   0  0  0  0  0  0  0  0  0  0  0  0
  -90.3459   29.6000   -3.3068 C   0  0  0  0  0  0  0  0  0  0  0  0
  -90.7768   30.6749   -4.1328 N   0  0  0  0  0  0  0  0  0  0  0  0
  -90.9987   28.4163   -3.3143 N   0  0  0  0  0  0  0  0  0  0  0  0
  -90.6693   27.3769   -2.5362 C   0  0  0  0  0  0  0  0  0  0  0  0
  -89.6302   27.5356   -1.7060 N   0  0  0  0  0  0  0  0  0  0  0  0
  -88.9089   28.6568   -1.6087 C   0  0  0  0  0  0  0  0  0  0  0  0
  -90.5527   30.6264   -5.1463 H   0  0  0  0  0  0  0  0  0  0  0  0
  -91.3024   31.5106   -3.7988 H   0  0  0  0  0  0  0  0  0  0  0  0
  -84.1526   27.9632    2.2892 C   0  0  0  0  0  0  0  0  0  0  0  0
  -83.7185   27.0361    3.0349 O   0  0  0  0  0  0  0  0  0  0  0  0
  -85.3858   27.8135    1.6184 N   0  0  0  0  0  0  0  0  0  0  0  0
  -86.1394   26.5755    1.8143 C   0  0  0  0  0  0  0  0  0  0  0  0
  -87.5759   26.8872    2.2058 C   0  0  0  0  0  0  0  0  0  0  0  0
  -88.1831   27.9069    1.2972 C   0  0  0  0  0  0  0  0  0  0  0  0
  -87.2181   28.1634    0.1523 C   0  0  0  0  0  0  0  0  0  0  0  0
  -85.9786   28.7974    0.7356 C   0  0  0  0  0  0  0  0  0  0  0  0
  -83.4719   29.9667    1.1154 C   0  0  0  0  0  0  0  0  0  0  0  0
  -83.3322   29.1631    2.1629 C   0  0  0  0  0  0  0  0  0  0  0  0
  -82.6973   31.1978    0.8909 C   0  0  0  0  0  0  0  0  0  0  0  0
  -83.4587   32.9055   -0.6362 C   0  0  0  0  0  0  0  0  0  0  0  0
  -83.5833   32.3554    0.6947 N   0  0  0  0  0  0  0  0  0  0  0  0
  -84.9634   31.9476    0.9432 C   0  0  0  0  0  0  0  0  0  0  0  0
  -88.3708   32.0647   -2.6856 C   0  0  0  0  0  0  0  0  0  0  0  0
  -87.6372   32.3212   -3.8459 C   0  0  0  0  0  0  0  0  0  0  0  0
  -87.6437   33.5735   -4.4203 C   0  0  0  0  0  0  0  0  0  0  0  0
  -88.3822   34.6021   -3.8512 C   0  0  0  0  0  0  0  0  0  0  0  0
  -89.1005   34.3524   -2.7172 C   0  0  0  0  0  0  0  0  0  0  0  0
  -89.0851   33.0968   -2.1550 C   0  0  0  0  0  0  0  0  0  0  0  0
  -88.3640   35.8658   -4.4637 O   0  0  0  0  0  0  0  0  0  0  0  0
  -88.9975   36.0033   -5.6949 C   0  0  0  0  0  0  0  0  0  0  0  0
  -88.5068   36.8487   -6.6685 C   0  0  0  0  0  0  0  0  0  0  0  0
  -89.1248   36.9940   -7.8917 C   0  0  0  0  0  0  0  0  0  0  0  0
  -90.2722   36.2923   -8.1980 C   0  0  0  0  0  0  0  0  0  0  0  0
  -90.7758   35.4405   -7.2318 C   0  0  0  0  0  0  0  0  0  0  0  0
  -90.1566   35.2963   -6.0079 C   0  0  0  0  0  0  0  0  0  0  0  0
 24 25  1  0  0  0
 25 26  1  0  0  0
 25 23  1  0  0  0
 23 21  1  0  0  0
 21 22  2  0  0  0
 22 13  1  0  0  0
 13 14  2  0  0  0
 13 15  1  0  0  0
 15 16  1  0  0  0
 16 17  1  0  0  0
 17 18  1  0  0  0
 18 19  1  0  0  0
 19 20  1  0  0  0
 19  1  1  0  0  0
  1  2  1  0  0  0
  2  3  2  0  0  0
  3 27  1  0  0  0
 27 28  2  0  0  0
 28 29  1  0  0  0
 29 30  2  0  0  0
 30 33  1  0  0  0
 33 34  1  0  0  0
 34 35  2  0  0  0
 35 36  1  0  0  0
 36 37  2  0  0  0
 37 38  1  0  0  0
 38 39  2  0  0  0
 30 31  1  0  0  0
 31 32  2  0  0  0
  3  4  1  0  0  0
  4  5  2  0  0  0
  5  6  1  0  0  0
  5  7  1  0  0  0
  7  8  2  0  0  0
  8  9  1  0  0  0
  9 10  2  0  0  0
 20 15  1  0  0  0
 10  1  1  0  0  0
 32 27  1  0  0  0
 10  4  1  0  0  0
 39 34  1  0  0  0
  6 11  1  0  0  0
  6 12  1  0  0  0
M  END
> <minimizedAffinity>
-9.60355

> <CNNscore>
0.0417347923

> <CNNaffinity>
6.5331163406

> <CNN_VS>
0.2726582587

> <CNNaffinity_variance>
0.4582632184

$$$$
[H]/C(C(=O)N1C([H])([H])C([H])([H])C([H])([H])[C@@]([H])(n2nc(-c3c([H])c([H])c(Oc4c([H])c([H])c([H])c([H])c4[H])c([H])c3[H])c3c(N([H])[H])nc([H])nc32)C1([H])[H])=C(/[H])C([H])([H])N(C([H])([H])[H])C([H])([H])[H]


 39 43  0  0  0  0  0  0  0  0999 V2000
  -87.1730   28.9911    0.7260 N   0  0  0  0  0  0  0  0  0  0  0  0
  -87.4771   27.8790    1.3484 N   0  0  0  0  0  0  0  0  0  0  0  0
  -88.7892   27.5484    1.1779 C   0  0  0  0  0  0  0  0  0  0  0  0
  -89.3515   28.5094    0.3977 C   0  0  0  0  0  0  0  0  0  0  0  0
  -90.6155   28.7233   -0.1301 C   0  0  0  0  0  0  0  0  0  0  0  0
  -91.6846   27.8102    0.0861 N   0  0  0  0  0  0  0  0  0  0  0  0
  -90.7883   29.8226   -0.8974 N   0  0  0  0  0  0  0  0  0  0  0  0
  -89.8162   30.7023   -1.1716 C   0  0  0  0  0  0  0  0  0  0  0  0
  -88.6064   30.4644   -0.6481 N   0  0  0  0  0  0  0  0  0  0  0  0
  -88.3139   29.4131    0.1241 C   0  0  0  0  0  0  0  0  0  0  0  0
  -92.4294   28.0868    0.7558 H   0  0  0  0  0  0  0  0  0  0  0  0
  -91.7793   26.8816   -0.3776 H   0  0  0  0  0  0  0  0  0  0  0  0
  -84.3816   32.9046   -0.4856 C   0  0  0  0  0  0  0  0  0  0  0  0
  -83.1725   33.2715   -0.5718 O   0  0  0  0  0  0  0  0  0  0  0  0
  -84.6998   31.6309    0.0336 N   0  0  0  0  0  0  0  0  0  0  0  0
  -83.6060   30.7635    0.4696 C   0  0  0  0  0  0  0  0  0  0  0  0
  -83.8643   30.2549    1.8797 C   0  0  0  0  0  0  0  0  0  0  0  0
  -85.2498   29.7124    2.0219 C   0  0  0  0  0  0  0  0  0  0  0  0
  -85.8925   29.6734    0.6459 C   0  0  0  0  0  0  0  0  0  0  0  0
  -86.0402   31.0991    0.1725 C   0  0  0  0  0  0  0  0  0  0  0  0
  -86.0794   33.6124   -2.0579 C   0  0  0  0  0  0  0  0  0  0  0  0
  -85.4023   33.8433   -0.9395 C   0  0  0  0  0  0  0  0  0  0  0  0
  -87.1256   34.4915   -2.6042 C   0  0  0  0  0  0  0  0  0  0  0  0
  -88.2351   33.7533   -4.6171 C   0  0  0  0  0  0  0  0  0  0  0  0
  -87.1121   34.4842   -4.0750 N   0  0  0  0  0  0  0  0  0  0  0  0
  -87.1276   35.8619   -4.5593 C   0  0  0  0  0  0  0  0  0  0  0  0
  -89.4289   26.3613    1.7070 C   0  0  0  0  0  0  0  0  0  0  0  0
  -89.5639   25.2270    0.9037 C   0  0  0  0  0  0  0  0  0  0  0  0
  -90.1153   24.0692    1.4075 C   0  0  0  0  0  0  0  0  0  0  0  0
  -90.5464   24.0140    2.7260 C   0  0  0  0  0  0  0  0  0  0  0  0
  -90.4143   25.1221    3.5127 C   0  0  0  0  0  0  0  0  0  0  0  0
  -89.8612   26.2710    2.9963 C   0  0  0  0  0  0  0  0  0  0  0  0
  -91.1045   22.8173    3.2046 O   0  0  0  0  0  0  0  0  0  0  0  0
  -90.2361   21.8032    3.5966 C   0  0  0  0  0  0  0  0  0  0  0  0
  -90.3491   20.5228    3.0957 C   0  0  0  0  0  0  0  0  0  0  0  0
  -89.4956   19.5096    3.4757 C   0  0  0  0  0  0  0  0  0  0  0  0
  -88.4808   19.7355    4.3823 C   0  0  0  0  0  0  0  0  0  0  0  0
  -88.3550   21.0147    4.8929 C   0  0  0  0  0  0  0  0  0  0  0  0
  -89.2100   22.0275    4.5121 C   0  0  0  0  0  0  0  0  0  0  0  0
 24 25  1  0  0  0
 25 26  1  0  0  0
 25 23  1  0  0  0
 23 21  1  0  0  0
 21 22  2  0  0  0
 22 13  1  0  0  0
 13 14  2  0  0  0
 13 15  1  0  0  0
 15 16  1  0  0  0
 16 17  1  0  0  0
 17 18  1  0  0  0
 18 19  1  0  0  0
 19 20  1  0  0  0
 19  1  1  0  0  0
  1  2  1  0  0  0
  2  3  2  0  0  0
  3 27  1  0  0  0
 27 28  2  0  0  0
 28 29  1  0  0  0
 29 30  2  0  0  0
 30 33  1  0  0  0
 33 34  1  0  0  0
 34 35  2  0  0  0
 35 36  1  0  0  0
 36 37  2  0  0  0
 37 38  1  0  0  0
 38 39  2  0  0  0
 30 31  1  0  0  0
 31 32  2  0  0  0
  3  4  1  0  0  0
  4  5  2  0  0  0
  5  6  1  0  0  0
  5  7  1  0  0  0
  7  8  2  0  0  0
  8  9  1  0  0  0
  9 10  2  0  0  0
 20 15  1  0  0  0
 10  1  1  0  0  0
 32 27  1  0  0  0
 10  4  1  0  0  0
 39 34  1  0  0  0
  6 11  1  0  0  0
  6 12  1  0  0  0
M  END
> <minimizedAffinity>
-9.91307

> <CNNscore>
0.0337057747

> <CNNaffinity>
6.5658998489

> <CNN_VS>
0.2213087380

> <CNNaffinity_variance>
0.3001687527

$$$$
[H]/C(C(=O)N1C([H])([H])C([H])([H])C([H])([H])[C@@]([H])(n2nc(-c3c([H])c([H])c(Oc4c([H])c([H])c([H])c([H])c4[H])c([H])c3[H])c3c(N([H])[H])nc([H])nc32)C1([H])[H])=C(/[H])C([H])([H])N(C([H])([H])[H])C([H])([H])[H]


 39 43  0  0  0  0  0  0  0  0999 V2000
  -90.5132   31.6815   -3.8735 N   0  0  0  0  0  0  0  0  0  0  0  0
  -89.7390   31.3628   -2.8656 N   0  0  0  0  0  0  0  0  0  0  0  0
  -88.6225   32.1446   -2.8205 C   0  0  0  0  0  0  0  0  0  0  0  0
  -88.6938   33.0141   -3.8632 C   0  0  0  0  0  0  0  0  0  0  0  0
  -87.8940   34.0448   -4.3320 C   0  0  0  0  0  0  0  0  0  0  0  0
  -86.6902   34.4209   -3.6740 N   0  0  0  0  0  0  0  0  0  0  0  0
  -88.3223   34.7124   -5.4266 N   0  0  0  0  0  0  0  0  0  0  0  0
  -89.4630   34.4349   -6.0716 C   0  0  0  0  0  0  0  0  0  0  0  0
  -90.2134   33.4349   -5.5908 N   0  0  0  0  0  0  0  0  0  0  0  0
  -89.8954   32.7042   -4.5176 C   0  0  0  0  0  0  0  0  0  0  0  0
  -85.7908   34.1489   -4.1177 H   0  0  0  0  0  0  0  0  0  0  0  0
  -86.6403   34.9507   -2.7778 H   0  0  0  0  0  0  0  0  0  0  0  0
  -93.4484   27.7960   -4.8018 C   0  0  0  0  0  0  0  0  0  0  0  0
  -94.5884   27.5040   -5.2701 O   0  0  0  0  0  0  0  0  0  0  0  0
  -93.0719   29.1478   -4.6463 N   0  0  0  0  0  0  0  0  0  0  0  0
  -94.0281   30.1856   -5.0302 C   0  0  0  0  0  0  0  0  0  0  0  0
  -94.2050   31.1864   -3.8984 C   0  0  0  0  0  0  0  0  0  0  0  0
  -92.8878   31.6500   -3.3653 C   0  0  0  0  0  0  0  0  0  0  0  0
  -91.7896   31.1069   -4.2636 C   0  0  0  0  0  0  0  0  0  0  0  0
  -91.7965   29.6032   -4.1318 C   0  0  0  0  0  0  0  0  0  0  0  0
  -92.6938   26.0849   -3.2663 C   0  0  0  0  0  0  0  0  0  0  0  0
  -92.5674   26.6904   -4.4410 C   0  0  0  0  0  0  0  0  0  0  0  0
  -91.8597   24.9640   -2.8040 C   0  0  0  0  0  0  0  0  0  0  0  0
  -89.8705   25.9860   -1.8948 C   0  0  0  0  0  0  0  0  0  0  0  0
  -91.1163   25.3211   -1.5860 N   0  0  0  0  0  0  0  0  0  0  0  0
  -91.9518   26.1806   -0.7517 C   0  0  0  0  0  0  0  0  0  0  0  0
  -87.5879   32.0688   -1.8094 C   0  0  0  0  0  0  0  0  0  0  0  0
  -87.1594   33.2308   -1.1641 C   0  0  0  0  0  0  0  0  0  0  0  0
  -86.2197   33.1715   -0.1582 C   0  0  0  0  0  0  0  0  0  0  0  0
  -85.6833   31.9511    0.2292 C   0  0  0  0  0  0  0  0  0  0  0  0
  -86.1020   30.8141   -0.4004 C   0  0  0  0  0  0  0  0  0  0  0  0
  -87.0415   30.8885   -1.4027 C   0  0  0  0  0  0  0  0  0  0  0  0
  -84.7267   31.9294    1.2573 O   0  0  0  0  0  0  0  0  0  0  0  0
  -84.2933   30.6904    1.7192 C   0  0  0  0  0  0  0  0  0  0  0  0
  -85.1339   29.8448    2.4131 C   0  0  0  0  0  0  0  0  0  0  0  0
  -84.7171   28.6154    2.8759 C   0  0  0  0  0  0  0  0  0  0  0  0
  -83.4281   28.1734    2.6622 C   0  0  0  0  0  0  0  0  0  0  0  0
  -82.5738   29.0104    1.9677 C   0  0  0  0  0  0  0  0  0  0  0  0
  -82.9921   30.2406    1.5054 C   0  0  0  0  0  0  0  0  0  0  0  0
 24 25  1  0  0  0
 25 26  1  0  0  0
 25 23  1  0  0  0
 23 21  1  0  0  0
 21 22  2  0  0  0
 22 13  1  0  0  0
 13 14  2  0  0  0
 13 15  1  0  0  0
 15 16  1  0  0  0
 16 17  1  0  0  0
 17 18  1  0  0  0
 18 19  1  0  0  0
 19 20  1  0  0  0
 19  1  1  0  0  0
  1  2  1  0  0  0
  2  3  2  0  0  0
  3 27  1  0  0  0
 27 28  2  0  0  0
 28 29  1  0  0  0
 29 30  2  0  0  0
 30 33  1  0  0  0
 33 34  1  0  0  0
 34 35  2  0  0  0
 35 36  1  0  0  0
 36 37  2  0  0  0
 37 38  1  0  0  0
 38 39  2  0  0  0
 30 31  1  0  0  0
 31 32  2  0  0  0
  3  4  1  0  0  0
  4  5  2  0  0  0
  5  6  1  0  0  0
  5  7  1  0  0  0
  7  8  2  0  0  0
  8  9  1  0  0  0
  9 10  2  0  0  0
 20 15  1  0  0  0
 10  1  1  0  0  0
 32 27  1  0  0  0
 10  4  1  0  0  0
 39 34  1  0  0  0
  6 11  1  0  0  0
  6 12  1  0  0  0
M  END
> <minimizedAffinity>
-9.44049

> <CNNscore>
0.0333386846

> <CNNaffinity>
6.1588621140

> <CNN_VS>
0.2053283602

> <CNNaffinity_variance>
0.3256409764

$$$$
[H]OC(=O)[C@@]([H])(N([H])C(=O)[C@@]([H])(S[H])C([H])([H])c1c([H])c([H])c([H])c([H])c1[H])C([H])([H])C([H])(C([H])([H])[H])C([H])([H])[H]


 23 23  0  0  0  0  0  0  0  0999 V2000
  -87.9633   27.6427    1.4055 N   0  0  0  0  0  0  0  0  0  0  0  0
  -86.6224   27.8496    1.7723 C   0  0  0  0  0  0  0  0  0  0  0  0
  -85.9382   26.8859    2.2381 O   0  0  0  0  0  0  0  0  0  0  0  0
  -88.5247   28.4167    1.0266 H   0  0  0  0  0  0  0  0  0  0  0  0
  -85.9954   29.1635    1.6267 C   0  0  0  0  0  0  0  0  0  0  0  0
  -85.1897   29.6296    3.1718 S   0  0  0  0  0  0  0  0  0  0  0  0
  -84.0076   28.8397    3.2699 H   0  0  0  0  0  0  0  0  0  0  0  0
  -85.0471   29.2454    0.4508 C   0  0  0  0  0  0  0  0  0  0  0  0
  -84.6274   30.6252    0.1679 C   0  0  0  0  0  0  0  0  0  0  0  0
  -83.2900   30.9319    0.1734 C   0  0  0  0  0  0  0  0  0  0  0  0
  -82.9128   32.2245   -0.0899 C   0  0  0  0  0  0  0  0  0  0  0  0
  -83.8192   33.2100   -0.3557 C   0  0  0  0  0  0  0  0  0  0  0  0
  -85.1800   32.9025   -0.3624 C   0  0  0  0  0  0  0  0  0  0  0  0
  -85.5651   31.5991   -0.0972 C   0  0  0  0  0  0  0  0  0  0  0  0
  -88.6614   26.3455    1.5259 C   0  0  0  0  0  0  0  0  0  0  0  0
  -88.5408   25.7105    0.2311 C   0  0  0  0  0  0  0  0  0  0  0  0
  -88.5993   24.3369    0.0783 O   0  0  0  0  0  0  0  0  0  0  0  0
  -88.3725   26.3558   -0.8363 O   0  0  0  0  0  0  0  0  0  0  0  0
  -87.9621   23.7002    0.5527 H   0  0  0  0  0  0  0  0  0  0  0  0
  -89.9837   26.6548    2.0774 C   0  0  0  0  0  0  0  0  0  0  0  0
  -89.9744   27.3470    4.4910 C   0  0  0  0  0  0  0  0  0  0  0  0
  -90.3525   26.3160    3.4562 C   0  0  0  0  0  0  0  0  0  0  0  0
  -90.1165   24.8974    3.9020 C   0  0  0  0  0  0  0  0  0  0  0  0
 21 22  1  0  0  0
 22 23  1  0  0  0
 22 20  1  0  0  0
 20 15  1  0  0  0
 15  1  1  0  0  0
  1  2  1  0  0  0
  2  3  2  0  0  0
  2  5  1  0  0  0
  5  6  1  0  0  0
  5  8  1  0  0  0
  8  9  1  0  0  0
  9 10  2  0  0  0
 10 11  1  0  0  0
 11 12  2  0  0  0
 12 13  1  0  0  0
 13 14  2  0  0  0
 15 16  1  0  0  0
 16 17  1  0  0  0
 16 18  2  0  0  0
 14  9  1  0  0  0
  1  4  1  0  0  0
  6  7  1  0  0  0
 17 19  1  0  0  0
M  END
> <minimizedAffinity>
-6.78151

> <CNNscore>
0.7431153059

> <CNNaffinity>
5.7459259033

> <CNN_VS>
4.2698855400

> <CNNaffinity_variance>
0.2247920781

$$$$
[H]OC(=O)[C@@]([H])(N([H])C(=O)[C@@]([H])(S[H])C([H])([H])c1c([H])c([H])c([H])c([H])c1[H])C([H])([H])C([H])(C([H])([H])[H])C([H])([H])[H]


 23 23  0  0  0  0  0  0  0  0999 V2000
  -88.3162   27.0845    0.4762 N   0  0  0  0  0  0  0  0  0  0  0  0
  -87.0121   27.5685    0.6772 C   0  0  0  0  0  0  0  0  0  0  0  0
  -86.2885   27.0734    1.5964 O   0  0  0  0  0  0  0  0  0  0  0  0
  -88.9091   27.4785   -0.2662 H   0  0  0  0  0  0  0  0  0  0  0  0
  -86.4688   28.6397   -0.1584 C   0  0  0  0  0  0  0  0  0  0  0  0
  -87.3587   28.7013   -1.7262 S   0  0  0  0  0  0  0  0  0  0  0  0
  -88.6340   29.2739   -1.4492 H   0  0  0  0  0  0  0  0  0  0  0  0
  -86.4524   29.9854    0.5324 C   0  0  0  0  0  0  0  0  0  0  0  0
  -85.1013   30.5596    0.6029 C   0  0  0  0  0  0  0  0  0  0  0  0
  -84.1216   29.8827    1.2847 C   0  0  0  0  0  0  0  0  0  0  0  0
  -82.8657   30.4318    1.3444 C   0  0  0  0  0  0  0  0  0  0  0  0
  -82.5603   31.6227    0.7511 C   0  0  0  0  0  0  0  0  0  0  0  0
  -83.5533   32.3142    0.0568 C   0  0  0  0  0  0  0  0  0  0  0  0
  -84.8224   31.7636   -0.0059 C   0  0  0  0  0  0  0  0  0  0  0  0
  -88.9303   26.0077    1.2811 C   0  0  0  0  0  0  0  0  0  0  0  0
  -89.4965   25.0766    0.3288 C   0  0  0  0  0  0  0  0  0  0  0  0
  -88.8896   23.8696    0.0318 O   0  0  0  0  0  0  0  0  0  0  0  0
  -90.5682   25.2981   -0.2928 O   0  0  0  0  0  0  0  0  0  0  0  0
  -87.9394   23.8021   -0.3273 H   0  0  0  0  0  0  0  0  0  0  0  0
  -89.7912   26.6820    2.2572 C   0  0  0  0  0  0  0  0  0  0  0  0
  -89.5215   25.2877    4.3280 C   0  0  0  0  0  0  0  0  0  0  0  0
  -89.5067   26.6579    3.6960 C   0  0  0  0  0  0  0  0  0  0  0  0
  -90.1545   27.7210    4.5428 C   0  0  0  0  0  0  0  0  0  0  0  0
 21 22  1  0  0  0
 22 23  1  0  0  0
 22 20  1  0  0  0
 20 15  1  0  0  0
 15  1  1  0  0  0
  1  2  1  0  0  0
  2  3  2  0  0  0
  2  5  1  0  0  0
  5  6  1  0  0  0
  5  8  1  0  0  0
  8  9  1  0  0  0
  9 10  2  0  0  0
 10 11  1  0  0  0
 11 12  2  0  0  0
 12 13  1  0  0  0
 13 14  2  0  0  0
 15 16  1  0  0  0
 16 17  1  0  0  0
 16 18  2  0  0  0
 14  9  1  0  0  0
  1  4  1  0  0  0
  6  7  1  0  0  0
 17 19  1  0  0  0
M  END
> <minimizedAffinity>
-6.99008

> <CNNscore>
0.5285038352

> <CNNaffinity>
5.5812864304

> <CNN_VS>
2.9497313499

> <CNNaffinity_variance>
0.1487233937

$$$$
[H]OC(=O)[C@@]([H])(N([H])C(=O)[C@@]([H])(S[H])C([H])([H])c1c([H])c([H])c([H])c([H])c1[H])C([H])([H])C([H])(C([H])([H])[H])C([H])([H])[H]


 23 23  0  0  0  0  0  0  0  0999 V2000
  -86.6135   29.2554    0.7989 N   0  0  0  0  0  0  0  0  0  0  0  0
  -87.3417   28.8756   -0.3416 C   0  0  0  0  0  0  0  0  0  0  0  0
  -86.7571   28.2687   -1.2922 O   0  0  0  0  0  0  0  0  0  0  0  0
  -87.0785   29.7463    1.5739 H   0  0  0  0  0  0  0  0  0  0  0  0
  -88.7707   29.1686   -0.4553 C   0  0  0  0  0  0  0  0  0  0  0  0
  -89.1443   29.7455   -2.1231 S   0  0  0  0  0  0  0  0  0  0  0  0
  -89.0937   28.6015   -2.9714 H   0  0  0  0  0  0  0  0  0  0  0  0
  -89.6521   28.0074   -0.0511 C   0  0  0  0  0  0  0  0  0  0  0  0
  -89.9579   28.0133    1.3864 C   0  0  0  0  0  0  0  0  0  0  0  0
  -91.0094   28.7673    1.8434 C   0  0  0  0  0  0  0  0  0  0  0  0
  -91.2818   28.7653    3.1881 C   0  0  0  0  0  0  0  0  0  0  0  0
  -90.5453   28.0420    4.0814 C   0  0  0  0  0  0  0  0  0  0  0  0
  -89.4755   27.2741    3.6210 C   0  0  0  0  0  0  0  0  0  0  0  0
  -89.1970   27.2732    2.2645 C   0  0  0  0  0  0  0  0  0  0  0  0
  -85.1702   28.9942    0.9816 C   0  0  0  0  0  0  0  0  0  0  0  0
  -84.9708   28.8594    2.4086 C   0  0  0  0  0  0  0  0  0  0  0  0
  -83.9859   28.0458    2.9391 O   0  0  0  0  0  0  0  0  0  0  0  0
  -85.6742   29.4638    3.2596 O   0  0  0  0  0  0  0  0  0  0  0  0
  -83.9280   27.0484    2.7435 H   0  0  0  0  0  0  0  0  0  0  0  0
  -84.4773   30.0480    0.2346 C   0  0  0  0  0  0  0  0  0  0  0  0
  -85.2031   32.4514    0.2761 C   0  0  0  0  0  0  0  0  0  0  0  0
  -84.2648   31.3881    0.7918 C   0  0  0  0  0  0  0  0  0  0  0  0
  -82.8406   31.8558    0.9332 C   0  0  0  0  0  0  0  0  0  0  0  0
 21 22  1  0  0  0
 22 23  1  0  0  0
 22 20  1  0  0  0
 20 15  1  0  0  0
 15  1  1  0  0  0
  1  2  1  0  0  0
  2  3  2  0  0  0
  2  5  1  0  0  0
  5  6  1  0  0  0
  5  8  1  0  0  0
  8  9  1  0  0  0
  9 10  2  0  0  0
 10 11  1  0  0  0
 11 12  2  0  0  0
 12 13  1  0  0  0
 13 14  2  0  0  0
 15 16  1  0  0  0
 16 17  1  0  0  0
 16 18  2  0  0  0
 14  9  1  0  0  0
  1  4  1  0  0  0
  6  7  1  0  0  0
 17 19  1  0  0  0
M  END
> <minimizedAffinity>
-6.38318

> <CNNscore>
0.4510443509

> <CNNaffinity>
5.2769470215

> <CNN_VS>
2.3801372051

> <CNNaffinity_variance>
0.2441852540

$$$$
[H]OC(=O)[C@@]([H])(N([H])C(=O)[C@@]([H])(S[H])C([H])([H])c1c([H])c([H])c([H])c([H])c1[H])C([H])([H])C([H])(C([H])([H])[H])C([H])([H])[H]


 23 23  0  0  0  0  0  0  0  0999 V2000
  -85.8109   28.6886    1.7947 N   0  0  0  0  0  0  0  0  0  0  0  0
  -86.7074   28.5076    0.7275 C   0  0  0  0  0  0  0  0  0  0  0  0
  -86.3448   28.7874   -0.4574 O   0  0  0  0  0  0  0  0  0  0  0  0
  -86.0952   28.4639    2.7573 H   0  0  0  0  0  0  0  0  0  0  0  0
  -88.0601   27.9996    0.9576 C   0  0  0  0  0  0  0  0  0  0  0  0
  -88.9945   28.0320   -0.5850 S   0  0  0  0  0  0  0  0  0  0  0  0
  -88.4987   26.9618   -1.3848 H   0  0  0  0  0  0  0  0  0  0  0  0
  -88.0821   26.6301    1.5999 C   0  0  0  0  0  0  0  0  0  0  0  0
  -88.8257   26.6206    2.8676 C   0  0  0  0  0  0  0  0  0  0  0  0
  -89.3210   27.8012    3.3614 C   0  0  0  0  0  0  0  0  0  0  0  0
  -90.0110   27.7778    4.5470 C   0  0  0  0  0  0  0  0  0  0  0  0
  -90.2198   26.6250    5.2478 C   0  0  0  0  0  0  0  0  0  0  0  0
  -89.7181   25.4225    4.7494 C   0  0  0  0  0  0  0  0  0  0  0  0
  -89.0210   25.4416    3.5530 C   0  0  0  0  0  0  0  0  0  0  0  0
  -84.4323   29.1979    1.6374 C   0  0  0  0  0  0  0  0  0  0  0  0
  -83.5756   28.2226    2.2771 C   0  0  0  0  0  0  0  0  0  0  0  0
  -84.0683   27.0361    2.7899 O   0  0  0  0  0  0  0  0  0  0  0  0
  -82.3350   28.3844    2.4138 O   0  0  0  0  0  0  0  0  0  0  0  0
  -84.7951   27.0011    3.5018 H   0  0  0  0  0  0  0  0  0  0  0  0
  -84.4625   30.5827    2.1167 C   0  0  0  0  0  0  0  0  0  0  0  0
  -85.1446   32.1934    0.3153 C   0  0  0  0  0  0  0  0  0  0  0  0
  -84.0749   31.7117    1.2642 C   0  0  0  0  0  0  0  0  0  0  0  0
  -82.6991   31.6717    0.6539 C   0  0  0  0  0  0  0  0  0  0  0  0
 21 22  1  0  0  0
 22 23  1  0  0  0
 22 20  1  0  0  0
 20 15  1  0  0  0
 15  1  1  0  0  0
  1  2  1  0  0  0
  2  3  2  0  0  0
  2  5  1  0  0  0
  5  6  1  0  0  0
  5  8  1  0  0  0
  8  9  1  0  0  0
  9 10  2  0  0  0
 10 11  1  0  0  0
 11 12  2  0  0  0
 12 13  1  0  0  0
 13 14  2  0  0  0
 15 16  1  0  0  0
 16 17  1  0  0  0
 16 18  2  0  0  0
 14  9  1  0  0  0
  1  4  1  0  0  0
  6  7  1  0  0  0
 17 19  1  0  0  0
M  END
> <minimizedAffinity>
-7.09066

> <CNNscore>
0.4177056551

> <CNNaffinity>
5.5455007553

> <CNN_VS>
2.3163869381

> <CNNaffinity_variance>
0.0641153529

$$$$
[H]OC(=O)[C@@]([H])(N([H])C(=O)[C@@]([H])(S[H])C([H])([H])c1c([H])c([H])c([H])c([H])c1[H])C([H])([H])C([H])(C([H])([H])[H])C([H])([H])[H]


 23 23  0  0  0  0  0  0  0  0999 V2000
  -87.7322   27.4490    1.0502 N   0  0  0  0  0  0  0  0  0  0  0  0
  -86.4521   27.6037    1.6094 C   0  0  0  0  0  0  0  0  0  0  0  0
  -85.8832   26.6158    2.1699 O   0  0  0  0  0  0  0  0  0  0  0  0
  -88.2003   28.2429    0.5935 H   0  0  0  0  0  0  0  0  0  0  0  0
  -85.7578   28.8905    1.5578 C   0  0  0  0  0  0  0  0  0  0  0  0
  -84.2659   28.8197    2.5693 S   0  0  0  0  0  0  0  0  0  0  0  0
  -83.3191   28.0382    1.8456 H   0  0  0  0  0  0  0  0  0  0  0  0
  -85.4603   29.3521    0.1482 C   0  0  0  0  0  0  0  0  0  0  0  0
  -86.1307   30.6190   -0.1770 C   0  0  0  0  0  0  0  0  0  0  0  0
  -85.4088   31.7854   -0.1442 C   0  0  0  0  0  0  0  0  0  0  0  0
  -86.0482   32.9608   -0.4475 C   0  0  0  0  0  0  0  0  0  0  0  0
  -87.3716   33.0078   -0.7790 C   0  0  0  0  0  0  0  0  0  0  0  0
  -88.1093   31.8242   -0.8137 C   0  0  0  0  0  0  0  0  0  0  0  0
  -87.4679   30.6356   -0.5082 C   0  0  0  0  0  0  0  0  0  0  0  0
  -88.4925   26.1816    1.0664 C   0  0  0  0  0  0  0  0  0  0  0  0
  -88.6981   25.8265   -0.3214 C   0  0  0  0  0  0  0  0  0  0  0  0
  -87.6648   25.8286   -1.2410 O   0  0  0  0  0  0  0  0  0  0  0  0
  -89.8205   25.4975   -0.7861 O   0  0  0  0  0  0  0  0  0  0  0  0
  -87.1030   26.6540   -1.4395 H   0  0  0  0  0  0  0  0  0  0  0  0
  -89.6403   26.4172    1.9471 C   0  0  0  0  0  0  0  0  0  0  0  0
  -90.4544   27.9856    3.7309 C   0  0  0  0  0  0  0  0  0  0  0  0
  -90.1040   27.7685    2.2794 C   0  0  0  0  0  0  0  0  0  0  0  0
  -91.0656   28.4203    1.3215 C   0  0  0  0  0  0  0  0  0  0  0  0
 21 22  1  0  0  0
 22 23  1  0  0  0
 22 20  1  0  0  0
 20 15  1  0  0  0
 15  1  1  0  0  0
  1  2  1  0  0  0
  2  3  2  0  0  0
  2  5  1  0  0  0
  5  6  1  0  0  0
  5  8  1  0  0  0
  8  9  1  0  0  0
  9 10  2  0  0  0
 10 11  1  0  0  0
 11 12  2  0  0  0
 12 13  1  0  0  0
 13 14  2  0  0  0
 15 16  1  0  0  0
 16 17  1  0  0  0
 16 18  2  0  0  0
 14  9  1  0  0  0
  1  4  1  0  0  0
  6  7  1  0  0  0
 17 19  1  0  0  0
M  END
> <minimizedAffinity>
-6.42270

> <CNNscore>
0.3595056832

> <CNNaffinity>
5.3203768730

> <CNN_VS>
1.9127057791

> <CNNaffinity_variance>
0.1566345096

$$$$
[H]OC(=O)[C@@]([H])(N([H])C(=O)[C@@]([H])(S[H])C([H])([H])c1c([H])c([H])c([H])c([H])c1[H])C([H])([H])C([H])(C([H])([H])[H])C([H])([H])[H]


 23 23  0  0  0  0  0  0  0  0999 V2000
  -86.6277   28.9047    1.1087 N   0  0  0  0  0  0  0  0  0  0  0  0
  -87.0805   28.9250   -0.2217 C   0  0  0  0  0  0  0  0  0  0  0  0
  -86.2490   28.8048   -1.1746 O   0  0  0  0  0  0  0  0  0  0  0  0
  -87.2936   29.0004    1.8868 H   0  0  0  0  0  0  0  0  0  0  0  0
  -88.5016   29.0834   -0.5317 C   0  0  0  0  0  0  0  0  0  0  0  0
  -89.4743   27.9335    0.4609 S   0  0  0  0  0  0  0  0  0  0  0  0
  -89.4875   28.4509    1.7887 H   0  0  0  0  0  0  0  0  0  0  0  0
  -88.9898   30.5075   -0.3828 C   0  0  0  0  0  0  0  0  0  0  0  0
  -88.3505   31.4194   -1.3418 C   0  0  0  0  0  0  0  0  0  0  0  0
  -87.7551   32.5660   -0.8796 C   0  0  0  0  0  0  0  0  0  0  0  0
  -87.1643   33.4092   -1.7864 C   0  0  0  0  0  0  0  0  0  0  0  0
  -87.1494   33.1465   -3.1259 C   0  0  0  0  0  0  0  0  0  0  0  0
  -87.7535   31.9818   -3.6001 C   0  0  0  0  0  0  0  0  0  0  0  0
  -88.3509   31.1280   -2.6882 C   0  0  0  0  0  0  0  0  0  0  0  0
  -85.2097   28.7500    1.4959 C   0  0  0  0  0  0  0  0  0  0  0  0
  -85.1107   27.4483    2.1206 C   0  0  0  0  0  0  0  0  0  0  0  0
  -83.9426   27.0055    2.7147 O   0  0  0  0  0  0  0  0  0  0  0  0
  -86.0693   26.6339    2.1644 O   0  0  0  0  0  0  0  0  0  0  0  0
  -83.0598   26.9341    2.2127 H   0  0  0  0  0  0  0  0  0  0  0  0
  -84.8687   29.9598    2.2500 C   0  0  0  0  0  0  0  0  0  0  0  0
  -84.6446   31.9839    0.7811 C   0  0  0  0  0  0  0  0  0  0  0  0
  -83.9812   30.9934    1.7062 C   0  0  0  0  0  0  0  0  0  0  0  0
  -82.6171   30.5546    1.2440 C   0  0  0  0  0  0  0  0  0  0  0  0
 21 22  1  0  0  0
 22 23  1  0  0  0
 22 20  1  0  0  0
 20 15  1  0  0  0
 15  1  1  0  0  0
  1  2  1  0  0  0
  2  3  2  0  0  0
  2  5  1  0  0  0
  5  6  1  0  0  0
  5  8  1  0  0  0
  8  9  1  0  0  0
  9 10  2  0  0  0
 10 11  1  0  0  0
 11 12  2  0  0  0
 12 13  1  0  0  0
 13 14  2  0  0  0
 15 16  1  0  0  0
 16 17  1  0  0  0
 16 18  2  0  0  0
 14  9  1  0  0  0
  1  4  1  0  0  0
  6  7  1  0  0  0
 17 19  1  0  0  0
M  END
> <minimizedAffinity>
-6.75419

> <CNNscore>
0.3359462321

> <CNNaffinity>
5.4025449753

> <CNN_VS>
1.8149646521

> <CNNaffinity_variance>
0.2814806998

$$$$
[H]OC(=O)[C@@]([H])(N([H])C(=O)[C@@]([H])(S[H])C([H])([H])c1c([H])c([H])c([H])c([H])c1[H])C([H])([H])C([H])(C([H])([H])[H])C([H])([H])[H]


 23 23  0  0  0  0  0  0  0  0999 V2000
  -86.6729   28.8246    1.1696 N   0  0  0  0  0  0  0  0  0  0  0  0
  -87.1927   29.2493   -0.0652 C   0  0  0  0  0  0  0  0  0  0  0  0
  -86.4077   29.6730   -0.9697 O   0  0  0  0  0  0  0  0  0  0  0  0
  -87.3006   28.4791    1.9075 H   0  0  0  0  0  0  0  0  0  0  0  0
  -88.6312   29.2125   -0.3301 C   0  0  0  0  0  0  0  0  0  0  0  0
  -89.3737   27.8102    0.5280 S   0  0  0  0  0  0  0  0  0  0  0  0
  -89.4207   28.1558    1.9097 H   0  0  0  0  0  0  0  0  0  0  0  0
  -89.3326   30.5109    0.0023 C   0  0  0  0  0  0  0  0  0  0  0  0
  -89.4092   31.4152   -1.1538 C   0  0  0  0  0  0  0  0  0  0  0  0
  -88.9553   32.7038   -1.0262 C   0  0  0  0  0  0  0  0  0  0  0  0
  -89.0352   33.5375   -2.1129 C   0  0  0  0  0  0  0  0  0  0  0  0
  -89.5486   33.1296   -3.3102 C   0  0  0  0  0  0  0  0  0  0  0  0
  -90.0111   31.8203   -3.4443 C   0  0  0  0  0  0  0  0  0  0  0  0
  -89.9323   30.9754   -2.3499 C   0  0  0  0  0  0  0  0  0  0  0  0
  -85.2340   28.8349    1.5071 C   0  0  0  0  0  0  0  0  0  0  0  0
  -84.9610   27.5490    2.1123 C   0  0  0  0  0  0  0  0  0  0  0  0
  -83.7363   27.2504    2.6818 O   0  0  0  0  0  0  0  0  0  0  0  0
  -85.8083   26.6196    2.1598 O   0  0  0  0  0  0  0  0  0  0  0  0
  -82.8603   27.2968    2.1652 H   0  0  0  0  0  0  0  0  0  0  0  0
  -85.0115   30.0704    2.2639 C   0  0  0  0  0  0  0  0  0  0  0  0
  -84.7844   32.1327    0.8496 C   0  0  0  0  0  0  0  0  0  0  0  0
  -84.1304   31.1364    1.7752 C   0  0  0  0  0  0  0  0  0  0  0  0
  -82.7410   30.7399    1.3518 C   0  0  0  0  0  0  0  0  0  0  0  0
 21 22  1  0  0  0
 22 23  1  0  0  0
 22 20  1  0  0  0
 20 15  1  0  0  0
 15  1  1  0  0  0
  1  2  1  0  0  0
  2  3  2  0  0  0
  2  5  1  0  0  0
  5  6  1  0  0  0
  5  8  1  0  0  0
  8  9  1  0  0  0
  9 10  2  0  0  0
 10 11  1  0  0  0
 11 12  2  0  0  0
 12 13  1  0  0  0
 13 14  2  0  0  0
 15 16  1  0  0  0
 16 17  1  0  0  0
 16 18  2  0  0  0
 14  9  1  0  0  0
  1  4  1  0  0  0
  6  7  1  0  0  0
 17 19  1  0  0  0
M  END
> <minimizedAffinity>
-6.30699

> <CNNscore>
0.2698199153

> <CNNaffinity>
5.3801388741

> <CNN_VS>
1.4516686201

> <CNNaffinity_variance>
0.1543707848

$$$$
[H]OC(=O)[C@@]([H])(N([H])C(=O)[C@@]([H])(S[H])C([H])([H])c1c([H])c([H])c([H])c([H])c1[H])C([H])([H])C([H])(C([H])([H])[H])C([H])([H])[H]


 23 23  0  0  0  0  0  0  0  0999 V2000
  -89.3173   27.0627   -0.1343 N   0  0  0  0  0  0  0  0  0  0  0  0
  -88.7750   28.2666    0.3470 C   0  0  0  0  0  0  0  0  0  0  0  0
  -89.4451   29.3422    0.2583 O   0  0  0  0  0  0  0  0  0  0  0  0
  -88.7826   26.1867   -0.0659 H   0  0  0  0  0  0  0  0  0  0  0  0
  -87.4436   28.3045    0.9525 C   0  0  0  0  0  0  0  0  0  0  0  0
  -87.0911   26.7255    1.7502 S   0  0  0  0  0  0  0  0  0  0  0  0
  -86.8237   25.7921    0.7070 H   0  0  0  0  0  0  0  0  0  0  0  0
  -86.3555   28.6975   -0.0223 C   0  0  0  0  0  0  0  0  0  0  0  0
  -85.4368   29.6970    0.5408 C   0  0  0  0  0  0  0  0  0  0  0  0
  -85.7186   31.0303    0.3797 C   0  0  0  0  0  0  0  0  0  0  0  0
  -84.8509   31.9522    0.9084 C   0  0  0  0  0  0  0  0  0  0  0  0
  -83.7226   31.5888    1.5856 C   0  0  0  0  0  0  0  0  0  0  0  0
  -83.4324   30.2344    1.7517 C   0  0  0  0  0  0  0  0  0  0  0  0
  -84.3055   29.3005    1.2197 C   0  0  0  0  0  0  0  0  0  0  0  0
  -90.6525   26.9497   -0.7579 C   0  0  0  0  0  0  0  0  0  0  0  0
  -91.4256   26.0938    0.1163 C   0  0  0  0  0  0  0  0  0  0  0  0
  -90.9529   25.6853    1.3505 O   0  0  0  0  0  0  0  0  0  0  0  0
  -92.5694   25.6620   -0.1826 O   0  0  0  0  0  0  0  0  0  0  0  0
  -90.0813   25.1722    1.4664 H   0  0  0  0  0  0  0  0  0  0  0  0
  -90.4102   26.5593   -2.1498 C   0  0  0  0  0  0  0  0  0  0  0  0
  -91.8071   28.4160   -3.1017 C   0  0  0  0  0  0  0  0  0  0  0  0
  -91.2696   27.0136   -3.2482 C   0  0  0  0  0  0  0  0  0  0  0  0
  -92.2788   26.0323   -3.7824 C   0  0  0  0  0  0  0  0  0  0  0  0
 21 22  1  0  0  0
 22 23  1  0  0  0
 22 20  1  0  0  0
 20 15  1  0  0  0
 15  1  1  0  0  0
  1  2  1  0  0  0
  2  3  2  0  0  0
  2  5  1  0  0  0
  5  6  1  0  0  0
  5  8  1  0  0  0
  8  9  1  0  0  0
  9 10  2  0  0  0
 10 11  1  0  0  0
 11 12  2  0  0  0
 12 13  1  0  0  0
 13 14  2  0  0  0
 15 16  1  0  0  0
 16 17  1  0  0  0
 16 18  2  0  0  0
 14  9  1  0  0  0
  1  4  1  0  0  0
  6  7  1  0  0  0
 17 19  1  0  0  0
M  END
> <minimizedAffinity>
-5.83766

> <CNNscore>
0.1987863183

> <CNNaffinity>
4.7665262222

> <CNN_VS>
0.9475201964

> <CNNaffinity_variance>
0.2502495944

$$$$
[H]OC(=O)[C@@]([H])(N([H])C(=O)[C@@]([H])(S[H])C([H])([H])c1c([H])c([H])c([H])c([H])c1[H])C([H])([H])C([H])(C([H])([H])[H])C([H])([H])[H]


 23 23  0  0  0  0  0  0  0  0999 V2000
  -87.1056   29.4486   -0.4491 N   0  0  0  0  0  0  0  0  0  0  0  0
  -85.9074   30.0140    0.0201 C   0  0  0  0  0  0  0  0  0  0  0  0
  -84.8092   29.3979   -0.1475 O   0  0  0  0  0  0  0  0  0  0  0  0
  -87.9994   29.9404   -0.3188 H   0  0  0  0  0  0  0  0  0  0  0  0
  -85.9016   31.3080    0.7030 C   0  0  0  0  0  0  0  0  0  0  0  0
  -84.8757   31.2117    2.1836 S   0  0  0  0  0  0  0  0  0  0  0  0
  -83.5211   31.1986    1.7412 H   0  0  0  0  0  0  0  0  0  0  0  0
  -85.4887   32.4542   -0.1938 C   0  0  0  0  0  0  0  0  0  0  0  0
  -86.6001   32.9419   -1.0228 C   0  0  0  0  0  0  0  0  0  0  0  0
  -87.8886   32.6460   -0.6553 C   0  0  0  0  0  0  0  0  0  0  0  0
  -88.9160   33.1057   -1.4398 C   0  0  0  0  0  0  0  0  0  0  0  0
  -88.6997   33.8436   -2.5678 C   0  0  0  0  0  0  0  0  0  0  0  0
  -87.3913   34.1468   -2.9450 C   0  0  0  0  0  0  0  0  0  0  0  0
  -86.3513   33.6848   -2.1560 C   0  0  0  0  0  0  0  0  0  0  0  0
  -87.1873   28.1472   -1.1451 C   0  0  0  0  0  0  0  0  0  0  0  0
  -87.8898   28.4053   -2.3837 C   0  0  0  0  0  0  0  0  0  0  0  0
  -88.7722   27.4918   -2.9318 O   0  0  0  0  0  0  0  0  0  0  0  0
  -87.7468   29.4665   -3.0451 O   0  0  0  0  0  0  0  0  0  0  0  0
  -88.5030   26.5406   -3.1752 H   0  0  0  0  0  0  0  0  0  0  0  0
  -87.7373   27.2057   -0.1655 C   0  0  0  0  0  0  0  0  0  0  0  0
  -88.3560   27.2302    2.2679 C   0  0  0  0  0  0  0  0  0  0  0  0
  -88.7087   27.6187    0.8531 C   0  0  0  0  0  0  0  0  0  0  0  0
  -90.1672   27.4423    0.5236 C   0  0  0  0  0  0  0  0  0  0  0  0
 21 22  1  0  0  0
 22 23  1  0  0  0
 22 20  1  0  0  0
 20 15  1  0  0  0
 15  1  1  0  0  0
  1  2  1  0  0  0
  2  3  2  0  0  0
  2  5  1  0  0  0
  5  6  1  0  0  0
  5  8  1  0  0  0
  8  9  1  0  0  0
  9 10  2  0  0  0
 10 11  1  0  0  0
 11 12  2  0  0  0
 12 13  1  0  0  0
 13 14  2  0  0  0
 15 16  1  0  0  0
 16 17  1  0  0  0
 16 18  2  0  0  0
 14  9  1  0  0  0
  1  4  1  0  0  0
  6  7  1  0  0  0
 17 19  1  0  0  0
M  END
> <minimizedAffinity>
-6.21355

> <CNNscore>
0.1815741509

> <CNNaffinity>
4.9954729080

> <CNN_VS>
0.9070487618

> <CNNaffinity_variance>
0.1775197387

$$$$
[H]c1nc(N([H])[H])c(-c2nn(-c3c(Cl)c(OC([H])([H])[H])c([H])c(OC([H])([H])[H])c3Cl)c(=O)c([H])c2[H])nc1-c1c([H])nn(C2([H])C([H])([H])C([H])([H])N(C([H])([H])[H])C([H])([H])C2([H])[H])c1[H]


 40 44  0  0  0  0  0  0  0  0999 V2000
  -86.2606   31.1619   -0.3837 C   0  0  0  0  0  0  0  0  0  0  0  0
  -86.9581   31.2113   -1.5285 N   0  0  0  0  0  0  0  0  0  0  0  0
  -87.0641   32.3726   -2.2181 C   0  0  0  0  0  0  0  0  0  0  0  0
  -86.4704   33.5362   -1.7827 C   0  0  0  0  0  0  0  0  0  0  0  0
  -85.7721   33.4810   -0.6343 N   0  0  0  0  0  0  0  0  0  0  0  0
  -85.6649   32.3242    0.0552 C   0  0  0  0  0  0  0  0  0  0  0  0
  -84.9279   32.2345    1.2813 N   0  0  0  0  0  0  0  0  0  0  0  0
  -83.8888   32.1135    1.2396 H   0  0  0  0  0  0  0  0  0  0  0  0
  -85.3944   32.2859    2.2116 H   0  0  0  0  0  0  0  0  0  0  0  0
  -87.1223   27.8895    1.1007 N   0  0  0  0  0  0  0  0  0  0  0  0
  -87.1757   29.0378    0.4489 N   0  0  0  0  0  0  0  0  0  0  0  0
  -86.1543   29.9016    0.3477 C   0  0  0  0  0  0  0  0  0  0  0  0
  -84.9716   29.5690    0.9645 C   0  0  0  0  0  0  0  0  0  0  0  0
  -84.9166   28.3720    1.6437 C   0  0  0  0  0  0  0  0  0  0  0  0
  -85.9964   27.5029    1.7263 C   0  0  0  0  0  0  0  0  0  0  0  0
  -85.9145   26.4056    2.3604 O   0  0  0  0  0  0  0  0  0  0  0  0
  -89.5841   25.3655    0.0703 C   0  0  0  0  0  0  0  0  0  0  0  0
  -90.4261   25.3482    1.1705 C   0  0  0  0  0  0  0  0  0  0  0  0
  -90.2172   26.1540    2.2749 C   0  0  0  0  0  0  0  0  0  0  0  0
  -89.1187   26.9900    2.2371 C   0  0  0  0  0  0  0  0  0  0  0  0
  -88.8044   28.0329    3.6083 Cl  0  0  0  0  0  0  0  0  0  0  0  0
  -88.2614   27.0311    1.1570 C   0  0  0  0  0  0  0  0  0  0  0  0
  -88.4925   26.2145    0.0640 C   0  0  0  0  0  0  0  0  0  0  0  0
  -87.4339   26.2444   -1.3056 Cl  0  0  0  0  0  0  0  0  0  0  0  0
  -89.9437   23.1733   -0.8377 C   0  0  0  0  0  0  0  0  0  0  0  0
  -89.7843   24.5616   -1.0426 O   0  0  0  0  0  0  0  0  0  0  0  0
  -91.0301   26.1649    3.3844 O   0  0  0  0  0  0  0  0  0  0  0  0
  -90.7016   25.6379    4.6315 C   0  0  0  0  0  0  0  0  0  0  0  0
  -87.8332   32.3699   -3.4541 C   0  0  0  0  0  0  0  0  0  0  0  0
  -87.8440   31.4138   -4.4390 C   0  0  0  0  0  0  0  0  0  0  0  0
  -88.6866   31.8155   -5.3825 N   0  0  0  0  0  0  0  0  0  0  0  0
  -89.2293   32.9882   -5.0651 N   0  0  0  0  0  0  0  0  0  0  0  0
  -88.7191   33.3609   -3.8706 C   0  0  0  0  0  0  0  0  0  0  0  0
  -90.2001   33.7199   -5.8803 C   0  0  0  0  0  0  0  0  0  0  0  0
  -91.4731   33.7847   -5.0703 C   0  0  0  0  0  0  0  0  0  0  0  0
  -92.4796   34.7363   -5.6246 C   0  0  0  0  0  0  0  0  0  0  0  0
  -92.0382   35.4628   -6.7718 N   0  0  0  0  0  0  0  0  0  0  0  0
  -92.2114   34.7609   -8.0168 C   0  0  0  0  0  0  0  0  0  0  0  0
  -90.7359   36.0560   -6.6178 C   0  0  0  0  0  0  0  0  0  0  0  0
  -89.6916   35.1068   -6.1328 C   0  0  0  0  0  0  0  0  0  0  0  0
 25 26  1  0  0  0
 26 17  1  0  0  0
 17 18  2  0  0  0
 18 19  1  0  0  0
 19 27  1  0  0  0
 27 28  1  0  0  0
 19 20  2  0  0  0
 20 21  1  0  0  0
 20 22  1  0  0  0
 22 23  2  0  0  0
 23 24  1  0  0  0
 22 10  1  0  0  0
 10 11  1  0  0  0
 11 12  2  0  0  0
 12 13  1  0  0  0
 13 14  2  0  0  0
 14 15  1  0  0  0
 15 16  2  0  0  0
 12  1  1  0  0  0
  1  2  2  0  0  0
  2  3  1  0  0  0
  3  4  2  0  0  0
  4  5  1  0  0  0
  5  6  2  0  0  0
  6  7  1  0  0  0
  3 29  1  0  0  0
 29 30  1  0  0  0
 30 31  2  0  0  0
 31 32  1  0  0  0
 32 33  1  0  0  0
 32 34  1  0  0  0
 34 35  1  0  0  0
 35 36  1  0  0  0
 36 37  1  0  0  0
 37 38  1  0  0  0
 37 39  1  0  0  0
 39 40  1  0  0  0
 23 17  1  0  0  0
 15 10  1  0  0  0
  6  1  1  0  0  0
 33 29  2  0  0  0
 40 34  1  0  0  0
  7  8  1  0  0  0
  7  9  1  0  0  0
M  END
> <minimizedAffinity>
-8.26514

> <CNNscore>
0.0727735013

> <CNNaffinity>
7.0241823196

> <CNN_VS>
0.5111743212

> <CNNaffinity_variance>
0.4464084506

$$$$
[H]c1nc(N([H])[H])c(-c2nn(-c3c(Cl)c(OC([H])([H])[H])c([H])c(OC([H])([H])[H])c3Cl)c(=O)c([H])c2[H])nc1-c1c([H])nn(C2([H])C([H])([H])C([H])([H])N(C([H])([H])[H])C([H])([H])C2([H])[H])c1[H]


 40 44  0  0  0  0  0  0  0  0999 V2000
  -86.2688   31.2173   -0.2850 C   0  0  0  0  0  0  0  0  0  0  0  0
  -87.0536   31.3198   -1.3682 N   0  0  0  0  0  0  0  0  0  0  0  0
  -87.1654   32.4990   -2.0257 C   0  0  0  0  0  0  0  0  0  0  0  0
  -86.4897   33.6278   -1.6190 C   0  0  0  0  0  0  0  0  0  0  0  0
  -85.7041   33.5195   -0.5324 N   0  0  0  0  0  0  0  0  0  0  0  0
  -85.5909   32.3446    0.1250 C   0  0  0  0  0  0  0  0  0  0  0  0
  -84.7621   32.1986    1.2852 N   0  0  0  0  0  0  0  0  0  0  0  0
  -83.7358   32.0362    1.1569 H   0  0  0  0  0  0  0  0  0  0  0  0
  -85.1495   32.2489    2.2511 H   0  0  0  0  0  0  0  0  0  0  0  0
  -87.0979   27.8774    1.0612 N   0  0  0  0  0  0  0  0  0  0  0  0
  -87.1566   29.0435    0.4423 N   0  0  0  0  0  0  0  0  0  0  0  0
  -86.1575   29.9383    0.4124 C   0  0  0  0  0  0  0  0  0  0  0  0
  -84.9935   29.6199    1.0707 C   0  0  0  0  0  0  0  0  0  0  0  0
  -84.9330   28.4043    1.7155 C   0  0  0  0  0  0  0  0  0  0  0  0
  -85.9893   27.5031    1.7242 C   0  0  0  0  0  0  0  0  0  0  0  0
  -85.9029   26.3893    2.3282 O   0  0  0  0  0  0  0  0  0  0  0  0
  -90.1270   26.1289    2.1836 C   0  0  0  0  0  0  0  0  0  0  0  0
  -90.3790   25.3063    1.0975 C   0  0  0  0  0  0  0  0  0  0  0  0
  -89.5738   25.2976   -0.0267 C   0  0  0  0  0  0  0  0  0  0  0  0
  -88.4912   26.1549   -0.0240 C   0  0  0  0  0  0  0  0  0  0  0  0
  -87.4366   26.1867   -1.4217 Cl  0  0  0  0  0  0  0  0  0  0  0  0
  -88.2127   26.9861    1.0412 C   0  0  0  0  0  0  0  0  0  0  0  0
  -89.0342   26.9760    2.1547 C   0  0  0  0  0  0  0  0  0  0  0  0
  -88.7097   28.0080    3.5062 Cl  0  0  0  0  0  0  0  0  0  0  0  0
  -90.7216   25.1431    4.2894 C   0  0  0  0  0  0  0  0  0  0  0  0
  -90.9281   26.1457    3.3162 O   0  0  0  0  0  0  0  0  0  0  0  0
  -89.7916   24.4961   -1.1231 O   0  0  0  0  0  0  0  0  0  0  0  0
  -90.0213   23.1225   -1.0865 C   0  0  0  0  0  0  0  0  0  0  0  0
  -88.0310   32.5543   -3.1948 C   0  0  0  0  0  0  0  0  0  0  0  0
  -87.8803   31.8927   -4.3881 C   0  0  0  0  0  0  0  0  0  0  0  0
  -88.8974   32.2335   -5.1698 N   0  0  0  0  0  0  0  0  0  0  0  0
  -89.7080   33.0859   -4.5482 N   0  0  0  0  0  0  0  0  0  0  0  0
  -89.1971   33.3064   -3.3167 C   0  0  0  0  0  0  0  0  0  0  0  0
  -90.9256   33.6648   -5.1181 C   0  0  0  0  0  0  0  0  0  0  0  0
  -90.5305   34.2638   -6.4470 C   0  0  0  0  0  0  0  0  0  0  0  0
  -91.6975   34.6469   -7.2940 C   0  0  0  0  0  0  0  0  0  0  0  0
  -92.9689   34.3179   -6.7336 N   0  0  0  0  0  0  0  0  0  0  0  0
  -93.4809   35.3013   -5.8153 C   0  0  0  0  0  0  0  0  0  0  0  0
  -93.0554   32.9674   -6.2433 C   0  0  0  0  0  0  0  0  0  0  0  0
  -91.9371   32.5804   -5.3342 C   0  0  0  0  0  0  0  0  0  0  0  0
 25 26  1  0  0  0
 26 17  1  0  0  0
 17 18  2  0  0  0
 18 19  1  0  0  0
 19 27  1  0  0  0
 27 28  1  0  0  0
 19 20  2  0  0  0
 20 21  1  0  0  0
 20 22  1  0  0  0
 22 23  2  0  0  0
 23 24  1  0  0  0
 22 10  1  0  0  0
 10 11  1  0  0  0
 11 12  2  0  0  0
 12 13  1  0  0  0
 13 14  2  0  0  0
 14 15  1  0  0  0
 15 16  2  0  0  0
 12  1  1  0  0  0
  1  2  2  0  0  0
  2  3  1  0  0  0
  3  4  2  0  0  0
  4  5  1  0  0  0
  5  6  2  0  0  0
  6  7  1  0  0  0
  3 29  1  0  0  0
 29 30  1  0  0  0
 30 31  2  0  0  0
 31 32  1  0  0  0
 32 33  1  0  0  0
 32 34  1  0  0  0
 34 35  1  0  0  0
 35 36  1  0  0  0
 36 37  1  0  0  0
 37 38  1  0  0  0
 37 39  1  0  0  0
 39 40  1  0  0  0
 23 17  1  0  0  0
 15 10  1  0  0  0
  6  1  1  0  0  0
 33 29  2  0  0  0
 40 34  1  0  0  0
  7  8  1  0  0  0
  7  9  1  0  0  0
M  END
> <minimizedAffinity>
-8.22419

> <CNNscore>
0.0616760179

> <CNNaffinity>
6.9636430740

> <CNN_VS>
0.4294897616

> <CNNaffinity_variance>
0.4447001815

$$$$
[H]c1nc(N([H])[H])c(-c2nn(-c3c(Cl)c(OC([H])([H])[H])c([H])c(OC([H])([H])[H])c3Cl)c(=O)c([H])c2[H])nc1-c1c([H])nn(C2([H])C([H])([H])C([H])([H])N(C([H])([H])[H])C([H])([H])C2([H])[H])c1[H]


 40 44  0  0  0  0  0  0  0  0999 V2000
  -86.3966   31.3453   -0.2605 C   0  0  0  0  0  0  0  0  0  0  0  0
  -87.4358   31.5599   -1.0812 N   0  0  0  0  0  0  0  0  0  0  0  0
  -87.5766   32.7497   -1.7138 C   0  0  0  0  0  0  0  0  0  0  0  0
  -86.6743   33.7763   -1.5459 C   0  0  0  0  0  0  0  0  0  0  0  0
  -85.6342   33.5557   -0.7219 N   0  0  0  0  0  0  0  0  0  0  0  0
  -85.4915   32.3701   -0.0900 C   0  0  0  0  0  0  0  0  0  0  0  0
  -84.3942   32.1059    0.7935 N   0  0  0  0  0  0  0  0  0  0  0  0
  -83.4758   31.8115    0.3861 H   0  0  0  0  0  0  0  0  0  0  0  0
  -84.4828   32.1977    1.8276 H   0  0  0  0  0  0  0  0  0  0  0  0
  -87.1636   27.9755    1.0475 N   0  0  0  0  0  0  0  0  0  0  0  0
  -87.2470   29.1509    0.4493 N   0  0  0  0  0  0  0  0  0  0  0  0
  -86.2578   30.0564    0.4133 C   0  0  0  0  0  0  0  0  0  0  0  0
  -85.0771   29.7394    1.0418 C   0  0  0  0  0  0  0  0  0  0  0  0
  -84.9908   28.5142    1.6651 C   0  0  0  0  0  0  0  0  0  0  0  0
  -86.0376   27.6020    1.6809 C   0  0  0  0  0  0  0  0  0  0  0  0
  -85.9273   26.4795    2.2646 O   0  0  0  0  0  0  0  0  0  0  0  0
  -90.1595   26.1885    2.1981 C   0  0  0  0  0  0  0  0  0  0  0  0
  -90.4180   25.3712    1.1095 C   0  0  0  0  0  0  0  0  0  0  0  0
  -89.6281   25.3787   -0.0256 C   0  0  0  0  0  0  0  0  0  0  0  0
  -88.5542   26.2468   -0.0313 C   0  0  0  0  0  0  0  0  0  0  0  0
  -87.5192   26.2994   -1.4429 Cl  0  0  0  0  0  0  0  0  0  0  0  0
  -88.2696   27.0732    1.0361 C   0  0  0  0  0  0  0  0  0  0  0  0
  -89.0757   27.0467    2.1605 C   0  0  0  0  0  0  0  0  0  0  0  0
  -88.7432   28.0723    3.5151 Cl  0  0  0  0  0  0  0  0  0  0  0  0
  -90.6176   25.2798    4.3715 C   0  0  0  0  0  0  0  0  0  0  0  0
  -90.9452   26.1890    3.3415 O   0  0  0  0  0  0  0  0  0  0  0  0
  -89.8528   24.5829   -1.1248 O   0  0  0  0  0  0  0  0  0  0  0  0
  -90.8441   24.7886   -2.0817 C   0  0  0  0  0  0  0  0  0  0  0  0
  -88.7230   32.9289   -2.5929 C   0  0  0  0  0  0  0  0  0  0  0  0
  -89.0331   34.0225   -3.3625 C   0  0  0  0  0  0  0  0  0  0  0  0
  -90.1637   33.7566   -4.0048 N   0  0  0  0  0  0  0  0  0  0  0  0
  -90.6107   32.5424   -3.6946 N   0  0  0  0  0  0  0  0  0  0  0  0
  -89.7368   32.0005   -2.8178 C   0  0  0  0  0  0  0  0  0  0  0  0
  -91.8308   31.9293   -4.2218 C   0  0  0  0  0  0  0  0  0  0  0  0
  -92.1708   32.6787   -5.4882 C   0  0  0  0  0  0  0  0  0  0  0  0
  -93.2218   32.0089   -6.3083 C   0  0  0  0  0  0  0  0  0  0  0  0
  -93.6656   30.7541   -5.7914 N   0  0  0  0  0  0  0  0  0  0  0  0
  -94.6982   30.8593   -4.7937 C   0  0  0  0  0  0  0  0  0  0  0  0
  -92.5943   29.8657   -5.4245 C   0  0  0  0  0  0  0  0  0  0  0  0
  -91.5646   30.4900   -4.5433 C   0  0  0  0  0  0  0  0  0  0  0  0
 25 26  1  0  0  0
 26 17  1  0  0  0
 17 18  2  0  0  0
 18 19  1  0  0  0
 19 27  1  0  0  0
 27 28  1  0  0  0
 19 20  2  0  0  0
 20 21  1  0  0  0
 20 22  1  0  0  0
 22 23  2  0  0  0
 23 24  1  0  0  0
 22 10  1  0  0  0
 10 11  1  0  0  0
 11 12  2  0  0  0
 12 13  1  0  0  0
 13 14  2  0  0  0
 14 15  1  0  0  0
 15 16  2  0  0  0
 12  1  1  0  0  0
  1  2  2  0  0  0
  2  3  1  0  0  0
  3  4  2  0  0  0
  4  5  1  0  0  0
  5  6  2  0  0  0
  6  7  1  0  0  0
  3 29  1  0  0  0
 29 30  1  0  0  0
 30 31  2  0  0  0
 31 32  1  0  0  0
 32 33  1  0  0  0
 32 34  1  0  0  0
 34 35  1  0  0  0
 35 36  1  0  0  0
 36 37  1  0  0  0
 37 38  1  0  0  0
 37 39  1  0  0  0
 39 40  1  0  0  0
 23 17  1  0  0  0
 15 10  1  0  0  0
  6  1  1  0  0  0
 33 29  2  0  0  0
 40 34  1  0  0  0
  7  8  1  0  0  0
  7  9  1  0  0  0
M  END
> <minimizedAffinity>
-8.36196

> <CNNscore>
0.0490001179

> <CNNaffinity>
7.0031747818

> <CNN_VS>
0.3431563973

> <CNNaffinity_variance>
0.4520162940

$$$$
[H]c1nc(N([H])[H])c(-c2nn(-c3c(Cl)c(OC([H])([H])[H])c([H])c(OC([H])([H])[H])c3Cl)c(=O)c([H])c2[H])nc1-c1c([H])nn(C2([H])C([H])([H])C([H])([H])N(C([H])([H])[H])C([H])([H])C2([H])[H])c1[H]


 40 44  0  0  0  0  0  0  0  0999 V2000
  -88.6575   32.4210   -2.6986 C   0  0  0  0  0  0  0  0  0  0  0  0
  -89.3961   31.5167   -2.0381 N   0  0  0  0  0  0  0  0  0  0  0  0
  -88.8586   30.8034   -1.0194 C   0  0  0  0  0  0  0  0  0  0  0  0
  -87.5509   30.9712   -0.6219 C   0  0  0  0  0  0  0  0  0  0  0  0
  -86.8148   31.8793   -1.2876 N   0  0  0  0  0  0  0  0  0  0  0  0
  -87.3486   32.5919   -2.3037 C   0  0  0  0  0  0  0  0  0  0  0  0
  -86.5893   33.5659   -3.0313 N   0  0  0  0  0  0  0  0  0  0  0  0
  -86.4841   34.5276   -2.6311 H   0  0  0  0  0  0  0  0  0  0  0  0
  -86.1396   33.3461   -3.9451 H   0  0  0  0  0  0  0  0  0  0  0  0
  -89.7686   35.2517   -4.7979 N   0  0  0  0  0  0  0  0  0  0  0  0
  -89.2423   34.5245   -3.8282 N   0  0  0  0  0  0  0  0  0  0  0  0
  -89.2520   33.1834   -3.7940 C   0  0  0  0  0  0  0  0  0  0  0  0
  -89.8505   32.5211   -4.8393 C   0  0  0  0  0  0  0  0  0  0  0  0
  -90.3989   33.2797   -5.8498 C   0  0  0  0  0  0  0  0  0  0  0  0
  -90.3692   34.6679   -5.8501 C   0  0  0  0  0  0  0  0  0  0  0  0
  -90.8839   35.3398   -6.7969 O   0  0  0  0  0  0  0  0  0  0  0  0
  -88.4593   38.6600   -5.2003 C   0  0  0  0  0  0  0  0  0  0  0  0
  -89.5105   39.4112   -4.6998 C   0  0  0  0  0  0  0  0  0  0  0  0
  -90.6709   38.8323   -4.2194 C   0  0  0  0  0  0  0  0  0  0  0  0
  -90.7416   37.4537   -4.2588 C   0  0  0  0  0  0  0  0  0  0  0  0
  -92.1878   36.6656   -3.6638 Cl  0  0  0  0  0  0  0  0  0  0  0  0
  -89.7128   36.6773   -4.7506 C   0  0  0  0  0  0  0  0  0  0  0  0
  -88.5619   37.2812   -5.2257 C   0  0  0  0  0  0  0  0  0  0  0  0
  -87.2545   36.3326   -5.8488 Cl  0  0  0  0  0  0  0  0  0  0  0  0
  -86.3558   39.7231   -4.7479 C   0  0  0  0  0  0  0  0  0  0  0  0
  -87.2910   39.2304   -5.6846 O   0  0  0  0  0  0  0  0  0  0  0  0
  -91.7345   39.5440   -3.7153 O   0  0  0  0  0  0  0  0  0  0  0  0
  -92.9607   39.7232   -4.3519 C   0  0  0  0  0  0  0  0  0  0  0  0
  -89.7048   29.8351   -0.3373 C   0  0  0  0  0  0  0  0  0  0  0  0
  -91.0451   29.6056   -0.5254 C   0  0  0  0  0  0  0  0  0  0  0  0
  -91.4092   28.6363    0.3050 N   0  0  0  0  0  0  0  0  0  0  0  0
  -90.3738   28.2185    1.0286 N   0  0  0  0  0  0  0  0  0  0  0  0
  -89.2976   28.9445    0.6533 C   0  0  0  0  0  0  0  0  0  0  0  0
  -90.4198   27.1624    2.0411 C   0  0  0  0  0  0  0  0  0  0  0  0
  -89.0114   26.6319    2.1672 C   0  0  0  0  0  0  0  0  0  0  0  0
  -88.8160   25.7473    3.3526 C   0  0  0  0  0  0  0  0  0  0  0  0
  -89.9655   25.6166    4.1894 N   0  0  0  0  0  0  0  0  0  0  0  0
  -90.8982   24.6088    3.7569 C   0  0  0  0  0  0  0  0  0  0  0  0
  -90.5841   26.8717    4.5264 C   0  0  0  0  0  0  0  0  0  0  0  0
  -90.8576   27.7474    3.3495 C   0  0  0  0  0  0  0  0  0  0  0  0
 25 26  1  0  0  0
 26 17  1  0  0  0
 17 18  2  0  0  0
 18 19  1  0  0  0
 19 27  1  0  0  0
 27 28  1  0  0  0
 19 20  2  0  0  0
 20 21  1  0  0  0
 20 22  1  0  0  0
 22 23  2  0  0  0
 23 24  1  0  0  0
 22 10  1  0  0  0
 10 11  1  0  0  0
 11 12  2  0  0  0
 12 13  1  0  0  0
 13 14  2  0  0  0
 14 15  1  0  0  0
 15 16  2  0  0  0
 12  1  1  0  0  0
  1  2  2  0  0  0
  2  3  1  0  0  0
  3  4  2  0  0  0
  4  5  1  0  0  0
  5  6  2  0  0  0
  6  7  1  0  0  0
  3 29  1  0  0  0
 29 30  1  0  0  0
 30 31  2  0  0  0
 31 32  1  0  0  0
 32 33  1  0  0  0
 32 34  1  0  0  0
 34 35  1  0  0  0
 35 36  1  0  0  0
 36 37  1  0  0  0
 37 38  1  0  0  0
 37 39  1  0  0  0
 39 40  1  0  0  0
 23 17  1  0  0  0
 15 10  1  0  0  0
  6  1  1  0  0  0
 33 29  2  0  0  0
 40 34  1  0  0  0
  7  8  1  0  0  0
  7  9  1  0  0  0
M  END
> <minimizedAffinity>
-7.24322

> <CNNscore>
0.0484776795

> <CNNaffinity>
6.3325977325

> <CNN_VS>
0.3069896400

> <CNNaffinity_variance>
0.2417684495

$$$$
[H]c1nc(N([H])[H])c(-c2nn(-c3c(Cl)c(OC([H])([H])[H])c([H])c(OC([H])([H])[H])c3Cl)c(=O)c([H])c2[H])nc1-c1c([H])nn(C2([H])C([H])([H])C([H])([H])N(C([H])([H])[H])C([H])([H])C2([H])[H])c1[H]


 40 44  0  0  0  0  0  0  0  0999 V2000
  -86.3021   31.3047   -0.1425 C   0  0  0  0  0  0  0  0  0  0  0  0
  -87.3430   31.5502   -0.9524 N   0  0  0  0  0  0  0  0  0  0  0  0
  -87.4671   32.7518   -1.5657 C   0  0  0  0  0  0  0  0  0  0  0  0
  -86.5456   33.7596   -1.3887 C   0  0  0  0  0  0  0  0  0  0  0  0
  -85.5038   33.5081   -0.5757 N   0  0  0  0  0  0  0  0  0  0  0  0
  -85.3779   32.3107    0.0370 C   0  0  0  0  0  0  0  0  0  0  0  0
  -84.2793   32.0136    0.9085 N   0  0  0  0  0  0  0  0  0  0  0  0
  -83.3691   31.7093    0.4900 H   0  0  0  0  0  0  0  0  0  0  0  0
  -84.3591   32.0910    1.9445 H   0  0  0  0  0  0  0  0  0  0  0  0
  -87.0756   27.8835    1.0202 N   0  0  0  0  0  0  0  0  0  0  0  0
  -87.1439   29.0710    0.4444 N   0  0  0  0  0  0  0  0  0  0  0  0
  -86.1816   30.0033    0.5105 C   0  0  0  0  0  0  0  0  0  0  0  0
  -85.0472   29.7023    1.2263 C   0  0  0  0  0  0  0  0  0  0  0  0
  -84.9767   28.4645    1.8262 C   0  0  0  0  0  0  0  0  0  0  0  0
  -85.9946   27.5245    1.7352 C   0  0  0  0  0  0  0  0  0  0  0  0
  -85.8999   26.3909    2.2999 O   0  0  0  0  0  0  0  0  0  0  0  0
  -89.3029   25.3763   -0.4783 C   0  0  0  0  0  0  0  0  0  0  0  0
  -90.1857   25.1454    0.5643 C   0  0  0  0  0  0  0  0  0  0  0  0
  -90.0814   25.7963    1.7801 C   0  0  0  0  0  0  0  0  0  0  0  0
  -89.0461   26.6999    1.9159 C   0  0  0  0  0  0  0  0  0  0  0  0
  -88.8650   27.5535    3.4342 Cl  0  0  0  0  0  0  0  0  0  0  0  0
  -88.1506   26.9524    0.8973 C   0  0  0  0  0  0  0  0  0  0  0  0
  -88.2766   26.2878   -0.3098 C   0  0  0  0  0  0  0  0  0  0  0  0
  -87.1678   26.5842   -1.6060 Cl  0  0  0  0  0  0  0  0  0  0  0  0
  -90.3599   23.7034   -1.8361 C   0  0  0  0  0  0  0  0  0  0  0  0
  -89.3983   24.7290   -1.7018 O   0  0  0  0  0  0  0  0  0  0  0  0
  -90.9377   25.5938    2.8373 O   0  0  0  0  0  0  0  0  0  0  0  0
  -90.8880   24.5192    3.7225 C   0  0  0  0  0  0  0  0  0  0  0  0
  -88.6162   32.9647   -2.4336 C   0  0  0  0  0  0  0  0  0  0  0  0
  -88.9415   34.0956   -3.1405 C   0  0  0  0  0  0  0  0  0  0  0  0
  -90.0687   33.8510   -3.7971 N   0  0  0  0  0  0  0  0  0  0  0  0
  -90.4990   32.6153   -3.5559 N   0  0  0  0  0  0  0  0  0  0  0  0
  -89.6174   32.0368   -2.7108 C   0  0  0  0  0  0  0  0  0  0  0  0
  -91.7110   32.0164   -4.1172 C   0  0  0  0  0  0  0  0  0  0  0  0
  -91.9798   32.7379   -5.4165 C   0  0  0  0  0  0  0  0  0  0  0  0
  -93.0122   32.0702   -6.2617 C   0  0  0  0  0  0  0  0  0  0  0  0
  -93.5076   30.8410   -5.7301 N   0  0  0  0  0  0  0  0  0  0  0  0
  -94.5776   30.9982   -4.7799 C   0  0  0  0  0  0  0  0  0  0  0  0
  -92.4745   29.9384   -5.2948 C   0  0  0  0  0  0  0  0  0  0  0  0
  -91.4671   30.5629   -4.3883 C   0  0  0  0  0  0  0  0  0  0  0  0
 25 26  1  0  0  0
 26 17  1  0  0  0
 17 18  2  0  0  0
 18 19  1  0  0  0
 19 27  1  0  0  0
 27 28  1  0  0  0
 19 20  2  0  0  0
 20 21  1  0  0  0
 20 22  1  0  0  0
 22 23  2  0  0  0
 23 24  1  0  0  0
 22 10  1  0  0  0
 10 11  1  0  0  0
 11 12  2  0  0  0
 12 13  1  0  0  0
 13 14  2  0  0  0
 14 15  1  0  0  0
 15 16  2  0  0  0
 12  1  1  0  0  0
  1  2  2  0  0  0
  2  3  1  0  0  0
  3  4  2  0  0  0
  4  5  1  0  0  0
  5  6  2  0  0  0
  6  7  1  0  0  0
  3 29  1  0  0  0
 29 30  1  0  0  0
 30 31  2  0  0  0
 31 32  1  0  0  0
 32 33  1  0  0  0
 32 34  1  0  0  0
 34 35  1  0  0  0
 35 36  1  0  0  0
 36 37  1  0  0  0
 37 38  1  0  0  0
 37 39  1  0  0  0
 39 40  1  0  0  0
 23 17  1  0  0  0
 15 10  1  0  0  0
  6  1  1  0  0  0
 33 29  2  0  0  0
 40 34  1  0  0  0
  7  8  1  0  0  0
  7  9  1  0  0  0
M  END
> <minimizedAffinity>
-8.67537

> <CNNscore>
0.0469091460

> <CNNaffinity>
7.0513010025

> <CNN_VS>
0.3307705224

> <CNNaffinity_variance>
0.3529148102

$$$$
[H]c1nc(N([H])[H])c(-c2nn(-c3c(Cl)c(OC([H])([H])[H])c([H])c(OC([H])([H])[H])c3Cl)c(=O)c([H])c2[H])nc1-c1c([H])nn(C2([H])C([H])([H])C([H])([H])N(C([H])([H])[H])C([H])([H])C2([H])[H])c1[H]


 40 44  0  0  0  0  0  0  0  0999 V2000
  -88.0905   32.9608   -2.9329 C   0  0  0  0  0  0  0  0  0  0  0  0
  -89.2333   33.4234   -3.4618 N   0  0  0  0  0  0  0  0  0  0  0  0
  -89.4178   34.7536   -3.6406 C   0  0  0  0  0  0  0  0  0  0  0  0
  -88.4566   35.6765   -3.2933 C   0  0  0  0  0  0  0  0  0  0  0  0
  -87.3127   35.2071   -2.7635 N   0  0  0  0  0  0  0  0  0  0  0  0
  -87.1262   33.8811   -2.5843 C   0  0  0  0  0  0  0  0  0  0  0  0
  -85.9186   33.3515   -2.0224 N   0  0  0  0  0  0  0  0  0  0  0  0
  -85.0876   33.2164   -2.6447 H   0  0  0  0  0  0  0  0  0  0  0  0
  -85.8430   33.0972   -1.0148 H   0  0  0  0  0  0  0  0  0  0  0  0
  -87.4472   29.6873   -1.3437 N   0  0  0  0  0  0  0  0  0  0  0  0
  -87.6226   30.9801   -1.5543 N   0  0  0  0  0  0  0  0  0  0  0  0
  -87.9060   31.5233   -2.7478 C   0  0  0  0  0  0  0  0  0  0  0  0
  -88.0216   30.6769   -3.8248 C   0  0  0  0  0  0  0  0  0  0  0  0
  -87.8387   29.3296   -3.6045 C   0  0  0  0  0  0  0  0  0  0  0  0
  -87.5462   28.8041   -2.3530 C   0  0  0  0  0  0  0  0  0  0  0  0
  -87.3831   27.5563   -2.1818 O   0  0  0  0  0  0  0  0  0  0  0  0
  -87.9337   28.0979    1.9319 C   0  0  0  0  0  0  0  0  0  0  0  0
  -86.6683   28.2252    2.4816 C   0  0  0  0  0  0  0  0  0  0  0  0
  -85.6246   28.8292    1.8044 C   0  0  0  0  0  0  0  0  0  0  0  0
  -85.8981   29.3081    0.5384 C   0  0  0  0  0  0  0  0  0  0  0  0
  -84.6141   30.0824   -0.3663 Cl  0  0  0  0  0  0  0  0  0  0  0  0
  -87.1470   29.1972   -0.0371 C   0  0  0  0  0  0  0  0  0  0  0  0
  -88.1746   28.5883    0.6615 C   0  0  0  0  0  0  0  0  0  0  0  0
  -89.7521   28.4348   -0.0351 Cl  0  0  0  0  0  0  0  0  0  0  0  0
  -88.9528   26.0914    2.7657 C   0  0  0  0  0  0  0  0  0  0  0  0
  -88.9876   27.4939    2.6023 O   0  0  0  0  0  0  0  0  0  0  0  0
  -84.3563   28.9740    2.3166 O   0  0  0  0  0  0  0  0  0  0  0  0
  -83.5303   27.9328    2.7344 C   0  0  0  0  0  0  0  0  0  0  0  0
  -90.6769   35.2010   -4.2182 C   0  0  0  0  0  0  0  0  0  0  0  0
  -91.4638   34.5485   -5.1345 C   0  0  0  0  0  0  0  0  0  0  0  0
  -92.5170   35.3172   -5.3821 N   0  0  0  0  0  0  0  0  0  0  0  0
  -92.4601   36.4418   -4.6734 N   0  0  0  0  0  0  0  0  0  0  0  0
  -91.3268   36.4008   -3.9385 C   0  0  0  0  0  0  0  0  0  0  0  0
  -93.4574   37.5127   -4.7035 C   0  0  0  0  0  0  0  0  0  0  0  0
  -94.7096   36.9458   -4.0778 C   0  0  0  0  0  0  0  0  0  0  0  0
  -95.7378   37.9817   -3.7681 C   0  0  0  0  0  0  0  0  0  0  0  0
  -95.3319   39.3212   -4.0502 N   0  0  0  0  0  0  0  0  0  0  0  0
  -95.5314   39.7221   -5.4185 C   0  0  0  0  0  0  0  0  0  0  0  0
  -94.0309   39.6549   -3.5329 C   0  0  0  0  0  0  0  0  0  0  0  0
  -92.9668   38.6714   -3.8896 C   0  0  0  0  0  0  0  0  0  0  0  0
 25 26  1  0  0  0
 26 17  1  0  0  0
 17 18  2  0  0  0
 18 19  1  0  0  0
 19 27  1  0  0  0
 27 28  1  0  0  0
 19 20  2  0  0  0
 20 21  1  0  0  0
 20 22  1  0  0  0
 22 23  2  0  0  0
 23 24  1  0  0  0
 22 10  1  0  0  0
 10 11  1  0  0  0
 11 12  2  0  0  0
 12 13  1  0  0  0
 13 14  2  0  0  0
 14 15  1  0  0  0
 15 16  2  0  0  0
 12  1  1  0  0  0
  1  2  2  0  0  0
  2  3  1  0  0  0
  3  4  2  0  0  0
  4  5  1  0  0  0
  5  6  2  0  0  0
  6  7  1  0  0  0
  3 29  1  0  0  0
 29 30  1  0  0  0
 30 31  2  0  0  0
 31 32  1  0  0  0
 32 33  1  0  0  0
 32 34  1  0  0  0
 34 35  1  0  0  0
 35 36  1  0  0  0
 36 37  1  0  0  0
 37 38  1  0  0  0
 37 39  1  0  0  0
 39 40  1  0  0  0
 23 17  1  0  0  0
 15 10  1  0  0  0
  6  1  1  0  0  0
 33 29  2  0  0  0
 40 34  1  0  0  0
  7  8  1  0  0  0
  7  9  1  0  0  0
M  END
> <minimizedAffinity>
-7.08713

> <CNNscore>
0.0321695246

> <CNNaffinity>
6.4143385887

> <CNN_VS>
0.2063462287

> <CNNaffinity_variance>
0.3607947528

$$$$
[H]c1nc(N([H])[H])c(-c2nn(-c3c(Cl)c(OC([H])([H])[H])c([H])c(OC([H])([H])[H])c3Cl)c(=O)c([H])c2[H])nc1-c1c([H])nn(C2([H])C([H])([H])C([H])([H])N(C([H])([H])[H])C([H])([H])C2([H])[H])c1[H]


 40 44  0  0  0  0  0  0  0  0999 V2000
  -88.6540   31.6598   -1.9755 C   0  0  0  0  0  0  0  0  0  0  0  0
  -88.7454   32.6391   -2.8877 N   0  0  0  0  0  0  0  0  0  0  0  0
  -87.7566   33.5570   -3.0108 C   0  0  0  0  0  0  0  0  0  0  0  0
  -86.6311   33.5273   -2.2181 C   0  0  0  0  0  0  0  0  0  0  0  0
  -86.5445   32.5432   -1.3050 N   0  0  0  0  0  0  0  0  0  0  0  0
  -87.5292   31.6267   -1.1805 C   0  0  0  0  0  0  0  0  0  0  0  0
  -87.4652   30.5672   -0.2172 N   0  0  0  0  0  0  0  0  0  0  0  0
  -86.9180   29.7050   -0.4486 H   0  0  0  0  0  0  0  0  0  0  0  0
  -87.9461   30.6288    0.7050 H   0  0  0  0  0  0  0  0  0  0  0  0
  -90.5768   28.6813   -0.9332 N   0  0  0  0  0  0  0  0  0  0  0  0
  -89.6311   29.5942   -1.0692 N   0  0  0  0  0  0  0  0  0  0  0  0
  -89.7280   30.6765   -1.8559 C   0  0  0  0  0  0  0  0  0  0  0  0
  -90.8907   30.8469   -2.5692 C   0  0  0  0  0  0  0  0  0  0  0  0
  -91.8761   29.8951   -2.4270 C   0  0  0  0  0  0  0  0  0  0  0  0
  -91.7389   28.7868   -1.6018 C   0  0  0  0  0  0  0  0  0  0  0  0
  -92.6662   27.9260   -1.4917 O   0  0  0  0  0  0  0  0  0  0  0  0
  -89.7468   25.2672    0.1380 C   0  0  0  0  0  0  0  0  0  0  0  0
  -89.9921   25.3469    1.4993 C   0  0  0  0  0  0  0  0  0  0  0  0
  -90.4325   26.5094    2.1051 C   0  0  0  0  0  0  0  0  0  0  0  0
  -90.6212   27.6054    1.2863 C   0  0  0  0  0  0  0  0  0  0  0  0
  -91.1777   29.1051    1.9989 Cl  0  0  0  0  0  0  0  0  0  0  0  0
  -90.3862   27.5588   -0.0723 C   0  0  0  0  0  0  0  0  0  0  0  0
  -89.9457   26.3831   -0.6542 C   0  0  0  0  0  0  0  0  0  0  0  0
  -89.6425   26.2949   -2.3564 Cl  0  0  0  0  0  0  0  0  0  0  0  0
  -90.1208   22.9567   -0.3922 C   0  0  0  0  0  0  0  0  0  0  0  0
  -89.3049   24.1062   -0.4799 O   0  0  0  0  0  0  0  0  0  0  0  0
  -90.6866   26.6269    3.4517 O   0  0  0  0  0  0  0  0  0  0  0  0
  -90.6254   25.5887    4.3787 C   0  0  0  0  0  0  0  0  0  0  0  0
  -87.9073   34.5984   -4.0168 C   0  0  0  0  0  0  0  0  0  0  0  0
  -87.0035   35.5707   -4.3663 C   0  0  0  0  0  0  0  0  0  0  0  0
  -87.5519   36.3053   -5.3262 N   0  0  0  0  0  0  0  0  0  0  0  0
  -88.7709   35.8628   -5.6237 N   0  0  0  0  0  0  0  0  0  0  0  0
  -89.0225   34.8011   -4.8264 C   0  0  0  0  0  0  0  0  0  0  0  0
  -89.6574   36.4399   -6.6353 C   0  0  0  0  0  0  0  0  0  0  0  0
  -88.7821   37.2685   -7.5454 C   0  0  0  0  0  0  0  0  0  0  0  0
  -89.4706   37.7005   -8.7966 C   0  0  0  0  0  0  0  0  0  0  0  0
  -90.7997   37.2000   -8.9437 N   0  0  0  0  0  0  0  0  0  0  0  0
  -91.8036   37.9872   -8.2765 C   0  0  0  0  0  0  0  0  0  0  0  0
  -90.9178   35.7860   -8.7022 C   0  0  0  0  0  0  0  0  0  0  0  0
  -90.3000   35.3369   -7.4202 C   0  0  0  0  0  0  0  0  0  0  0  0
 25 26  1  0  0  0
 26 17  1  0  0  0
 17 18  2  0  0  0
 18 19  1  0  0  0
 19 27  1  0  0  0
 27 28  1  0  0  0
 19 20  2  0  0  0
 20 21  1  0  0  0
 20 22  1  0  0  0
 22 23  2  0  0  0
 23 24  1  0  0  0
 22 10  1  0  0  0
 10 11  1  0  0  0
 11 12  2  0  0  0
 12 13  1  0  0  0
 13 14  2  0  0  0
 14 15  1  0  0  0
 15 16  2  0  0  0
 12  1  1  0  0  0
  1  2  2  0  0  0
  2  3  1  0  0  0
  3  4  2  0  0  0
  4  5  1  0  0  0
  5  6  2  0  0  0
  6  7  1  0  0  0
  3 29  1  0  0  0
 29 30  1  0  0  0
 30 31  2  0  0  0
 31 32  1  0  0  0
 32 33  1  0  0  0
 32 34  1  0  0  0
 34 35  1  0  0  0
 35 36  1  0  0  0
 36 37  1  0  0  0
 37 38  1  0  0  0
 37 39  1  0  0  0
 39 40  1  0  0  0
 23 17  1  0  0  0
 15 10  1  0  0  0
  6  1  1  0  0  0
 33 29  2  0  0  0
 40 34  1  0  0  0
  7  8  1  0  0  0
  7  9  1  0  0  0
M  END
> <minimizedAffinity>
-7.33605

> <CNNscore>
0.0301109329

> <CNNaffinity>
6.1354689598

> <CNN_VS>
0.1847447008

> <CNNaffinity_variance>
0.4312182367

$$$$
[H]c1nc(N([H])[H])c(-c2nn(-c3c(Cl)c(OC([H])([H])[H])c([H])c(OC([H])([H])[H])c3Cl)c(=O)c([H])c2[H])nc1-c1c([H])nn(C2([H])C([H])([H])C([H])([H])N(C([H])([H])[H])C([H])([H])C2([H])[H])c1[H]


 40 44  0  0  0  0  0  0  0  0999 V2000
  -88.2177   33.1749   -3.0066 C   0  0  0  0  0  0  0  0  0  0  0  0
  -89.3290   33.7200   -3.5238 N   0  0  0  0  0  0  0  0  0  0  0  0
  -89.4496   35.0654   -3.6271 C   0  0  0  0  0  0  0  0  0  0  0  0
  -88.4533   35.9210   -3.2126 C   0  0  0  0  0  0  0  0  0  0  0  0
  -87.3412   35.3690   -2.6948 N   0  0  0  0  0  0  0  0  0  0  0  0
  -87.2185   34.0277   -2.5908 C   0  0  0  0  0  0  0  0  0  0  0  0
  -86.0461   33.4108   -2.0436 N   0  0  0  0  0  0  0  0  0  0  0  0
  -85.2116   33.2733   -2.6607 H   0  0  0  0  0  0  0  0  0  0  0  0
  -85.9993   33.0954   -1.0517 H   0  0  0  0  0  0  0  0  0  0  0  0
  -87.9927   29.7706   -1.5870 N   0  0  0  0  0  0  0  0  0  0  0  0
  -88.0961   31.0808   -1.7249 N   0  0  0  0  0  0  0  0  0  0  0  0
  -88.1022   31.7221   -2.9032 C   0  0  0  0  0  0  0  0  0  0  0  0
  -87.9932   30.9641   -4.0448 C   0  0  0  0  0  0  0  0  0  0  0  0
  -87.8854   29.5985   -3.9004 C   0  0  0  0  0  0  0  0  0  0  0  0
  -87.8829   28.9702   -2.6621 C   0  0  0  0  0  0  0  0  0  0  0  0
  -87.7820   27.7082   -2.5616 O   0  0  0  0  0  0  0  0  0  0  0  0
  -89.2696   28.1876    1.4717 C   0  0  0  0  0  0  0  0  0  0  0  0
  -88.0990   28.0163    2.1930 C   0  0  0  0  0  0  0  0  0  0  0  0
  -86.8656   28.4091    1.7061 C   0  0  0  0  0  0  0  0  0  0  0  0
  -86.8466   28.9882    0.4527 C   0  0  0  0  0  0  0  0  0  0  0  0
  -85.3123   29.5050   -0.2149 Cl  0  0  0  0  0  0  0  0  0  0  0  0
  -87.9940   29.1731   -0.2907 C   0  0  0  0  0  0  0  0  0  0  0  0
  -89.2160   28.7711    0.2191 C   0  0  0  0  0  0  0  0  0  0  0  0
  -90.6725   28.9903   -0.6908 Cl  0  0  0  0  0  0  0  0  0  0  0  0
  -91.1157   28.5901    2.9513 C   0  0  0  0  0  0  0  0  0  0  0  0
  -90.5119   27.7973    1.9505 O   0  0  0  0  0  0  0  0  0  0  0  0
  -85.6832   28.2558    2.3919 O   0  0  0  0  0  0  0  0  0  0  0  0
  -85.0773   29.2282    3.1845 C   0  0  0  0  0  0  0  0  0  0  0  0
  -90.6769   35.6036   -4.1955 C   0  0  0  0  0  0  0  0  0  0  0  0
  -91.0719   36.9167   -4.2598 C   0  0  0  0  0  0  0  0  0  0  0  0
  -92.2557   36.9533   -4.8588 N   0  0  0  0  0  0  0  0  0  0  0  0
  -92.6568   35.7289   -5.1908 N   0  0  0  0  0  0  0  0  0  0  0  0
  -91.6967   34.8657   -4.7918 C   0  0  0  0  0  0  0  0  0  0  0  0
  -93.9147   35.4040   -5.8652 C   0  0  0  0  0  0  0  0  0  0  0  0
  -93.5512   35.0093   -7.2769 C   0  0  0  0  0  0  0  0  0  0  0  0
  -94.6772   34.3759   -8.0231 C   0  0  0  0  0  0  0  0  0  0  0  0
  -95.8670   34.1925   -7.2552 N   0  0  0  0  0  0  0  0  0  0  0  0
  -96.7229   35.3491   -7.2085 C   0  0  0  0  0  0  0  0  0  0  0  0
  -95.6404   33.5875   -5.9690 C   0  0  0  0  0  0  0  0  0  0  0  0
  -94.5667   34.2475   -5.1700 C   0  0  0  0  0  0  0  0  0  0  0  0
 25 26  1  0  0  0
 26 17  1  0  0  0
 17 18  2  0  0  0
 18 19  1  0  0  0
 19 27  1  0  0  0
 27 28  1  0  0  0
 19 20  2  0  0  0
 20 21  1  0  0  0
 20 22  1  0  0  0
 22 23  2  0  0  0
 23 24  1  0  0  0
 22 10  1  0  0  0
 10 11  1  0  0  0
 11 12  2  0  0  0
 12 13  1  0  0  0
 13 14  2  0  0  0
 14 15  1  0  0  0
 15 16  2  0  0  0
 12  1  1  0  0  0
  1  2  2  0  0  0
  2  3  1  0  0  0
  3  4  2  0  0  0
  4  5  1  0  0  0
  5  6  2  0  0  0
  6  7  1  0  0  0
  3 29  1  0  0  0
 29 30  1  0  0  0
 30 31  2  0  0  0
 31 32  1  0  0  0
 32 33  1  0  0  0
 32 34  1  0  0  0
 34 35  1  0  0  0
 35 36  1  0  0  0
 36 37  1  0  0  0
 37 38  1  0  0  0
 37 39  1  0  0  0
 39 40  1  0  0  0
 23 17  1  0  0  0
 15 10  1  0  0  0
  6  1  1  0  0  0
 33 29  2  0  0  0
 40 34  1  0  0  0
  7  8  1  0  0  0
  7  9  1  0  0  0
M  END
> <minimizedAffinity>
-6.78900

> <CNNscore>
0.0296884570

> <CNNaffinity>
6.3996629715

> <CNN_VS>
0.1899961233

> <CNNaffinity_variance>
0.2733649313

$$$$
[H]c1nc(N([H])[H])c(-c2nn(-c3c(Cl)c(OC([H])([H])[H])c([H])c(OC([H])([H])[H])c3Cl)c(=O)c([H])c2[H])nc1-c1c([H])nn(C2([H])C([H])([H])C([H])([H])N(C([H])([H])[H])C([H])([H])C2([H])[H])c1[H]


 40 44  0  0  0  0  0  0  0  0999 V2000
  -88.3158   30.0587   -0.6502 C   0  0  0  0  0  0  0  0  0  0  0  0
  -88.4392   31.1914   -1.3582 N   0  0  0  0  0  0  0  0  0  0  0  0
  -87.4161   32.0774   -1.4195 C   0  0  0  0  0  0  0  0  0  0  0  0
  -86.2224   31.8594   -0.7685 C   0  0  0  0  0  0  0  0  0  0  0  0
  -86.1041   30.7220   -0.0601 N   0  0  0  0  0  0  0  0  0  0  0  0
  -87.1228   29.8369    0.0025 C   0  0  0  0  0  0  0  0  0  0  0  0
  -87.0263   28.6171    0.7490 N   0  0  0  0  0  0  0  0  0  0  0  0
  -86.5545   27.7915    0.3108 H   0  0  0  0  0  0  0  0  0  0  0  0
  -87.4111   28.5271    1.7131 H   0  0  0  0  0  0  0  0  0  0  0  0
  -90.5129   27.2947    0.4399 N   0  0  0  0  0  0  0  0  0  0  0  0
  -89.5261   28.1695    0.3542 N   0  0  0  0  0  0  0  0  0  0  0  0
  -89.4276   29.1124   -0.5950 C   0  0  0  0  0  0  0  0  0  0  0  0
  -90.4213   29.1722   -1.5430 C   0  0  0  0  0  0  0  0  0  0  0  0
  -91.4495   28.2601   -1.4531 C   0  0  0  0  0  0  0  0  0  0  0  0
  -91.5171   27.2975   -0.4547 C   0  0  0  0  0  0  0  0  0  0  0  0
  -92.4787   26.4699   -0.3985 O   0  0  0  0  0  0  0  0  0  0  0  0
  -90.3759   24.0211    2.1002 C   0  0  0  0  0  0  0  0  0  0  0  0
  -90.5652   24.3843    3.4239 C   0  0  0  0  0  0  0  0  0  0  0  0
  -90.7417   25.6998    3.8122 C   0  0  0  0  0  0  0  0  0  0  0  0
  -90.7216   26.6523    2.8126 C   0  0  0  0  0  0  0  0  0  0  0  0
  -90.9397   28.3350    3.2459 Cl  0  0  0  0  0  0  0  0  0  0  0  0
  -90.5355   26.3236    1.4857 C   0  0  0  0  0  0  0  0  0  0  0  0
  -90.3610   24.9995    1.1231 C   0  0  0  0  0  0  0  0  0  0  0  0
  -90.1254   24.5570   -0.5339 Cl  0  0  0  0  0  0  0  0  0  0  0  0
  -90.4062   21.6867    2.6562 C   0  0  0  0  0  0  0  0  0  0  0  0
  -90.1979   22.7047    1.6997 O   0  0  0  0  0  0  0  0  0  0  0  0
  -90.9322   26.0987    5.1147 O   0  0  0  0  0  0  0  0  0  0  0  0
  -89.9576   26.6564    5.9393 C   0  0  0  0  0  0  0  0  0  0  0  0
  -87.6039   33.2906   -2.2018 C   0  0  0  0  0  0  0  0  0  0  0  0
  -86.6454   34.0457   -2.8307 C   0  0  0  0  0  0  0  0  0  0  0  0
  -87.2580   35.0615   -3.4261 N   0  0  0  0  0  0  0  0  0  0  0  0
  -88.5713   35.0100   -3.2188 N   0  0  0  0  0  0  0  0  0  0  0  0
  -88.8195   33.9196   -2.4602 C   0  0  0  0  0  0  0  0  0  0  0  0
  -89.5474   35.9730   -3.7310 C   0  0  0  0  0  0  0  0  0  0  0  0
  -88.8928   37.3311   -3.6415 C   0  0  0  0  0  0  0  0  0  0  0  0
  -89.6327   38.3948   -4.3811 C   0  0  0  0  0  0  0  0  0  0  0  0
  -90.7794   37.9312   -5.0944 N   0  0  0  0  0  0  0  0  0  0  0  0
  -91.9738   37.8405   -4.2958 C   0  0  0  0  0  0  0  0  0  0  0  0
  -90.5303   36.7635   -5.8983 C   0  0  0  0  0  0  0  0  0  0  0  0
  -89.8551   35.6546   -5.1627 C   0  0  0  0  0  0  0  0  0  0  0  0
 25 26  1  0  0  0
 26 17  1  0  0  0
 17 18  2  0  0  0
 18 19  1  0  0  0
 19 27  1  0  0  0
 27 28  1  0  0  0
 19 20  2  0  0  0
 20 21  1  0  0  0
 20 22  1  0  0  0
 22 23  2  0  0  0
 23 24  1  0  0  0
 22 10  1  0  0  0
 10 11  1  0  0  0
 11 12  2  0  0  0
 12 13  1  0  0  0
 13 14  2  0  0  0
 14 15  1  0  0  0
 15 16  2  0  0  0
 12  1  1  0  0  0
  1  2  2  0  0  0
  2  3  1  0  0  0
  3  4  2  0  0  0
  4  5  1  0  0  0
  5  6  2  0  0  0
  6  7  1  0  0  0
  3 29  1  0  0  0
 29 30  1  0  0  0
 30 31  2  0  0  0
 31 32  1  0  0  0
 32 33  1  0  0  0
 32 34  1  0  0  0
 34 35  1  0  0  0
 35 36  1  0  0  0
 36 37  1  0  0  0
 37 38  1  0  0  0
 37 39  1  0  0  0
 39 40  1  0  0  0
 23 17  1  0  0  0
 15 10  1  0  0  0
  6  1  1  0  0  0
 33 29  2  0  0  0
 40 34  1  0  0  0
  7  8  1  0  0  0
  7  9  1  0  0  0
M  END
> <minimizedAffinity>
-8.23483

> <CNNscore>
0.0257778112

> <CNNaffinity>
6.3148241043

> <CNN_VS>
0.1627823412

> <CNNaffinity_variance>
0.4231704175

$$$$
[H]c1c([H])c([H])c2c(c1[H])C([H])([H])N(C1([H])C([H])([H])C([H])([H])N(C(=O)c3c([H])c(OC([H])([H])[H])c(OC([H])([H])[H])c(OC([H])([H])[H])c3[H])C([H])([H])C1([H])[H])C([H])([H])C2([H])[H]


 30 33  0  0  0  0  0  0  0  0999 V2000
  -88.0873   30.3137   -1.4901 C   0  0  0  0  0  0  0  0  0  0  0  0
  -89.0541   29.4328   -1.4200 O   0  0  0  0  0  0  0  0  0  0  0  0
  -88.1985   31.2805   -2.4824 N   0  0  0  0  0  0  0  0  0  0  0  0
  -87.3399   32.3490   -2.8516 C   0  0  0  0  0  0  0  0  0  0  0  0
  -87.6983   32.9408   -4.2230 C   0  0  0  0  0  0  0  0  0  0  0  0
  -89.1241   33.3518   -4.3353 C   0  0  0  0  0  0  0  0  0  0  0  0
  -89.9802   32.6505   -3.2781 C   0  0  0  0  0  0  0  0  0  0  0  0
  -89.4399   31.2018   -3.3088 C   0  0  0  0  0  0  0  0  0  0  0  0
  -89.2835   34.7594   -4.2763 N   0  0  0  0  0  0  0  0  0  0  0  0
  -90.0936   35.2213   -5.3655 C   0  0  0  0  0  0  0  0  0  0  0  0
  -90.7943   36.5136   -4.9857 C   0  0  0  0  0  0  0  0  0  0  0  0
  -89.8157   37.3868   -4.2664 C   0  0  0  0  0  0  0  0  0  0  0  0
  -90.1985   38.7010   -4.0494 C   0  0  0  0  0  0  0  0  0  0  0  0
  -89.3382   39.5605   -3.3910 C   0  0  0  0  0  0  0  0  0  0  0  0
  -88.1147   39.1614   -2.9419 C   0  0  0  0  0  0  0  0  0  0  0  0
  -87.7556   37.8363   -3.1729 C   0  0  0  0  0  0  0  0  0  0  0  0
  -88.5987   36.9675   -3.8263 C   0  0  0  0  0  0  0  0  0  0  0  0
  -88.1494   35.5643   -4.0386 C   0  0  0  0  0  0  0  0  0  0  0  0
  -85.1961   30.9995    0.8009 C   0  0  0  0  0  0  0  0  0  0  0  0
  -86.1922   31.1353   -0.1181 C   0  0  0  0  0  0  0  0  0  0  0  0
  -87.0678   30.0973   -0.4934 C   0  0  0  0  0  0  0  0  0  0  0  0
  -86.8402   28.9114    0.1464 C   0  0  0  0  0  0  0  0  0  0  0  0
  -85.8390   28.7005    1.0982 C   0  0  0  0  0  0  0  0  0  0  0  0
  -85.0285   29.7755    1.4040 C   0  0  0  0  0  0  0  0  0  0  0  0
  -83.3373   32.4049    0.2376 C   0  0  0  0  0  0  0  0  0  0  0  0
  -84.3530   32.0352    1.1493 O   0  0  0  0  0  0  0  0  0  0  0  0
  -85.6480   27.4763    1.7203 O   0  0  0  0  0  0  0  0  0  0  0  0
  -86.7715   26.6220    1.8283 C   0  0  0  0  0  0  0  0  0  0  0  0
  -84.0211   29.5991    2.3492 O   0  0  0  0  0  0  0  0  0  0  0  0
  -82.7318   29.1430    2.0040 C   0  0  0  0  0  0  0  0  0  0  0  0
 25 26  1  0  0  0
 26 19  1  0  0  0
 19 20  2  0  0  0
 20 21  1  0  0  0
 21 22  2  0  0  0
 22 23  1  0  0  0
 23 27  1  0  0  0
 27 28  1  0  0  0
 23 24  2  0  0  0
 24 29  1  0  0  0
 29 30  1  0  0  0
 21  1  1  0  0  0
  1  2  2  0  0  0
  1  3  1  0  0  0
  3  4  1  0  0  0
  4  5  1  0  0  0
  5  6  1  0  0  0
  6  7  1  0  0  0
  7  8  1  0  0  0
  6  9  1  0  0  0
  9 10  1  0  0  0
 10 11  1  0  0  0
 11 12  1  0  0  0
 12 13  2  0  0  0
 13 14  1  0  0  0
 14 15  2  0  0  0
 15 16  1  0  0  0
 16 17  2  0  0  0
 17 18  1  0  0  0
 24 19  1  0  0  0
  8  3  1  0  0  0
 18  9  1  0  0  0
 17 12  1  0  0  0
M  END
> <minimizedAffinity>
-8.03539

> <CNNscore>
0.3773277998

> <CNNaffinity>
6.0959806442

> <CNN_VS>
2.3001830578

> <CNNaffinity_variance>
0.2039076984

$$$$
[H]c1c([H])c([H])c2c(c1[H])C([H])([H])N(C1([H])C([H])([H])C([H])([H])N(C(=O)c3c([H])c(OC([H])([H])[H])c(OC([H])([H])[H])c(OC([H])([H])[H])c3[H])C([H])([H])C1([H])[H])C([H])([H])C2([H])[H]


 30 33  0  0  0  0  0  0  0  0999 V2000
  -88.4845   30.4878   -1.0701 C   0  0  0  0  0  0  0  0  0  0  0  0
  -89.5779   30.1023   -0.4608 O   0  0  0  0  0  0  0  0  0  0  0  0
  -88.6278   30.9408   -2.3763 N   0  0  0  0  0  0  0  0  0  0  0  0
  -87.6721   31.4006   -3.3198 C   0  0  0  0  0  0  0  0  0  0  0  0
  -88.2416   31.4668   -4.7449 C   0  0  0  0  0  0  0  0  0  0  0  0
  -89.4978   32.2583   -4.8435 C   0  0  0  0  0  0  0  0  0  0  0  0
  -90.1709   32.3884   -3.4751 C   0  0  0  0  0  0  0  0  0  0  0  0
  -90.0299   30.9640   -2.8896 C   0  0  0  0  0  0  0  0  0  0  0  0
  -89.2870   33.5287   -5.4367 N   0  0  0  0  0  0  0  0  0  0  0  0
  -88.6336   34.4130   -4.5163 C   0  0  0  0  0  0  0  0  0  0  0  0
  -87.8438   35.4661   -5.2729 C   0  0  0  0  0  0  0  0  0  0  0  0
  -88.6765   35.9473   -6.4186 C   0  0  0  0  0  0  0  0  0  0  0  0
  -88.2243   37.0758   -7.0840 C   0  0  0  0  0  0  0  0  0  0  0  0
  -88.9496   37.5726   -8.1515 C   0  0  0  0  0  0  0  0  0  0  0  0
  -90.1047   36.9894   -8.5799 C   0  0  0  0  0  0  0  0  0  0  0  0
  -90.5359   35.8572   -7.8938 C   0  0  0  0  0  0  0  0  0  0  0  0
  -89.8271   35.3494   -6.8297 C   0  0  0  0  0  0  0  0  0  0  0  0
  -90.3471   34.1355   -6.1427 C   0  0  0  0  0  0  0  0  0  0  0  0
  -86.0253   29.0187    1.3534 C   0  0  0  0  0  0  0  0  0  0  0  0
  -87.0972   29.2015    0.5330 C   0  0  0  0  0  0  0  0  0  0  0  0
  -87.3131   30.3603   -0.2386 C   0  0  0  0  0  0  0  0  0  0  0  0
  -86.3452   31.3151   -0.1013 C   0  0  0  0  0  0  0  0  0  0  0  0
  -85.2208   31.1956    0.7199 C   0  0  0  0  0  0  0  0  0  0  0  0
  -85.0916   30.0242    1.4390 C   0  0  0  0  0  0  0  0  0  0  0  0
  -86.5992   26.7272    1.7617 C   0  0  0  0  0  0  0  0  0  0  0  0
  -85.8397   27.8715    2.0979 O   0  0  0  0  0  0  0  0  0  0  0  0
  -84.2652   32.1945    0.8251 O   0  0  0  0  0  0  0  0  0  0  0  0
  -83.8122   32.7874   -0.3777 C   0  0  0  0  0  0  0  0  0  0  0  0
  -83.9819   29.8728    2.2667 O   0  0  0  0  0  0  0  0  0  0  0  0
  -82.7365   29.4174    1.7859 C   0  0  0  0  0  0  0  0  0  0  0  0
 25 26  1  0  0  0
 26 19  1  0  0  0
 19 20  2  0  0  0
 20 21  1  0  0  0
 21 22  2  0  0  0
 22 23  1  0  0  0
 23 27  1  0  0  0
 27 28  1  0  0  0
 23 24  2  0  0  0
 24 29  1  0  0  0
 29 30  1  0  0  0
 21  1  1  0  0  0
  1  2  2  0  0  0
  1  3  1  0  0  0
  3  4  1  0  0  0
  4  5  1  0  0  0
  5  6  1  0  0  0
  6  7  1  0  0  0
  7  8  1  0  0  0
  6  9  1  0  0  0
  9 10  1  0  0  0
 10 11  1  0  0  0
 11 12  1  0  0  0
 12 13  2  0  0  0
 13 14  1  0  0  0
 14 15  2  0  0  0
 15 16  1  0  0  0
 16 17  2  0  0  0
 17 18  1  0  0  0
 24 19  1  0  0  0
  8  3  1  0  0  0
 18  9  1  0  0  0
 17 12  1  0  0  0
M  END
> <minimizedAffinity>
-8.20609

> <CNNscore>
0.2332519591

> <CNNaffinity>
5.7438726425

> <CNN_VS>
1.3397696018

> <CNNaffinity_variance>
0.2075041980

$$$$
[H]c1c([H])c([H])c2c(c1[H])C([H])([H])N(C1([H])C([H])([H])C([H])([H])N(C(=O)c3c([H])c(OC([H])([H])[H])c(OC([H])([H])[H])c(OC([H])([H])[H])c3[H])C([H])([H])C1([H])[H])C([H])([H])C2([H])[H]


 30 33  0  0  0  0  0  0  0  0999 V2000
  -88.5650   30.4313   -1.0739 C   0  0  0  0  0  0  0  0  0  0  0  0
  -89.6673   30.0281   -0.4927 O   0  0  0  0  0  0  0  0  0  0  0  0
  -88.6832   30.8876   -2.3815 N   0  0  0  0  0  0  0  0  0  0  0  0
  -87.7116   31.3645   -3.3001 C   0  0  0  0  0  0  0  0  0  0  0  0
  -88.2476   31.4284   -4.7382 C   0  0  0  0  0  0  0  0  0  0  0  0
  -89.5121   32.2026   -4.8641 C   0  0  0  0  0  0  0  0  0  0  0  0
  -90.2197   32.3178   -3.5119 C   0  0  0  0  0  0  0  0  0  0  0  0
  -90.0727   30.8931   -2.9285 C   0  0  0  0  0  0  0  0  0  0  0  0
  -89.3050   33.4782   -5.4474 N   0  0  0  0  0  0  0  0  0  0  0  0
  -88.6336   34.3502   -4.5281 C   0  0  0  0  0  0  0  0  0  0  0  0
  -87.8510   35.4078   -5.2860 C   0  0  0  0  0  0  0  0  0  0  0  0
  -88.6993   35.9044   -6.4136 C   0  0  0  0  0  0  0  0  0  0  0  0
  -88.2525   37.0378   -7.0743 C   0  0  0  0  0  0  0  0  0  0  0  0
  -88.9921   37.5487   -8.1252 C   0  0  0  0  0  0  0  0  0  0  0  0
  -90.1562   36.9748   -8.5416 C   0  0  0  0  0  0  0  0  0  0  0  0
  -90.5816   35.8374   -7.8607 C   0  0  0  0  0  0  0  0  0  0  0  0
  -89.8587   35.3156   -6.8129 C   0  0  0  0  0  0  0  0  0  0  0  0
  -90.3732   34.0967   -6.1305 C   0  0  0  0  0  0  0  0  0  0  0  0
  -85.3478   31.3135    0.6436 C   0  0  0  0  0  0  0  0  0  0  0  0
  -86.4676   31.3585   -0.1307 C   0  0  0  0  0  0  0  0  0  0  0  0
  -87.4123   30.3168   -0.2149 C   0  0  0  0  0  0  0  0  0  0  0  0
  -87.1174   29.2272    0.5553 C   0  0  0  0  0  0  0  0  0  0  0  0
  -85.9895   29.1124    1.3723 C   0  0  0  0  0  0  0  0  0  0  0  0
  -85.1186   30.1835    1.3924 C   0  0  0  0  0  0  0  0  0  0  0  0
  -83.9384   32.8741   -0.5076 C   0  0  0  0  0  0  0  0  0  0  0  0
  -84.4392   32.3505    0.7065 O   0  0  0  0  0  0  0  0  0  0  0  0
  -85.7343   27.9840    2.1362 O   0  0  0  0  0  0  0  0  0  0  0  0
  -86.3363   26.7716    1.7226 C   0  0  0  0  0  0  0  0  0  0  0  0
  -83.9848   30.1016    2.1968 O   0  0  0  0  0  0  0  0  0  0  0  0
  -82.7810   29.5180    1.7496 C   0  0  0  0  0  0  0  0  0  0  0  0
 25 26  1  0  0  0
 26 19  1  0  0  0
 19 20  2  0  0  0
 20 21  1  0  0  0
 21 22  2  0  0  0
 22 23  1  0  0  0
 23 27  1  0  0  0
 27 28  1  0  0  0
 23 24  2  0  0  0
 24 29  1  0  0  0
 29 30  1  0  0  0
 21  1  1  0  0  0
  1  2  2  0  0  0
  1  3  1  0  0  0
  3  4  1  0  0  0
  4  5  1  0  0  0
  5  6  1  0  0  0
  6  7  1  0  0  0
  7  8  1  0  0  0
  6  9  1  0  0  0
  9 10  1  0  0  0
 10 11  1  0  0  0
 11 12  1  0  0  0
 12 13  2  0  0  0
 13 14  1  0  0  0
 14 15  2  0  0  0
 15 16  1  0  0  0
 16 17  2  0  0  0
 17 18  1  0  0  0
 24 19  1  0  0  0
  8  3  1  0  0  0
 18  9  1  0  0  0
 17 12  1  0  0  0
M  END
> <minimizedAffinity>
-8.24015

> <CNNscore>
0.2321528345

> <CNNaffinity>
5.7186851501

> <CNN_VS>
1.3276089430

> <CNNaffinity_variance>
0.2156995237

$$$$
[H]c1c([H])c([H])c2c(c1[H])C([H])([H])N(C1([H])C([H])([H])C([H])([H])N(C(=O)c3c([H])c(OC([H])([H])[H])c(OC([H])([H])[H])c(OC([H])([H])[H])c3[H])C([H])([H])C1([H])[H])C([H])([H])C2([H])[H]


 30 33  0  0  0  0  0  0  0  0999 V2000
  -88.6716   31.1019   -1.3935 C   0  0  0  0  0  0  0  0  0  0  0  0
  -89.8993   30.8341   -1.0239 O   0  0  0  0  0  0  0  0  0  0  0  0
  -88.5190   32.0355   -2.4120 N   0  0  0  0  0  0  0  0  0  0  0  0
  -87.3596   32.5334   -3.0621 C   0  0  0  0  0  0  0  0  0  0  0  0
  -87.6936   33.2882   -4.3576 C   0  0  0  0  0  0  0  0  0  0  0  0
  -88.6948   34.3727   -4.1688 C   0  0  0  0  0  0  0  0  0  0  0  0
  -89.4988   34.1570   -2.8845 C   0  0  0  0  0  0  0  0  0  0  0  0
  -89.7891   32.6383   -2.9156 C   0  0  0  0  0  0  0  0  0  0  0  0
  -88.1028   35.6607   -4.1957 N   0  0  0  0  0  0  0  0  0  0  0  0
  -89.0216   36.6483   -3.7094 C   0  0  0  0  0  0  0  0  0  0  0  0
  -88.2630   37.8283   -3.1283 C   0  0  0  0  0  0  0  0  0  0  0  0
  -87.1223   38.1509   -4.0406 C   0  0  0  0  0  0  0  0  0  0  0  0
  -86.4567   39.3435   -3.8048 C   0  0  0  0  0  0  0  0  0  0  0  0
  -85.3937   39.7009   -4.6139 C   0  0  0  0  0  0  0  0  0  0  0  0
  -84.9700   38.9177   -5.6458 C   0  0  0  0  0  0  0  0  0  0  0  0
  -85.6562   37.7254   -5.8602 C   0  0  0  0  0  0  0  0  0  0  0  0
  -86.7159   37.3540   -5.0654 C   0  0  0  0  0  0  0  0  0  0  0  0
  -87.4032   36.0651   -5.3522 C   0  0  0  0  0  0  0  0  0  0  0  0
  -87.1795   28.4021    0.7425 C   0  0  0  0  0  0  0  0  0  0  0  0
  -88.0447   29.1536    0.0064 C   0  0  0  0  0  0  0  0  0  0  0  0
  -87.6924   30.3506   -0.6476 C   0  0  0  0  0  0  0  0  0  0  0  0
  -86.3854   30.7154   -0.4861 C   0  0  0  0  0  0  0  0  0  0  0  0
  -85.4438   29.9944    0.2531 C   0  0  0  0  0  0  0  0  0  0  0  0
  -85.8791   28.8327    0.8591 C   0  0  0  0  0  0  0  0  0  0  0  0
  -88.3153   27.3273    2.5597 C   0  0  0  0  0  0  0  0  0  0  0  0
  -87.5533   27.2323    1.3724 O   0  0  0  0  0  0  0  0  0  0  0  0
  -84.1271   30.4069    0.3873 O   0  0  0  0  0  0  0  0  0  0  0  0
  -83.8741   31.7981    0.3236 C   0  0  0  0  0  0  0  0  0  0  0  0
  -84.9656   28.0900    1.6028 O   0  0  0  0  0  0  0  0  0  0  0  0
  -84.4904   28.5162    2.8606 C   0  0  0  0  0  0  0  0  0  0  0  0
 25 26  1  0  0  0
 26 19  1  0  0  0
 19 20  2  0  0  0
 20 21  1  0  0  0
 21 22  2  0  0  0
 22 23  1  0  0  0
 23 27  1  0  0  0
 27 28  1  0  0  0
 23 24  2  0  0  0
 24 29  1  0  0  0
 29 30  1  0  0  0
 21  1  1  0  0  0
  1  2  2  0  0  0
  1  3  1  0  0  0
  3  4  1  0  0  0
  4  5  1  0  0  0
  5  6  1  0  0  0
  6  7  1  0  0  0
  7  8  1  0  0  0
  6  9  1  0  0  0
  9 10  1  0  0  0
 10 11  1  0  0  0
 11 12  1  0  0  0
 12 13  2  0  0  0
 13 14  1  0  0  0
 14 15  2  0  0  0
 15 16  1  0  0  0
 16 17  2  0  0  0
 17 18  1  0  0  0
 24 19  1  0  0  0
  8  3  1  0  0  0
 18  9  1  0  0  0
 17 12  1  0  0  0
M  END
> <minimizedAffinity>
-7.17276

> <CNNscore>
0.1952742338

> <CNNaffinity>
5.7544164658

> <CNN_VS>
1.1236892939

> <CNNaffinity_variance>
0.3068945706

$$$$
[H]c1c([H])c([H])c2c(c1[H])C([H])([H])N(C1([H])C([H])([H])C([H])([H])N(C(=O)c3c([H])c(OC([H])([H])[H])c(OC([H])([H])[H])c(OC([H])([H])[H])c3[H])C([H])([H])C1([H])[H])C([H])([H])C2([H])[H]


 30 33  0  0  0  0  0  0  0  0999 V2000
  -86.5870   29.2538    0.7906 C   0  0  0  0  0  0  0  0  0  0  0  0
  -85.8881   29.2645    1.8982 O   0  0  0  0  0  0  0  0  0  0  0  0
  -87.1650   28.0415    0.4324 N   0  0  0  0  0  0  0  0  0  0  0  0
  -87.9489   27.6719   -0.6918 C   0  0  0  0  0  0  0  0  0  0  0  0
  -88.0733   26.1484   -0.8432 C   0  0  0  0  0  0  0  0  0  0  0  0
  -88.5676   25.4704    0.3857 C   0  0  0  0  0  0  0  0  0  0  0  0
  -88.3604   26.3537    1.6184 C   0  0  0  0  0  0  0  0  0  0  0  0
  -86.9397   26.9222    1.3949 C   0  0  0  0  0  0  0  0  0  0  0  0
  -89.9198   25.0614    0.2665 N   0  0  0  0  0  0  0  0  0  0  0  0
  -90.8035   26.1654    0.5038 C   0  0  0  0  0  0  0  0  0  0  0  0
  -92.1184   25.9496   -0.2242 C   0  0  0  0  0  0  0  0  0  0  0  0
  -92.5271   24.5216   -0.0461 C   0  0  0  0  0  0  0  0  0  0  0  0
  -93.8153   24.1912   -0.4362 C   0  0  0  0  0  0  0  0  0  0  0  0
  -94.2552   22.8876   -0.2962 C   0  0  0  0  0  0  0  0  0  0  0  0
  -93.4628   21.9039    0.2159 C   0  0  0  0  0  0  0  0  0  0  0  0
  -92.1736   22.2633    0.5995 C   0  0  0  0  0  0  0  0  0  0  0  0
  -91.7193   23.5552    0.4676 C   0  0  0  0  0  0  0  0  0  0  0  0
  -90.3291   23.8681    0.8981 C   0  0  0  0  0  0  0  0  0  0  0  0
  -87.9311   32.2838   -0.9674 C   0  0  0  0  0  0  0  0  0  0  0  0
  -87.8285   31.0839   -0.3310 C   0  0  0  0  0  0  0  0  0  0  0  0
  -86.6175   30.5418    0.1427 C   0  0  0  0  0  0  0  0  0  0  0  0
  -85.5224   31.3256   -0.0889 C   0  0  0  0  0  0  0  0  0  0  0  0
  -85.5533   32.5649   -0.7339 C   0  0  0  0  0  0  0  0  0  0  0  0
  -86.7849   33.0172   -1.1636 C   0  0  0  0  0  0  0  0  0  0  0  0
  -89.8454   32.0499   -2.3914 C   0  0  0  0  0  0  0  0  0  0  0  0
  -89.1323   32.7903   -1.4206 O   0  0  0  0  0  0  0  0  0  0  0  0
  -84.4125   33.3238   -0.9453 O   0  0  0  0  0  0  0  0  0  0  0  0
  -83.2218   32.8942   -0.3118 C   0  0  0  0  0  0  0  0  0  0  0  0
  -86.8507   34.2492   -1.8096 O   0  0  0  0  0  0  0  0  0  0  0  0
  -86.9626   34.3630   -3.2111 C   0  0  0  0  0  0  0  0  0  0  0  0
 25 26  1  0  0  0
 26 19  1  0  0  0
 19 20  2  0  0  0
 20 21  1  0  0  0
 21 22  2  0  0  0
 22 23  1  0  0  0
 23 27  1  0  0  0
 27 28  1  0  0  0
 23 24  2  0  0  0
 24 29  1  0  0  0
 29 30  1  0  0  0
 21  1  1  0  0  0
  1  2  2  0  0  0
  1  3  1  0  0  0
  3  4  1  0  0  0
  4  5  1  0  0  0
  5  6  1  0  0  0
  6  7  1  0  0  0
  7  8  1  0  0  0
  6  9  1  0  0  0
  9 10  1  0  0  0
 10 11  1  0  0  0
 11 12  1  0  0  0
 12 13  2  0  0  0
 13 14  1  0  0  0
 14 15  2  0  0  0
 15 16  1  0  0  0
 16 17  2  0  0  0
 17 18  1  0  0  0
 24 19  1  0  0  0
  8  3  1  0  0  0
 18  9  1  0  0  0
 17 12  1  0  0  0
M  END
> <minimizedAffinity>
-7.43550

> <CNNscore>
0.1888273805

> <CNNaffinity>
5.9699082375

> <CNN_VS>
1.1272821426

> <CNNaffinity_variance>
0.0770728067

$$$$
[H]c1c([H])c([H])c2c(c1[H])C([H])([H])N(C1([H])C([H])([H])C([H])([H])N(C(=O)c3c([H])c(OC([H])([H])[H])c(OC([H])([H])[H])c(OC([H])([H])[H])c3[H])C([H])([H])C1([H])[H])C([H])([H])C2([H])[H]


 30 33  0  0  0  0  0  0  0  0999 V2000
  -88.0797   27.6532    1.3120 C   0  0  0  0  0  0  0  0  0  0  0  0
  -88.5296   27.6941    2.5413 O   0  0  0  0  0  0  0  0  0  0  0  0
  -88.7662   26.8311    0.4261 N   0  0  0  0  0  0  0  0  0  0  0  0
  -88.5429   26.5351   -0.9442 C   0  0  0  0  0  0  0  0  0  0  0  0
  -89.3417   25.3110   -1.4162 C   0  0  0  0  0  0  0  0  0  0  0  0
  -90.7991   25.4107   -1.1327 C   0  0  0  0  0  0  0  0  0  0  0  0
  -91.0728   26.4372   -0.0309 C   0  0  0  0  0  0  0  0  0  0  0  0
  -89.9582   26.1371    0.9984 C   0  0  0  0  0  0  0  0  0  0  0  0
  -91.5550   25.6925   -2.2986 N   0  0  0  0  0  0  0  0  0  0  0  0
  -91.8271   27.0970   -2.3961 C   0  0  0  0  0  0  0  0  0  0  0  0
  -92.0227   27.4929   -3.8488 C   0  0  0  0  0  0  0  0  0  0  0  0
  -92.8631   26.4488   -4.5130 C   0  0  0  0  0  0  0  0  0  0  0  0
  -93.3474   26.7522   -5.7756 C   0  0  0  0  0  0  0  0  0  0  0  0
  -94.1321   25.8296   -6.4431 C   0  0  0  0  0  0  0  0  0  0  0  0
  -94.4515   24.6200   -5.9021 C   0  0  0  0  0  0  0  0  0  0  0  0
  -93.9517   24.3411   -4.6329 C   0  0  0  0  0  0  0  0  0  0  0  0
  -93.1698   25.2471   -3.9543 C   0  0  0  0  0  0  0  0  0  0  0  0
  -92.6695   24.8819   -2.6006 C   0  0  0  0  0  0  0  0  0  0  0  0
  -85.9384   30.4606    0.0424 C   0  0  0  0  0  0  0  0  0  0  0  0
  -86.9910   29.6315    0.2874 C   0  0  0  0  0  0  0  0  0  0  0  0
  -86.9249   28.4946    1.1168 C   0  0  0  0  0  0  0  0  0  0  0  0
  -85.6959   28.2754    1.6727 C   0  0  0  0  0  0  0  0  0  0  0  0
  -84.5740   29.0827    1.4663 C   0  0  0  0  0  0  0  0  0  0  0  0
  -84.7326   30.1761    0.6384 C   0  0  0  0  0  0  0  0  0  0  0  0
  -87.2610   32.2681   -0.8124 C   0  0  0  0  0  0  0  0  0  0  0  0
  -86.0329   31.5685   -0.7752 O   0  0  0  0  0  0  0  0  0  0  0  0
  -83.3468   28.8177    2.0541 O   0  0  0  0  0  0  0  0  0  0  0  0
  -83.2117   27.5910    2.7475 C   0  0  0  0  0  0  0  0  0  0  0  0
  -83.6341   31.0017    0.4122 O   0  0  0  0  0  0  0  0  0  0  0  0
  -83.2732   32.0394    1.2967 C   0  0  0  0  0  0  0  0  0  0  0  0
 25 26  1  0  0  0
 26 19  1  0  0  0
 19 20  2  0  0  0
 20 21  1  0  0  0
 21 22  2  0  0  0
 22 23  1  0  0  0
 23 27  1  0  0  0
 27 28  1  0  0  0
 23 24  2  0  0  0
 24 29  1  0  0  0
 29 30  1  0  0  0
 21  1  1  0  0  0
  1  2  2  0  0  0
  1  3  1  0  0  0
  3  4  1  0  0  0
  4  5  1  0  0  0
  5  6  1  0  0  0
  6  7  1  0  0  0
  7  8  1  0  0  0
  6  9  1  0  0  0
  9 10  1  0  0  0
 10 11  1  0  0  0
 11 12  1  0  0  0
 12 13  2  0  0  0
 13 14  1  0  0  0
 14 15  2  0  0  0
 15 16  1  0  0  0
 16 17  2  0  0  0
 17 18  1  0  0  0
 24 19  1  0  0  0
  8  3  1  0  0  0
 18  9  1  0  0  0
 17 12  1  0  0  0
M  END
> <minimizedAffinity>
-7.71314

> <CNNscore>
0.1708239615

> <CNNaffinity>
5.5811591148

> <CNN_VS>
0.9533957243

> <CNNaffinity_variance>
0.2353567332

$$$$
[H]c1c([H])c([H])c2c(c1[H])C([H])([H])N(C1([H])C([H])([H])C([H])([H])N(C(=O)c3c([H])c(OC([H])([H])[H])c(OC([H])([H])[H])c(OC([H])([H])[H])c3[H])C([H])([H])C1([H])[H])C([H])([H])C2([H])[H]


 30 33  0  0  0  0  0  0  0  0999 V2000
  -86.7177   29.3681    0.6315 C   0  0  0  0  0  0  0  0  0  0  0  0
  -86.0101   29.4281    1.7320 O   0  0  0  0  0  0  0  0  0  0  0  0
  -87.2407   28.1247    0.2962 N   0  0  0  0  0  0  0  0  0  0  0  0
  -88.0163   27.7020   -0.8151 C   0  0  0  0  0  0  0  0  0  0  0  0
  -88.0695   26.1722   -0.9436 C   0  0  0  0  0  0  0  0  0  0  0  0
  -88.5199   25.4897    0.2995 C   0  0  0  0  0  0  0  0  0  0  0  0
  -88.3438   26.3997    1.5175 C   0  0  0  0  0  0  0  0  0  0  0  0
  -86.9538   27.0315    1.2721 C   0  0  0  0  0  0  0  0  0  0  0  0
  -89.8523   25.0154    0.1993 N   0  0  0  0  0  0  0  0  0  0  0  0
  -90.7801   26.0255    0.6173 C   0  0  0  0  0  0  0  0  0  0  0  0
  -92.1212   25.8189   -0.0639 C   0  0  0  0  0  0  0  0  0  0  0  0
  -92.4396   24.3575   -0.0449 C   0  0  0  0  0  0  0  0  0  0  0  0
  -93.7281   23.9979   -0.4070 C   0  0  0  0  0  0  0  0  0  0  0  0
  -94.0868   22.6623   -0.4086 C   0  0  0  0  0  0  0  0  0  0  0  0
  -93.2129   21.6744   -0.0644 C   0  0  0  0  0  0  0  0  0  0  0  0
  -91.9253   22.0636    0.2948 C   0  0  0  0  0  0  0  0  0  0  0  0
  -91.5513   23.3875    0.3023 C   0  0  0  0  0  0  0  0  0  0  0  0
  -90.1577   23.7311    0.6970 C   0  0  0  0  0  0  0  0  0  0  0  0
  -85.7068   32.6977   -0.7722 C   0  0  0  0  0  0  0  0  0  0  0  0
  -85.6863   31.4748   -0.1726 C   0  0  0  0  0  0  0  0  0  0  0  0
  -86.8153   30.6436   -0.0343 C   0  0  0  0  0  0  0  0  0  0  0  0
  -87.9647   31.1655   -0.5575 C   0  0  0  0  0  0  0  0  0  0  0  0
  -88.0593   32.4103   -1.1855 C   0  0  0  0  0  0  0  0  0  0  0  0
  -86.9009   33.1561   -1.2761 C   0  0  0  0  0  0  0  0  0  0  0  0
  -83.3549   32.9865   -0.4090 C   0  0  0  0  0  0  0  0  0  0  0  0
  -84.5837   33.4906   -0.8936 O   0  0  0  0  0  0  0  0  0  0  0  0
  -89.2508   32.8964   -1.7012 O   0  0  0  0  0  0  0  0  0  0  0  0
  -89.8867   32.1239   -2.7025 C   0  0  0  0  0  0  0  0  0  0  0  0
  -86.9605   34.4013   -1.8968 O   0  0  0  0  0  0  0  0  0  0  0  0
  -86.9852   34.5465   -3.2996 C   0  0  0  0  0  0  0  0  0  0  0  0
 25 26  1  0  0  0
 26 19  1  0  0  0
 19 20  2  0  0  0
 20 21  1  0  0  0
 21 22  2  0  0  0
 22 23  1  0  0  0
 23 27  1  0  0  0
 27 28  1  0  0  0
 23 24  2  0  0  0
 24 29  1  0  0  0
 29 30  1  0  0  0
 21  1  1  0  0  0
  1  2  2  0  0  0
  1  3  1  0  0  0
  3  4  1  0  0  0
  4  5  1  0  0  0
  5  6  1  0  0  0
  6  7  1  0  0  0
  7  8  1  0  0  0
  6  9  1  0  0  0
  9 10  1  0  0  0
 10 11  1  0  0  0
 11 12  1  0  0  0
 12 13  2  0  0  0
 13 14  1  0  0  0
 14 15  2  0  0  0
 15 16  1  0  0  0
 16 17  2  0  0  0
 17 18  1  0  0  0
 24 19  1  0  0  0
  8  3  1  0  0  0
 18  9  1  0  0  0
 17 12  1  0  0  0
M  END
> <minimizedAffinity>
-7.33135

> <CNNscore>
0.1615061015

> <CNNaffinity>
5.8732872009

> <CNN_VS>
0.9485717416

> <CNNaffinity_variance>
0.0711776167

$$$$
[H]c1c([H])c([H])c2c(c1[H])C([H])([H])N(C1([H])C([H])([H])C([H])([H])N(C(=O)c3c([H])c(OC([H])([H])[H])c(OC([H])([H])[H])c(OC([H])([H])[H])c3[H])C([H])([H])C1([H])[H])C([H])([H])C2([H])[H]


 30 33  0  0  0  0  0  0  0  0999 V2000
  -88.0999   27.7390    1.2581 C   0  0  0  0  0  0  0  0  0  0  0  0
  -88.5199   27.6391    2.4947 O   0  0  0  0  0  0  0  0  0  0  0  0
  -88.7404   26.9404    0.3179 N   0  0  0  0  0  0  0  0  0  0  0  0
  -88.5293   26.7801   -1.0766 C   0  0  0  0  0  0  0  0  0  0  0  0
  -89.2387   25.5383   -1.6370 C   0  0  0  0  0  0  0  0  0  0  0  0
  -90.6916   25.4932   -1.3187 C   0  0  0  0  0  0  0  0  0  0  0  0
  -91.0187   26.3973   -0.1279 C   0  0  0  0  0  0  0  0  0  0  0  0
  -89.8575   26.1048    0.8507 C   0  0  0  0  0  0  0  0  0  0  0  0
  -91.4975   25.8087   -2.4417 N   0  0  0  0  0  0  0  0  0  0  0  0
  -91.8449   27.1999   -2.4384 C   0  0  0  0  0  0  0  0  0  0  0  0
  -92.1065   27.6777   -3.8556 C   0  0  0  0  0  0  0  0  0  0  0  0
  -92.9122   26.6350   -4.5636 C   0  0  0  0  0  0  0  0  0  0  0  0
  -93.4512   26.9928   -5.7892 C   0  0  0  0  0  0  0  0  0  0  0  0
  -94.2077   26.0745   -6.4941 C   0  0  0  0  0  0  0  0  0  0  0  0
  -94.4467   24.8170   -6.0255 C   0  0  0  0  0  0  0  0  0  0  0  0
  -93.8934   24.4840   -4.7921 C   0  0  0  0  0  0  0  0  0  0  0  0
  -93.1384   25.3849   -4.0772 C   0  0  0  0  0  0  0  0  0  0  0  0
  -92.5774   24.9605   -2.7653 C   0  0  0  0  0  0  0  0  0  0  0  0
  -84.7559   29.3724    1.7355 C   0  0  0  0  0  0  0  0  0  0  0  0
  -85.8086   28.5112    1.8083 C   0  0  0  0  0  0  0  0  0  0  0  0
  -87.0221   28.6863    1.1143 C   0  0  0  0  0  0  0  0  0  0  0  0
  -87.0704   29.8129    0.3424 C   0  0  0  0  0  0  0  0  0  0  0  0
  -86.0306   30.7385    0.2201 C   0  0  0  0  0  0  0  0  0  0  0  0
  -84.8781   30.4846    0.9368 C   0  0  0  0  0  0  0  0  0  0  0  0
  -83.1117   27.8495    2.5866 C   0  0  0  0  0  0  0  0  0  0  0  0
  -83.5780   29.1748    2.4272 O   0  0  0  0  0  0  0  0  0  0  0  0
  -86.1284   31.8683   -0.5774 O   0  0  0  0  0  0  0  0  0  0  0  0
  -87.4204   32.2376   -1.0223 C   0  0  0  0  0  0  0  0  0  0  0  0
  -83.8224   31.3872    0.8366 O   0  0  0  0  0  0  0  0  0  0  0  0
  -82.7857   31.2365   -0.1079 C   0  0  0  0  0  0  0  0  0  0  0  0
 25 26  1  0  0  0
 26 19  1  0  0  0
 19 20  2  0  0  0
 20 21  1  0  0  0
 21 22  2  0  0  0
 22 23  1  0  0  0
 23 27  1  0  0  0
 27 28  1  0  0  0
 23 24  2  0  0  0
 24 29  1  0  0  0
 29 30  1  0  0  0
 21  1  1  0  0  0
  1  2  2  0  0  0
  1  3  1  0  0  0
  3  4  1  0  0  0
  4  5  1  0  0  0
  5  6  1  0  0  0
  6  7  1  0  0  0
  7  8  1  0  0  0
  6  9  1  0  0  0
  9 10  1  0  0  0
 10 11  1  0  0  0
 11 12  1  0  0  0
 12 13  2  0  0  0
 13 14  1  0  0  0
 14 15  2  0  0  0
 15 16  1  0  0  0
 16 17  2  0  0  0
 17 18  1  0  0  0
 24 19  1  0  0  0
  8  3  1  0  0  0
 18  9  1  0  0  0
 17 12  1  0  0  0
M  END
> <minimizedAffinity>
-7.67588

> <CNNscore>
0.1475981772

> <CNNaffinity>
5.5617589951

> <CNN_VS>
0.8209055066

> <CNNaffinity_variance>
0.2981283069

$$$$
[H]c1c([H])c([H])c2c(c1[H])C([H])([H])N(C1([H])C([H])([H])C([H])([H])N(C(=O)c3c([H])c(OC([H])([H])[H])c(OC([H])([H])[H])c(OC([H])([H])[H])c3[H])C([H])([H])C1([H])[H])C([H])([H])C2([H])[H]


 30 33  0  0  0  0  0  0  0  0999 V2000
  -88.4050   29.7832   -1.7202 C   0  0  0  0  0  0  0  0  0  0  0  0
  -88.1749   30.3911   -2.8572 O   0  0  0  0  0  0  0  0  0  0  0  0
  -89.6236   29.1251   -1.6029 N   0  0  0  0  0  0  0  0  0  0  0  0
  -90.1988   28.4009   -0.5260 C   0  0  0  0  0  0  0  0  0  0  0  0
  -91.7006   28.1480   -0.7268 C   0  0  0  0  0  0  0  0  0  0  0  0
  -92.0223   27.4982   -2.0261 C   0  0  0  0  0  0  0  0  0  0  0  0
  -90.8828   27.6890   -3.0299 C   0  0  0  0  0  0  0  0  0  0  0  0
  -90.4883   29.1695   -2.8196 C   0  0  0  0  0  0  0  0  0  0  0  0
  -92.3507   26.1273   -1.8743 N   0  0  0  0  0  0  0  0  0  0  0  0
  -93.2481   25.7059   -2.9101 C   0  0  0  0  0  0  0  0  0  0  0  0
  -93.0947   24.2164   -3.1620 C   0  0  0  0  0  0  0  0  0  0  0  0
  -92.9873   23.5234   -1.8407 C   0  0  0  0  0  0  0  0  0  0  0  0
  -93.0797   22.1406   -1.8555 C   0  0  0  0  0  0  0  0  0  0  0  0
  -92.9895   21.4400   -0.6666 C   0  0  0  0  0  0  0  0  0  0  0  0
  -92.8112   22.0629    0.5326 C   0  0  0  0  0  0  0  0  0  0  0  0
  -92.7215   23.4521    0.5185 C   0  0  0  0  0  0  0  0  0  0  0  0
  -92.8092   24.1653   -0.6547 C   0  0  0  0  0  0  0  0  0  0  0  0
  -92.7046   25.6490   -0.5951 C   0  0  0  0  0  0  0  0  0  0  0  0
  -85.6294   31.3680    0.2454 C   0  0  0  0  0  0  0  0  0  0  0  0
  -86.6753   31.1652   -0.6033 C   0  0  0  0  0  0  0  0  0  0  0  0
  -87.3144   29.9232   -0.7869 C   0  0  0  0  0  0  0  0  0  0  0  0
  -86.7961   28.9078   -0.0336 C   0  0  0  0  0  0  0  0  0  0  0  0
  -85.7269   29.0431    0.8560 C   0  0  0  0  0  0  0  0  0  0  0  0
  -85.1627   30.2979    0.9715 C   0  0  0  0  0  0  0  0  0  0  0  0
  -84.3421   33.1548   -0.7019 C   0  0  0  0  0  0  0  0  0  0  0  0
  -85.0227   32.5973    0.4051 O   0  0  0  0  0  0  0  0  0  0  0  0
  -85.2365   27.9804    1.5992 O   0  0  0  0  0  0  0  0  0  0  0  0
  -86.1063   26.8849    1.8155 C   0  0  0  0  0  0  0  0  0  0  0  0
  -84.0956   30.4672    1.8500 O   0  0  0  0  0  0  0  0  0  0  0  0
  -82.7569   30.2450    1.4653 C   0  0  0  0  0  0  0  0  0  0  0  0
 25 26  1  0  0  0
 26 19  1  0  0  0
 19 20  2  0  0  0
 20 21  1  0  0  0
 21 22  2  0  0  0
 22 23  1  0  0  0
 23 27  1  0  0  0
 27 28  1  0  0  0
 23 24  2  0  0  0
 24 29  1  0  0  0
 29 30  1  0  0  0
 21  1  1  0  0  0
  1  2  2  0  0  0
  1  3  1  0  0  0
  3  4  1  0  0  0
  4  5  1  0  0  0
  5  6  1  0  0  0
  6  7  1  0  0  0
  7  8  1  0  0  0
  6  9  1  0  0  0
  9 10  1  0  0  0
 10 11  1  0  0  0
 11 12  1  0  0  0
 12 13  2  0  0  0
 13 14  1  0  0  0
 14 15  2  0  0  0
 15 16  1  0  0  0
 16 17  2  0  0  0
 17 18  1  0  0  0
 24 19  1  0  0  0
  8  3  1  0  0  0
 18  9  1  0  0  0
 17 12  1  0  0  0
M  END
> <minimizedAffinity>
-6.96881

> <CNNscore>
0.1350560188

> <CNNaffinity>
5.4717168808

> <CNN_VS>
0.7389882803

> <CNNaffinity_variance>
0.3596067429

$$$$
[H]c1nc(C([H])([H])N2C([H])([H])C([H])([H])C3(C(=O)N(c4c([H])c([H])c(C#N)c([H])c4[H])C(=O)N3c3c([H])c([H])c(C#N)c([H])c3[H])C([H])([H])C2([H])[H])c(C([H])([H])[H])c([H])c1[H]


 36 40  0  0  0  0  0  0  0  0999 V2000
  -90.0066   29.3331   -1.5026 N   0  0  0  0  0  0  0  0  0  0  0  0
  -89.2000   30.2268   -0.6847 C   0  0  0  0  0  0  0  0  0  0  0  0
  -89.6168   31.6412   -1.1600 C   0  0  0  0  0  0  0  0  0  0  0  0
  -88.9714   31.8050   -2.5303 C   0  0  0  0  0  0  0  0  0  0  0  0
  -88.6029   30.4866   -3.0913 C   0  0  0  0  0  0  0  0  0  0  0  0
  -89.7984   29.5429   -2.8283 C   0  0  0  0  0  0  0  0  0  0  0  0
  -87.9123   32.7466   -2.2925 N   0  0  0  0  0  0  0  0  0  0  0  0
  -88.2820   33.9386   -2.9214 C   0  0  0  0  0  0  0  0  0  0  0  0
  -87.6921   35.0595   -2.8909 O   0  0  0  0  0  0  0  0  0  0  0  0
  -89.5093   33.7584   -3.6874 N   0  0  0  0  0  0  0  0  0  0  0  0
  -89.8959   32.4521   -3.5204 C   0  0  0  0  0  0  0  0  0  0  0  0
  -90.8639   31.9300   -4.1258 O   0  0  0  0  0  0  0  0  0  0  0  0
  -89.9596   34.9444   -4.3632 C   0  0  0  0  0  0  0  0  0  0  0  0
  -89.4353   35.1036   -5.6760 C   0  0  0  0  0  0  0  0  0  0  0  0
  -89.5954   36.2990   -6.3034 C   0  0  0  0  0  0  0  0  0  0  0  0
  -90.2432   37.3418   -5.7060 C   0  0  0  0  0  0  0  0  0  0  0  0
  -90.7514   37.1690   -4.4309 C   0  0  0  0  0  0  0  0  0  0  0  0
  -90.6005   35.9472   -3.7635 C   0  0  0  0  0  0  0  0  0  0  0  0
  -90.3025   38.6187   -6.4070 C   0  0  0  0  0  0  0  0  0  0  0  0
  -90.3829   39.6369   -6.9607 N   0  0  0  0  0  0  0  0  0  0  0  0
  -86.7182   32.6272   -1.5487 C   0  0  0  0  0  0  0  0  0  0  0  0
  -86.6806   31.7838   -0.4696 C   0  0  0  0  0  0  0  0  0  0  0  0
  -85.5098   31.6695    0.2194 C   0  0  0  0  0  0  0  0  0  0  0  0
  -84.3958   32.3776   -0.1412 C   0  0  0  0  0  0  0  0  0  0  0  0
  -84.3759   33.2511   -1.2183 C   0  0  0  0  0  0  0  0  0  0  0  0
  -85.5713   33.3379   -1.8995 C   0  0  0  0  0  0  0  0  0  0  0  0
  -83.1559   32.2290    0.6146 C   0  0  0  0  0  0  0  0  0  0  0  0
  -82.1592   32.0835    1.2017 N   0  0  0  0  0  0  0  0  0  0  0  0
  -90.8376   28.5916   -0.7723 C   0  0  0  0  0  0  0  0  0  0  0  0
  -91.1264   28.7399    1.8896 C   0  0  0  0  0  0  0  0  0  0  0  0
  -90.8711   27.3723    1.3184 C   0  0  0  0  0  0  0  0  0  0  0  0
  -90.8346   26.2495    2.0911 C   0  0  0  0  0  0  0  0  0  0  0  0
  -90.3758   25.0653    1.5445 C   0  0  0  0  0  0  0  0  0  0  0  0
  -89.9764   25.1055    0.2074 C   0  0  0  0  0  0  0  0  0  0  0  0
  -90.0417   26.2486   -0.5194 N   0  0  0  0  0  0  0  0  0  0  0  0
  -90.4758   27.3947   -0.0243 C   0  0  0  0  0  0  0  0  0  0  0  0
 30 31  1  0  0  0
 31 32  2  0  0  0
 32 33  1  0  0  0
 33 34  2  0  0  0
 34 35  1  0  0  0
 35 36  2  0  0  0
 36 29  1  0  0  0
 29  1  1  0  0  0
  1  2  1  0  0  0
  2  3  1  0  0  0
  3  4  1  0  0  0
  4  5  1  0  0  0
  5  6  1  0  0  0
  4  7  1  0  0  0
  7  8  1  0  0  0
  8  9  2  0  0  0
  8 10  1  0  0  0
 10 11  1  0  0  0
 11 12  2  0  0  0
 10 13  1  0  0  0
 13 14  2  0  0  0
 14 15  1  0  0  0
 15 16  2  0  0  0
 16 17  1  0  0  0
 17 18  2  0  0  0
 16 19  1  0  0  0
 19 20  3  0  0  0
  7 21  1  0  0  0
 21 22  2  0  0  0
 22 23  1  0  0  0
 23 24  2  0  0  0
 24 25  1  0  0  0
 25 26  2  0  0  0
 24 27  1  0  0  0
 27 28  3  0  0  0
 36 31  1  0  0  0
  6  1  1  0  0  0
 18 13  1  0  0  0
 26 21  1  0  0  0
 11  4  1  0  0  0
M  END
> <minimizedAffinity>
-7.92916

> <CNNscore>
0.2025099397

> <CNNaffinity>
6.6390852928

> <CNN_VS>
1.3444807529

> <CNNaffinity_variance>
0.0787643790

$$$$
[H]c1nc(C([H])([H])N2C([H])([H])C([H])([H])C3(C(=O)N(c4c([H])c([H])c(C#N)c([H])c4[H])C(=O)N3c3c([H])c([H])c(C#N)c([H])c3[H])C([H])([H])C2([H])[H])c(C([H])([H])[H])c([H])c1[H]


 36 40  0  0  0  0  0  0  0  0999 V2000
  -90.4749   29.2647   -0.7318 N   0  0  0  0  0  0  0  0  0  0  0  0
  -89.4211   29.8896    0.0539 C   0  0  0  0  0  0  0  0  0  0  0  0
  -89.3900   31.3497   -0.4629 C   0  0  0  0  0  0  0  0  0  0  0  0
  -88.7452   31.2687   -1.8410 C   0  0  0  0  0  0  0  0  0  0  0  0
  -88.8077   29.8858   -2.3626 C   0  0  0  0  0  0  0  0  0  0  0  0
  -90.2313   29.3631   -2.0644 C   0  0  0  0  0  0  0  0  0  0  0  0
  -87.4448   31.8453   -1.6378 N   0  0  0  0  0  0  0  0  0  0  0  0
  -87.4394   33.0751   -2.3016 C   0  0  0  0  0  0  0  0  0  0  0  0
  -86.5333   33.9608   -2.3089 O   0  0  0  0  0  0  0  0  0  0  0  0
  -88.6736   33.2597   -3.0554 N   0  0  0  0  0  0  0  0  0  0  0  0
  -89.4403   32.1408   -2.8460 C   0  0  0  0  0  0  0  0  0  0  0  0
  -90.5305   31.9250   -3.4299 O   0  0  0  0  0  0  0  0  0  0  0  0
  -88.7474   34.5073   -3.7654 C   0  0  0  0  0  0  0  0  0  0  0  0
  -88.1168   34.4922   -5.0405 C   0  0  0  0  0  0  0  0  0  0  0  0
  -87.9121   35.6729   -5.6826 C   0  0  0  0  0  0  0  0  0  0  0  0
  -88.2955   36.8634   -5.1350 C   0  0  0  0  0  0  0  0  0  0  0  0
  -88.9119   36.8602   -3.8964 C   0  0  0  0  0  0  0  0  0  0  0  0
  -89.1349   35.6574   -3.2149 C   0  0  0  0  0  0  0  0  0  0  0  0
  -87.9674   38.0942   -5.8441 C   0  0  0  0  0  0  0  0  0  0  0  0
  -87.6764   39.0616   -6.4178 N   0  0  0  0  0  0  0  0  0  0  0  0
  -86.3346   31.3854   -0.8968 C   0  0  0  0  0  0  0  0  0  0  0  0
  -85.4811   32.2957   -0.3309 C   0  0  0  0  0  0  0  0  0  0  0  0
  -84.4287   31.8270    0.3980 C   0  0  0  0  0  0  0  0  0  0  0  0
  -84.2137   30.4856    0.5625 C   0  0  0  0  0  0  0  0  0  0  0  0
  -85.0384   29.5182    0.0079 C   0  0  0  0  0  0  0  0  0  0  0  0
  -86.0977   30.0236   -0.7152 C   0  0  0  0  0  0  0  0  0  0  0  0
  -83.0800   30.0161    1.3531 C   0  0  0  0  0  0  0  0  0  0  0  0
  -82.1557   29.6622    1.9692 N   0  0  0  0  0  0  0  0  0  0  0  0
  -91.4829   28.8355    0.0254 C   0  0  0  0  0  0  0  0  0  0  0  0
  -91.1862   26.1705    0.0553 C   0  0  0  0  0  0  0  0  0  0  0  0
  -90.9401   26.8868    1.3546 C   0  0  0  0  0  0  0  0  0  0  0  0
  -90.5386   26.2387    2.4851 C   0  0  0  0  0  0  0  0  0  0  0  0
  -90.5482   26.9127    3.6922 C   0  0  0  0  0  0  0  0  0  0  0  0
  -90.9759   28.2414    3.6647 C   0  0  0  0  0  0  0  0  0  0  0  0
  -91.3566   28.8414    2.5096 N   0  0  0  0  0  0  0  0  0  0  0  0
  -91.3575   28.2229    1.3415 C   0  0  0  0  0  0  0  0  0  0  0  0
 30 31  1  0  0  0
 31 32  2  0  0  0
 32 33  1  0  0  0
 33 34  2  0  0  0
 34 35  1  0  0  0
 35 36  2  0  0  0
 36 29  1  0  0  0
 29  1  1  0  0  0
  1  2  1  0  0  0
  2  3  1  0  0  0
  3  4  1  0  0  0
  4  5  1  0  0  0
  5  6  1  0  0  0
  4  7  1  0  0  0
  7  8  1  0  0  0
  8  9  2  0  0  0
  8 10  1  0  0  0
 10 11  1  0  0  0
 11 12  2  0  0  0
 10 13  1  0  0  0
 13 14  2  0  0  0
 14 15  1  0  0  0
 15 16  2  0  0  0
 16 17  1  0  0  0
 17 18  2  0  0  0
 16 19  1  0  0  0
 19 20  3  0  0  0
  7 21  1  0  0  0
 21 22  2  0  0  0
 22 23  1  0  0  0
 23 24  2  0  0  0
 24 25  1  0  0  0
 25 26  2  0  0  0
 24 27  1  0  0  0
 27 28  3  0  0  0
 36 31  1  0  0  0
  6  1  1  0  0  0
 18 13  1  0  0  0
 26 21  1  0  0  0
 11  4  1  0  0  0
M  END
> <minimizedAffinity>
-8.74634

> <CNNscore>
0.1417306364

> <CNNaffinity>
6.7412972450

> <CNN_VS>
0.9554483294

> <CNNaffinity_variance>
0.0985127836

$$$$
[H]c1nc(C([H])([H])N2C([H])([H])C([H])([H])C3(C(=O)N(c4c([H])c([H])c(C#N)c([H])c4[H])C(=O)N3c3c([H])c([H])c(C#N)c([H])c3[H])C([H])([H])C2([H])[H])c(C([H])([H])[H])c([H])c1[H]


 36 40  0  0  0  0  0  0  0  0999 V2000
  -90.5253   27.2548   -1.6401 N   0  0  0  0  0  0  0  0  0  0  0  0
  -89.7823   27.7542   -0.4925 C   0  0  0  0  0  0  0  0  0  0  0  0
  -89.6884   29.2795   -0.7473 C   0  0  0  0  0  0  0  0  0  0  0  0
  -88.6688   29.4318   -1.8692 C   0  0  0  0  0  0  0  0  0  0  0  0
  -88.4967   28.1521   -2.5912 C   0  0  0  0  0  0  0  0  0  0  0  0
  -89.9127   27.5724   -2.8100 C   0  0  0  0  0  0  0  0  0  0  0  0
  -87.5188   29.9814   -1.2057 N   0  0  0  0  0  0  0  0  0  0  0  0
  -87.3934   31.3032   -1.6419 C   0  0  0  0  0  0  0  0  0  0  0  0
  -86.5774   32.1879   -1.2459 O   0  0  0  0  0  0  0  0  0  0  0  0
  -88.3653   31.5952   -2.6887 N   0  0  0  0  0  0  0  0  0  0  0  0
  -89.0930   30.4488   -2.8886 C   0  0  0  0  0  0  0  0  0  0  0  0
  -89.9530   30.3196   -3.7941 O   0  0  0  0  0  0  0  0  0  0  0  0
  -88.3032   32.9412   -3.1891 C   0  0  0  0  0  0  0  0  0  0  0  0
  -89.2196   33.8371   -2.5715 C   0  0  0  0  0  0  0  0  0  0  0  0
  -89.4176   35.0594   -3.1326 C   0  0  0  0  0  0  0  0  0  0  0  0
  -88.7615   35.4431   -4.2668 C   0  0  0  0  0  0  0  0  0  0  0  0
  -87.8700   34.5619   -4.8523 C   0  0  0  0  0  0  0  0  0  0  0  0
  -87.6477   33.2973   -4.2934 C   0  0  0  0  0  0  0  0  0  0  0  0
  -89.0879   36.7356   -4.8569 C   0  0  0  0  0  0  0  0  0  0  0  0
  -89.3652   37.7735   -5.2994 N   0  0  0  0  0  0  0  0  0  0  0  0
  -86.6457   29.4186   -0.2496 C   0  0  0  0  0  0  0  0  0  0  0  0
  -86.9863   28.2392    0.3590 C   0  0  0  0  0  0  0  0  0  0  0  0
  -86.1166   27.7048    1.2626 C   0  0  0  0  0  0  0  0  0  0  0  0
  -84.9346   28.3225    1.5692 C   0  0  0  0  0  0  0  0  0  0  0  0
  -84.5401   29.5202    0.9917 C   0  0  0  0  0  0  0  0  0  0  0  0
  -85.4360   30.0300    0.0764 C   0  0  0  0  0  0  0  0  0  0  0  0
  -84.0229   27.7216    2.5379 C   0  0  0  0  0  0  0  0  0  0  0  0
  -83.2698   27.2516    3.2936 N   0  0  0  0  0  0  0  0  0  0  0  0
  -91.6824   26.6967   -1.2891 C   0  0  0  0  0  0  0  0  0  0  0  0
  -93.8264   27.0295   -2.8650 C   0  0  0  0  0  0  0  0  0  0  0  0
  -93.1879   25.6680   -2.8810 C   0  0  0  0  0  0  0  0  0  0  0  0
  -93.6308   24.6593   -3.6844 C   0  0  0  0  0  0  0  0  0  0  0  0
  -93.1505   23.3774   -3.4899 C   0  0  0  0  0  0  0  0  0  0  0  0
  -92.2217   23.2055   -2.4618 C   0  0  0  0  0  0  0  0  0  0  0  0
  -91.8077   24.2462   -1.6971 N   0  0  0  0  0  0  0  0  0  0  0  0
  -92.2487   25.4815   -1.8598 C   0  0  0  0  0  0  0  0  0  0  0  0
 30 31  1  0  0  0
 31 32  2  0  0  0
 32 33  1  0  0  0
 33 34  2  0  0  0
 34 35  1  0  0  0
 35 36  2  0  0  0
 36 29  1  0  0  0
 29  1  1  0  0  0
  1  2  1  0  0  0
  2  3  1  0  0  0
  3  4  1  0  0  0
  4  5  1  0  0  0
  5  6  1  0  0  0
  4  7  1  0  0  0
  7  8  1  0  0  0
  8  9  2  0  0  0
  8 10  1  0  0  0
 10 11  1  0  0  0
 11 12  2  0  0  0
 10 13  1  0  0  0
 13 14  2  0  0  0
 14 15  1  0  0  0
 15 16  2  0  0  0
 16 17  1  0  0  0
 17 18  2  0  0  0
 16 19  1  0  0  0
 19 20  3  0  0  0
  7 21  1  0  0  0
 21 22  2  0  0  0
 22 23  1  0  0  0
 23 24  2  0  0  0
 24 25  1  0  0  0
 25 26  2  0  0  0
 24 27  1  0  0  0
 27 28  3  0  0  0
 36 31  1  0  0  0
  6  1  1  0  0  0
 18 13  1  0  0  0
 26 21  1  0  0  0
 11  4  1  0  0  0
M  END
> <minimizedAffinity>
-8.51438

> <CNNscore>
0.0995316133

> <CNNaffinity>
6.5056333542

> <CNN_VS>
0.6475161910

> <CNNaffinity_variance>
0.0776188076

$$$$
[H]c1nc(C([H])([H])N2C([H])([H])C([H])([H])C3(C(=O)N(c4c([H])c([H])c(C#N)c([H])c4[H])C(=O)N3c3c([H])c([H])c(C#N)c([H])c3[H])C([H])([H])C2([H])[H])c(C([H])([H])[H])c([H])c1[H]


 36 40  0  0  0  0  0  0  0  0999 V2000
  -86.9147   32.5560    0.2318 N   0  0  0  0  0  0  0  0  0  0  0  0
  -86.8335   31.3274   -0.5442 C   0  0  0  0  0  0  0  0  0  0  0  0
  -87.0398   31.7981   -2.0057 C   0  0  0  0  0  0  0  0  0  0  0  0
  -88.5224   32.1343   -2.1082 C   0  0  0  0  0  0  0  0  0  0  0  0
  -89.1028   32.3365   -0.7626 C   0  0  0  0  0  0  0  0  0  0  0  0
  -88.0944   33.1984    0.0306 C   0  0  0  0  0  0  0  0  0  0  0  0
  -89.0544   31.0664   -2.9089 N   0  0  0  0  0  0  0  0  0  0  0  0
  -89.3956   31.6196   -4.1461 C   0  0  0  0  0  0  0  0  0  0  0  0
  -89.8108   31.0258   -5.1855 O   0  0  0  0  0  0  0  0  0  0  0  0
  -89.2223   33.0672   -4.1291 N   0  0  0  0  0  0  0  0  0  0  0  0
  -88.7664   33.3998   -2.8780 C   0  0  0  0  0  0  0  0  0  0  0  0
  -88.6057   34.5821   -2.4875 O   0  0  0  0  0  0  0  0  0  0  0  0
  -89.5497   33.7127   -5.3709 C   0  0  0  0  0  0  0  0  0  0  0  0
  -88.7810   34.8781   -5.6440 C   0  0  0  0  0  0  0  0  0  0  0  0
  -89.1722   35.6968   -6.6565 C   0  0  0  0  0  0  0  0  0  0  0  0
  -90.2777   35.4271   -7.4109 C   0  0  0  0  0  0  0  0  0  0  0  0
  -91.0115   34.2871   -7.1354 C   0  0  0  0  0  0  0  0  0  0  0  0
  -90.6291   33.4272   -6.0985 C   0  0  0  0  0  0  0  0  0  0  0  0
  -90.6827   36.3942   -8.4239 C   0  0  0  0  0  0  0  0  0  0  0  0
  -91.0337   37.1705   -9.2138 N   0  0  0  0  0  0  0  0  0  0  0  0
  -89.2048   29.6899   -2.6331 C   0  0  0  0  0  0  0  0  0  0  0  0
  -90.4585   29.1371   -2.6373 C   0  0  0  0  0  0  0  0  0  0  0  0
  -90.5755   27.8017   -2.3894 C   0  0  0  0  0  0  0  0  0  0  0  0
  -89.4796   27.0229   -2.1343 C   0  0  0  0  0  0  0  0  0  0  0  0
  -88.1879   27.5274   -2.1095 C   0  0  0  0  0  0  0  0  0  0  0  0
  -88.1020   28.8779   -2.3724 C   0  0  0  0  0  0  0  0  0  0  0  0
  -89.6386   25.5948   -1.8775 C   0  0  0  0  0  0  0  0  0  0  0  0
  -89.7338   24.4504   -1.6760 N   0  0  0  0  0  0  0  0  0  0  0  0
  -85.7799   32.8230    0.8757 C   0  0  0  0  0  0  0  0  0  0  0  0
  -85.1105   31.3080    2.9846 C   0  0  0  0  0  0  0  0  0  0  0  0
  -84.3191   31.0897    1.7246 C   0  0  0  0  0  0  0  0  0  0  0  0
  -83.3433   30.1424    1.6258 C   0  0  0  0  0  0  0  0  0  0  0  0
  -82.5066   30.1436    0.5251 C   0  0  0  0  0  0  0  0  0  0  0  0
  -82.7290   31.1372   -0.4300 C   0  0  0  0  0  0  0  0  0  0  0  0
  -83.7208   32.0510   -0.2869 N   0  0  0  0  0  0  0  0  0  0  0  0
  -84.5358   32.0742    0.7534 C   0  0  0  0  0  0  0  0  0  0  0  0
 30 31  1  0  0  0
 31 32  2  0  0  0
 32 33  1  0  0  0
 33 34  2  0  0  0
 34 35  1  0  0  0
 35 36  2  0  0  0
 36 29  1  0  0  0
 29  1  1  0  0  0
  1  2  1  0  0  0
  2  3  1  0  0  0
  3  4  1  0  0  0
  4  5  1  0  0  0
  5  6  1  0  0  0
  4  7  1  0  0  0
  7  8  1  0  0  0
  8  9  2  0  0  0
  8 10  1  0  0  0
 10 11  1  0  0  0
 11 12  2  0  0  0
 10 13  1  0  0  0
 13 14  2  0  0  0
 14 15  1  0  0  0
 15 16  2  0  0  0
 16 17  1  0  0  0
 17 18  2  0  0  0
 16 19  1  0  0  0
 19 20  3  0  0  0
  7 21  1  0  0  0
 21 22  2  0  0  0
 22 23  1  0  0  0
 23 24  2  0  0  0
 24 25  1  0  0  0
 25 26  2  0  0  0
 24 27  1  0  0  0
 27 28  3  0  0  0
 36 31  1  0  0  0
  6  1  1  0  0  0
 18 13  1  0  0  0
 26 21  1  0  0  0
 11  4  1  0  0  0
M  END
> <minimizedAffinity>
-5.90526

> <CNNscore>
0.0804474875

> <CNNaffinity>
6.3485369682

> <CNN_VS>
0.5107238293

> <CNNaffinity_variance>
0.1694465429

$$$$
[H]c1nc(C([H])([H])N2C([H])([H])C([H])([H])C3(C(=O)N(c4c([H])c([H])c(C#N)c([H])c4[H])C(=O)N3c3c([H])c([H])c(C#N)c([H])c3[H])C([H])([H])C2([H])[H])c(C([H])([H])[H])c([H])c1[H]


 36 40  0  0  0  0  0  0  0  0999 V2000
  -91.3605   24.4299   -1.5601 N   0  0  0  0  0  0  0  0  0  0  0  0
  -91.7318   25.2846   -0.4421 C   0  0  0  0  0  0  0  0  0  0  0  0
  -91.6744   26.7149   -1.0343 C   0  0  0  0  0  0  0  0  0  0  0  0
  -90.1897   27.0232   -1.1828 C   0  0  0  0  0  0  0  0  0  0  0  0
  -89.3962   25.7748   -1.1634 C   0  0  0  0  0  0  0  0  0  0  0  0
  -90.1420   24.7610   -2.0605 C   0  0  0  0  0  0  0  0  0  0  0  0
  -89.9411   27.9860   -0.1456 N   0  0  0  0  0  0  0  0  0  0  0  0
  -89.7071   29.2103   -0.7778 C   0  0  0  0  0  0  0  0  0  0  0  0
  -89.5387   30.3490   -0.2484 O   0  0  0  0  0  0  0  0  0  0  0  0
  -89.6636   29.0431   -2.2254 N   0  0  0  0  0  0  0  0  0  0  0  0
  -89.8791   27.7118   -2.4801 C   0  0  0  0  0  0  0  0  0  0  0  0
  -89.8074   27.2018   -3.6251 O   0  0  0  0  0  0  0  0  0  0  0  0
  -89.4303   30.2619   -2.9508 C   0  0  0  0  0  0  0  0  0  0  0  0
  -88.1364   30.3558   -3.5346 C   0  0  0  0  0  0  0  0  0  0  0  0
  -87.7263   31.5555   -4.0255 C   0  0  0  0  0  0  0  0  0  0  0  0
  -88.5226   32.6631   -3.9711 C   0  0  0  0  0  0  0  0  0  0  0  0
  -89.7800   32.5536   -3.4045 C   0  0  0  0  0  0  0  0  0  0  0  0
  -90.2263   31.3291   -2.8925 C   0  0  0  0  0  0  0  0  0  0  0  0
  -87.9827   33.9331   -4.4413 C   0  0  0  0  0  0  0  0  0  0  0  0
  -87.5222   34.9307   -4.8189 N   0  0  0  0  0  0  0  0  0  0  0  0
  -89.9539   27.8555    1.2601 C   0  0  0  0  0  0  0  0  0  0  0  0
  -88.9187   27.2103    1.8842 C   0  0  0  0  0  0  0  0  0  0  0  0
  -88.9434   27.1161    3.2440 C   0  0  0  0  0  0  0  0  0  0  0  0
  -89.9717   27.6407    3.9788 C   0  0  0  0  0  0  0  0  0  0  0  0
  -91.0491   28.2973    3.4026 C   0  0  0  0  0  0  0  0  0  0  0  0
  -90.9906   28.3838    2.0280 C   0  0  0  0  0  0  0  0  0  0  0  0
  -89.9658   27.5272    5.4340 C   0  0  0  0  0  0  0  0  0  0  0  0
  -89.9297   27.4293    6.5952 N   0  0  0  0  0  0  0  0  0  0  0  0
  -92.3384   23.5934   -1.9033 C   0  0  0  0  0  0  0  0  0  0  0  0
  -93.7410   21.3868   -2.4990 C   0  0  0  0  0  0  0  0  0  0  0  0
  -94.0313   22.6090   -3.3258 C   0  0  0  0  0  0  0  0  0  0  0  0
  -94.9879   22.6274   -4.2974 C   0  0  0  0  0  0  0  0  0  0  0  0
  -95.0507   23.7009   -5.1664 C   0  0  0  0  0  0  0  0  0  0  0  0
  -94.1089   24.7144   -4.9795 C   0  0  0  0  0  0  0  0  0  0  0  0
  -93.1833   24.6504   -3.9903 N   0  0  0  0  0  0  0  0  0  0  0  0
  -93.0994   23.6378   -3.1450 C   0  0  0  0  0  0  0  0  0  0  0  0
 30 31  1  0  0  0
 31 32  2  0  0  0
 32 33  1  0  0  0
 33 34  2  0  0  0
 34 35  1  0  0  0
 35 36  2  0  0  0
 36 29  1  0  0  0
 29  1  1  0  0  0
  1  2  1  0  0  0
  2  3  1  0  0  0
  3  4  1  0  0  0
  4  5  1  0  0  0
  5  6  1  0  0  0
  4  7  1  0  0  0
  7  8  1  0  0  0
  8  9  2  0  0  0
  8 10  1  0  0  0
 10 11  1  0  0  0
 11 12  2  0  0  0
 10 13  1  0  0  0
 13 14  2  0  0  0
 14 15  1  0  0  0
 15 16  2  0  0  0
 16 17  1  0  0  0
 17 18  2  0  0  0
 16 19  1  0  0  0
 19 20  3  0  0  0
  7 21  1  0  0  0
 21 22  2  0  0  0
 22 23  1  0  0  0
 23 24  2  0  0  0
 24 25  1  0  0  0
 25 26  2  0  0  0
 24 27  1  0  0  0
 27 28  3  0  0  0
 36 31  1  0  0  0
  6  1  1  0  0  0
 18 13  1  0  0  0
 26 21  1  0  0  0
 11  4  1  0  0  0
M  END
> <minimizedAffinity>
-7.86699

> <CNNscore>
0.0745683312

> <CNNaffinity>
5.7837781906

> <CNN_VS>
0.4312866926

> <CNNaffinity_variance>
0.3590696454

$$$$
[H]c1nc(C([H])([H])N2C([H])([H])C([H])([H])C3(C(=O)N(c4c([H])c([H])c(C#N)c([H])c4[H])C(=O)N3c3c([H])c([H])c(C#N)c([H])c3[H])C([H])([H])C2([H])[H])c(C([H])([H])[H])c([H])c1[H]


 36 40  0  0  0  0  0  0  0  0999 V2000
  -87.9579   31.4100   -1.6999 N   0  0  0  0  0  0  0  0  0  0  0  0
  -89.3359   31.8782   -1.7127 C   0  0  0  0  0  0  0  0  0  0  0  0
  -90.1551   30.6296   -1.3005 C   0  0  0  0  0  0  0  0  0  0  0  0
  -90.1250   29.7157   -2.5191 C   0  0  0  0  0  0  0  0  0  0  0  0
  -89.0161   30.0926   -3.4230 C   0  0  0  0  0  0  0  0  0  0  0  0
  -87.7819   30.3483   -2.5284 C   0  0  0  0  0  0  0  0  0  0  0  0
  -91.4630   29.8005   -3.0360 N   0  0  0  0  0  0  0  0  0  0  0  0
  -92.0687   28.5642   -2.7955 C   0  0  0  0  0  0  0  0  0  0  0  0
  -93.2723   28.2252   -2.9999 O   0  0  0  0  0  0  0  0  0  0  0  0
  -91.1060   27.6162   -2.2478 N   0  0  0  0  0  0  0  0  0  0  0  0
  -89.9078   28.2779   -2.1462 C   0  0  0  0  0  0  0  0  0  0  0  0
  -88.8344   27.7248   -1.8026 O   0  0  0  0  0  0  0  0  0  0  0  0
  -91.6544   26.3173   -1.9681 C   0  0  0  0  0  0  0  0  0  0  0  0
  -91.7557   25.4686   -3.1054 C   0  0  0  0  0  0  0  0  0  0  0  0
  -92.4811   24.3234   -3.0038 C   0  0  0  0  0  0  0  0  0  0  0  0
  -93.1095   23.9725   -1.8436 C   0  0  0  0  0  0  0  0  0  0  0  0
  -92.9969   24.8064   -0.7454 C   0  0  0  0  0  0  0  0  0  0  0  0
  -92.2548   25.9913   -0.8240 C   0  0  0  0  0  0  0  0  0  0  0  0
  -93.9378   22.7728   -1.8352 C   0  0  0  0  0  0  0  0  0  0  0  0
  -94.6248   21.8359   -1.8353 N   0  0  0  0  0  0  0  0  0  0  0  0
  -92.1559   30.8734   -3.6378 C   0  0  0  0  0  0  0  0  0  0  0  0
  -93.3260   31.3153   -3.0785 C   0  0  0  0  0  0  0  0  0  0  0  0
  -93.9651   32.3666   -3.6656 C   0  0  0  0  0  0  0  0  0  0  0  0
  -93.4668   32.9698   -4.7884 C   0  0  0  0  0  0  0  0  0  0  0  0
  -92.2921   32.5619   -5.4027 C   0  0  0  0  0  0  0  0  0  0  0  0
  -91.6654   31.5034   -4.7806 C   0  0  0  0  0  0  0  0  0  0  0  0
  -94.1729   34.0967   -5.3901 C   0  0  0  0  0  0  0  0  0  0  0  0
  -94.7093   35.0135   -5.8709 N   0  0  0  0  0  0  0  0  0  0  0  0
  -87.2127   32.0569   -0.8054 C   0  0  0  0  0  0  0  0  0  0  0  0
  -84.8563   33.3137   -1.0478 C   0  0  0  0  0  0  0  0  0  0  0  0
  -84.9558   32.2806    0.0405 C   0  0  0  0  0  0  0  0  0  0  0  0
  -83.9299   32.0186    0.8996 C   0  0  0  0  0  0  0  0  0  0  0  0
  -84.0026   30.9113    1.7243 C   0  0  0  0  0  0  0  0  0  0  0  0
  -85.1508   30.1243    1.6172 C   0  0  0  0  0  0  0  0  0  0  0  0
  -86.1470   30.4355    0.7511 N   0  0  0  0  0  0  0  0  0  0  0  0
  -86.1055   31.4869   -0.0488 C   0  0  0  0  0  0  0  0  0  0  0  0
 30 31  1  0  0  0
 31 32  2  0  0  0
 32 33  1  0  0  0
 33 34  2  0  0  0
 34 35  1  0  0  0
 35 36  2  0  0  0
 36 29  1  0  0  0
 29  1  1  0  0  0
  1  2  1  0  0  0
  2  3  1  0  0  0
  3  4  1  0  0  0
  4  5  1  0  0  0
  5  6  1  0  0  0
  4  7  1  0  0  0
  7  8  1  0  0  0
  8  9  2  0  0  0
  8 10  1  0  0  0
 10 11  1  0  0  0
 11 12  2  0  0  0
 10 13  1  0  0  0
 13 14  2  0  0  0
 14 15  1  0  0  0
 15 16  2  0  0  0
 16 17  1  0  0  0
 17 18  2  0  0  0
 16 19  1  0  0  0
 19 20  3  0  0  0
  7 21  1  0  0  0
 21 22  2  0  0  0
 22 23  1  0  0  0
 23 24  2  0  0  0
 24 25  1  0  0  0
 25 26  2  0  0  0
 24 27  1  0  0  0
 27 28  3  0  0  0
 36 31  1  0  0  0
  6  1  1  0  0  0
 18 13  1  0  0  0
 26 21  1  0  0  0
 11  4  1  0  0  0
M  END
> <minimizedAffinity>
-7.14917

> <CNNscore>
0.0689292327

> <CNNaffinity>
5.8247866631

> <CNN_VS>
0.4014980793

> <CNNaffinity_variance>
0.2256615162

$$$$
[H]c1nc(C([H])([H])N2C([H])([H])C([H])([H])C3(C(=O)N(c4c([H])c([H])c(C#N)c([H])c4[H])C(=O)N3c3c([H])c([H])c(C#N)c([H])c3[H])C([H])([H])C2([H])[H])c(C([H])([H])[H])c([H])c1[H]


 36 40  0  0  0  0  0  0  0  0999 V2000
  -90.7556   29.2899   -1.7072 N   0  0  0  0  0  0  0  0  0  0  0  0
  -89.8493   29.7396   -0.6609 C   0  0  0  0  0  0  0  0  0  0  0  0
  -89.6412   31.2429   -0.9719 C   0  0  0  0  0  0  0  0  0  0  0  0
  -88.7393   31.2724   -2.1995 C   0  0  0  0  0  0  0  0  0  0  0  0
  -88.7669   29.9671   -2.8952 C   0  0  0  0  0  0  0  0  0  0  0  0
  -90.2462   29.5221   -2.9447 C   0  0  0  0  0  0  0  0  0  0  0  0
  -87.4779   31.7226   -1.6790 N   0  0  0  0  0  0  0  0  0  0  0  0
  -87.2773   33.0166   -2.1673 C   0  0  0  0  0  0  0  0  0  0  0  0
  -86.3440   33.8266   -1.8878 O   0  0  0  0  0  0  0  0  0  0  0  0
  -88.3252   33.3786   -3.1141 N   0  0  0  0  0  0  0  0  0  0  0  0
  -89.1744   32.3038   -3.1999 C   0  0  0  0  0  0  0  0  0  0  0  0
  -90.1357   32.2389   -4.0048 O   0  0  0  0  0  0  0  0  0  0  0  0
  -88.1920   34.7015   -3.6603 C   0  0  0  0  0  0  0  0  0  0  0  0
  -89.1705   35.6254   -3.1991 C   0  0  0  0  0  0  0  0  0  0  0  0
  -89.2889   36.8226   -3.8322 C   0  0  0  0  0  0  0  0  0  0  0  0
  -88.4956   37.1552   -4.8924 C   0  0  0  0  0  0  0  0  0  0  0  0
  -87.5457   36.2474   -5.3255 C   0  0  0  0  0  0  0  0  0  0  0  0
  -87.4032   35.0079   -4.6898 C   0  0  0  0  0  0  0  0  0  0  0  0
  -88.7373   38.4216   -5.5730 C   0  0  0  0  0  0  0  0  0  0  0  0
  -88.9439   39.4427   -6.0873 N   0  0  0  0  0  0  0  0  0  0  0  0
  -86.5629   31.0986   -0.8034 C   0  0  0  0  0  0  0  0  0  0  0  0
  -86.3541   29.7479   -0.9012 C   0  0  0  0  0  0  0  0  0  0  0  0
  -85.4497   29.1723   -0.0590 C   0  0  0  0  0  0  0  0  0  0  0  0
  -84.7665   29.9100    0.8693 C   0  0  0  0  0  0  0  0  0  0  0  0
  -84.9413   31.2777    1.0196 C   0  0  0  0  0  0  0  0  0  0  0  0
  -85.8550   31.8312    0.1483 C   0  0  0  0  0  0  0  0  0  0  0  0
  -83.8010   29.2641    1.7531 C   0  0  0  0  0  0  0  0  0  0  0  0
  -83.0474   28.7576    2.4844 N   0  0  0  0  0  0  0  0  0  0  0  0
  -91.9150   28.8535   -1.2183 C   0  0  0  0  0  0  0  0  0  0  0  0
  -93.8340   27.9527   -2.8606 C   0  0  0  0  0  0  0  0  0  0  0  0
  -93.0923   26.9150   -2.0639 C   0  0  0  0  0  0  0  0  0  0  0  0
  -93.3345   25.5794   -2.1931 C   0  0  0  0  0  0  0  0  0  0  0  0
  -92.7851   24.6995   -1.2789 C   0  0  0  0  0  0  0  0  0  0  0  0
  -92.0005   25.2559   -0.2671 C   0  0  0  0  0  0  0  0  0  0  0  0
  -91.7839   26.5925   -0.1898 N   0  0  0  0  0  0  0  0  0  0  0  0
  -92.2953   27.4571   -1.0488 C   0  0  0  0  0  0  0  0  0  0  0  0
 30 31  1  0  0  0
 31 32  2  0  0  0
 32 33  1  0  0  0
 33 34  2  0  0  0
 34 35  1  0  0  0
 35 36  2  0  0  0
 36 29  1  0  0  0
 29  1  1  0  0  0
  1  2  1  0  0  0
  2  3  1  0  0  0
  3  4  1  0  0  0
  4  5  1  0  0  0
  5  6  1  0  0  0
  4  7  1  0  0  0
  7  8  1  0  0  0
  8  9  2  0  0  0
  8 10  1  0  0  0
 10 11  1  0  0  0
 11 12  2  0  0  0
 10 13  1  0  0  0
 13 14  2  0  0  0
 14 15  1  0  0  0
 15 16  2  0  0  0
 16 17  1  0  0  0
 17 18  2  0  0  0
 16 19  1  0  0  0
 19 20  3  0  0  0
  7 21  1  0  0  0
 21 22  2  0  0  0
 22 23  1  0  0  0
 23 24  2  0  0  0
 24 25  1  0  0  0
 25 26  2  0  0  0
 24 27  1  0  0  0
 27 28  3  0  0  0
 36 31  1  0  0  0
  6  1  1  0  0  0
 18 13  1  0  0  0
 26 21  1  0  0  0
 11  4  1  0  0  0
M  END
> <minimizedAffinity>
-7.97354

> <CNNscore>
0.0683981851

> <CNNaffinity>
6.3859963417

> <CNN_VS>
0.4367905557

> <CNNaffinity_variance>
0.0989575833

$$$$
[H]c1nc(C([H])([H])N2C([H])([H])C([H])([H])C3(C(=O)N(c4c([H])c([H])c(C#N)c([H])c4[H])C(=O)N3c3c([H])c([H])c(C#N)c([H])c3[H])C([H])([H])C2([H])[H])c(C([H])([H])[H])c([H])c1[H]


 36 40  0  0  0  0  0  0  0  0999 V2000
  -87.1071   32.5280   -3.4644 N   0  0  0  0  0  0  0  0  0  0  0  0
  -88.1667   33.4903   -3.2007 C   0  0  0  0  0  0  0  0  0  0  0  0
  -89.3671   32.6107   -2.7699 C   0  0  0  0  0  0  0  0  0  0  0  0
  -89.8565   31.9520   -4.0536 C   0  0  0  0  0  0  0  0  0  0  0  0
  -88.8067   32.0009   -5.0948 C   0  0  0  0  0  0  0  0  0  0  0  0
  -87.4780   31.6194   -4.4034 C   0  0  0  0  0  0  0  0  0  0  0  0
  -91.0958   32.6262   -4.3259 N   0  0  0  0  0  0  0  0  0  0  0  0
  -92.1182   31.7008   -4.0989 C   0  0  0  0  0  0  0  0  0  0  0  0
  -93.3707   31.8905   -4.1257 O   0  0  0  0  0  0  0  0  0  0  0  0
  -91.5660   30.3827   -3.8106 N   0  0  0  0  0  0  0  0  0  0  0  0
  -90.1996   30.5041   -3.8545 C   0  0  0  0  0  0  0  0  0  0  0  0
  -89.4109   29.5329   -3.7496 O   0  0  0  0  0  0  0  0  0  0  0  0
  -92.5573   29.3723   -3.5605 C   0  0  0  0  0  0  0  0  0  0  0  0
  -92.4920   28.7988   -2.2602 C   0  0  0  0  0  0  0  0  0  0  0  0
  -93.2120   27.6743   -2.0048 C   0  0  0  0  0  0  0  0  0  0  0  0
  -93.9903   27.0880   -2.9611 C   0  0  0  0  0  0  0  0  0  0  0  0
  -94.0466   27.6611   -4.2191 C   0  0  0  0  0  0  0  0  0  0  0  0
  -93.3151   28.8198   -4.5073 C   0  0  0  0  0  0  0  0  0  0  0  0
  -94.6670   25.8377   -2.6384 C   0  0  0  0  0  0  0  0  0  0  0  0
  -95.2114   24.8361   -2.4140 N   0  0  0  0  0  0  0  0  0  0  0  0
  -91.3593   33.9613   -4.7018 C   0  0  0  0  0  0  0  0  0  0  0  0
  -91.8814   34.2194   -5.9420 C   0  0  0  0  0  0  0  0  0  0  0  0
  -92.1472   35.5147   -6.2733 C   0  0  0  0  0  0  0  0  0  0  0  0
  -91.8976   36.5411   -5.4034 C   0  0  0  0  0  0  0  0  0  0  0  0
  -91.3634   36.3421   -4.1390 C   0  0  0  0  0  0  0  0  0  0  0  0
  -91.1142   35.0218   -3.8307 C   0  0  0  0  0  0  0  0  0  0  0  0
  -92.1981   37.9171   -5.7870 C   0  0  0  0  0  0  0  0  0  0  0  0
  -92.4571   39.0049   -6.1168 N   0  0  0  0  0  0  0  0  0  0  0  0
  -86.0625   32.6920   -2.6547 C   0  0  0  0  0  0  0  0  0  0  0  0
  -86.6819   30.1752   -1.9669 C   0  0  0  0  0  0  0  0  0  0  0  0
  -86.0960   31.0406   -0.8854 C   0  0  0  0  0  0  0  0  0  0  0  0
  -85.8401   30.5736    0.3698 C   0  0  0  0  0  0  0  0  0  0  0  0
  -85.5162   31.4685    1.3728 C   0  0  0  0  0  0  0  0  0  0  0  0
  -85.4706   32.8179    1.0180 C   0  0  0  0  0  0  0  0  0  0  0  0
  -85.7255   33.2283   -0.2493 N   0  0  0  0  0  0  0  0  0  0  0  0
  -86.0371   32.3965   -1.2281 C   0  0  0  0  0  0  0  0  0  0  0  0
 30 31  1  0  0  0
 31 32  2  0  0  0
 32 33  1  0  0  0
 33 34  2  0  0  0
 34 35  1  0  0  0
 35 36  2  0  0  0
 36 29  1  0  0  0
 29  1  1  0  0  0
  1  2  1  0  0  0
  2  3  1  0  0  0
  3  4  1  0  0  0
  4  5  1  0  0  0
  5  6  1  0  0  0
  4  7  1  0  0  0
  7  8  1  0  0  0
  8  9  2  0  0  0
  8 10  1  0  0  0
 10 11  1  0  0  0
 11 12  2  0  0  0
 10 13  1  0  0  0
 13 14  2  0  0  0
 14 15  1  0  0  0
 15 16  2  0  0  0
 16 17  1  0  0  0
 17 18  2  0  0  0
 16 19  1  0  0  0
 19 20  3  0  0  0
  7 21  1  0  0  0
 21 22  2  0  0  0
 22 23  1  0  0  0
 23 24  2  0  0  0
 24 25  1  0  0  0
 25 26  2  0  0  0
 24 27  1  0  0  0
 27 28  3  0  0  0
 36 31  1  0  0  0
  6  1  1  0  0  0
 18 13  1  0  0  0
 26 21  1  0  0  0
 11  4  1  0  0  0
M  END
> <minimizedAffinity>
-3.92823

> <CNNscore>
0.0661621392

> <CNNaffinity>
5.8797097206

> <CNN_VS>
0.3890141845

> <CNNaffinity_variance>
0.2850605845

$$$$
[H]c1nc(C([H])([H])N2C([H])([H])C([H])([H])C3(C(=O)N(c4c([H])c([H])c(C#N)c([H])c4[H])C(=O)N3c3c([H])c([H])c(C#N)c([H])c3[H])C([H])([H])C2([H])[H])c(C([H])([H])[H])c([H])c1[H]


 36 40  0  0  0  0  0  0  0  0999 V2000
  -87.4615   30.0559   -0.7512 N   0  0  0  0  0  0  0  0  0  0  0  0
  -88.2455   29.6566   -1.9106 C   0  0  0  0  0  0  0  0  0  0  0  0
  -88.0879   30.8452   -2.8916 C   0  0  0  0  0  0  0  0  0  0  0  0
  -88.9448   31.9599   -2.3046 C   0  0  0  0  0  0  0  0  0  0  0  0
  -89.2207   31.7035   -0.8740 C   0  0  0  0  0  0  0  0  0  0  0  0
  -87.8888   31.2401   -0.2414 C   0  0  0  0  0  0  0  0  0  0  0  0
  -90.0685   32.0256   -3.1977 N   0  0  0  0  0  0  0  0  0  0  0  0
  -89.9514   33.2238   -3.9076 C   0  0  0  0  0  0  0  0  0  0  0  0
  -90.6686   33.6447   -4.8636 O   0  0  0  0  0  0  0  0  0  0  0  0
  -88.8382   34.0170   -3.4004 N   0  0  0  0  0  0  0  0  0  0  0  0
  -88.2675   33.2975   -2.3805 C   0  0  0  0  0  0  0  0  0  0  0  0
  -87.3411   33.7342   -1.6544 O   0  0  0  0  0  0  0  0  0  0  0  0
  -88.6483   35.2672   -4.0837 C   0  0  0  0  0  0  0  0  0  0  0  0
  -87.7709   35.1950   -5.2012 C   0  0  0  0  0  0  0  0  0  0  0  0
  -87.3300   36.3522   -5.7621 C   0  0  0  0  0  0  0  0  0  0  0  0
  -87.7079   37.5726   -5.2804 C   0  0  0  0  0  0  0  0  0  0  0  0
  -88.5655   37.6253   -4.1960 C   0  0  0  0  0  0  0  0  0  0  0  0
  -89.0345   36.4477   -3.6009 C   0  0  0  0  0  0  0  0  0  0  0  0
  -87.1283   38.7682   -5.8802 C   0  0  0  0  0  0  0  0  0  0  0  0
  -86.6364   39.7120   -6.3462 N   0  0  0  0  0  0  0  0  0  0  0  0
  -91.1141   31.1079   -3.4380 C   0  0  0  0  0  0  0  0  0  0  0  0
  -91.2518   30.5581   -4.6854 C   0  0  0  0  0  0  0  0  0  0  0  0
  -92.2558   29.6582   -4.8865 C   0  0  0  0  0  0  0  0  0  0  0  0
  -93.1155   29.3091   -3.8807 C   0  0  0  0  0  0  0  0  0  0  0  0
  -93.0299   29.8375   -2.6011 C   0  0  0  0  0  0  0  0  0  0  0  0
  -91.9999   30.7370   -2.4274 C   0  0  0  0  0  0  0  0  0  0  0  0
  -94.1775   28.3385   -4.1274 C   0  0  0  0  0  0  0  0  0  0  0  0
  -95.0235   27.5538   -4.2938 N   0  0  0  0  0  0  0  0  0  0  0  0
  -86.4436   29.2287   -0.5202 C   0  0  0  0  0  0  0  0  0  0  0  0
  -86.4160   27.7500    1.7167 C   0  0  0  0  0  0  0  0  0  0  0  0
  -85.1697   28.5369    1.4182 C   0  0  0  0  0  0  0  0  0  0  0  0
  -84.0573   28.4757    2.2044 C   0  0  0  0  0  0  0  0  0  0  0  0
  -83.0358   29.3860    2.0054 C   0  0  0  0  0  0  0  0  0  0  0  0
  -83.2207   30.3227    0.9869 C   0  0  0  0  0  0  0  0  0  0  0  0
  -84.3442   30.3338    0.2273 N   0  0  0  0  0  0  0  0  0  0  0  0
  -85.3364   29.4766    0.3940 C   0  0  0  0  0  0  0  0  0  0  0  0
 30 31  1  0  0  0
 31 32  2  0  0  0
 32 33  1  0  0  0
 33 34  2  0  0  0
 34 35  1  0  0  0
 35 36  2  0  0  0
 36 29  1  0  0  0
 29  1  1  0  0  0
  1  2  1  0  0  0
  2  3  1  0  0  0
  3  4  1  0  0  0
  4  5  1  0  0  0
  5  6  1  0  0  0
  4  7  1  0  0  0
  7  8  1  0  0  0
  8  9  2  0  0  0
  8 10  1  0  0  0
 10 11  1  0  0  0
 11 12  2  0  0  0
 10 13  1  0  0  0
 13 14  2  0  0  0
 14 15  1  0  0  0
 15 16  2  0  0  0
 16 17  1  0  0  0
 17 18  2  0  0  0
 16 19  1  0  0  0
 19 20  3  0  0  0
  7 21  1  0  0  0
 21 22  2  0  0  0
 22 23  1  0  0  0
 23 24  2  0  0  0
 24 25  1  0  0  0
 25 26  2  0  0  0
 24 27  1  0  0  0
 27 28  3  0  0  0
 36 31  1  0  0  0
  6  1  1  0  0  0
 18 13  1  0  0  0
 26 21  1  0  0  0
 11  4  1  0  0  0
M  END
> <minimizedAffinity>
-8.57851

> <CNNscore>
0.0636397079

> <CNNaffinity>
6.2747559547

> <CNN_VS>
0.3993236423

> <CNNaffinity_variance>
0.1020025834

$$$$
[H]c1c([H])c(N([H])C(=O)N([H])c2c([H])c([H])c(N3C([H])([H])C([H])([H])N(C([H])([H])[H])C([H])([H])C3([H])[H])c([H])c2[H])c([H])c([H])c1-c1nc(N2C([H])([H])C([H])([H])OC([H])([H])[C@@]2([H])C([H])([H])[H])nc(C2([H])C([H])([H])C([H])([H])OC([H])([H])C2([H])[H])n1


 44 49  0  0  0  0  0  0  0  0999 V2000
  -91.7991   27.3284   -1.9958 C   0  0  0  0  0  0  0  0  0  0  0  0
  -91.1382   26.1275   -1.7675 C   0  0  0  0  0  0  0  0  0  0  0  0
  -89.8937   26.1567   -1.2342 C   0  0  0  0  0  0  0  0  0  0  0  0
  -89.1987   27.3317   -0.8850 C   0  0  0  0  0  0  0  0  0  0  0  0
  -89.9106   28.5219   -1.1440 C   0  0  0  0  0  0  0  0  0  0  0  0
  -91.1781   28.5131   -1.6859 C   0  0  0  0  0  0  0  0  0  0  0  0
  -95.1894   28.3963   -2.9320 C   0  0  0  0  0  0  0  0  0  0  0  0
  -95.6581   27.2305   -3.3980 N   0  0  0  0  0  0  0  0  0  0  0  0
  -94.9363   26.1099   -3.4027 C   0  0  0  0  0  0  0  0  0  0  0  0
  -93.7020   26.1756   -2.9109 N   0  0  0  0  0  0  0  0  0  0  0  0
  -93.2009   27.3094   -2.4392 C   0  0  0  0  0  0  0  0  0  0  0  0
  -93.9390   28.4192   -2.4483 N   0  0  0  0  0  0  0  0  0  0  0  0
  -94.2211   31.1514   -2.3766 C   0  0  0  0  0  0  0  0  0  0  0  0
  -95.3497   30.8233   -3.3701 C   0  0  0  0  0  0  0  0  0  0  0  0
  -96.3800   31.9273   -3.3549 C   0  0  0  0  0  0  0  0  0  0  0  0
  -97.0528   31.8679   -2.1348 O   0  0  0  0  0  0  0  0  0  0  0  0
  -97.9590   30.7847   -2.0725 C   0  0  0  0  0  0  0  0  0  0  0  0
  -97.3729   29.5405   -2.6526 C   0  0  0  0  0  0  0  0  0  0  0  0
  -95.9883   29.5931   -2.9773 N   0  0  0  0  0  0  0  0  0  0  0  0
  -95.4411   24.7945   -3.9341 C   0  0  0  0  0  0  0  0  0  0  0  0
  -94.3112   23.7752   -4.0523 C   0  0  0  0  0  0  0  0  0  0  0  0
  -94.9892   22.4160   -4.2928 C   0  0  0  0  0  0  0  0  0  0  0  0
  -96.2950   22.6410   -4.7922 O   0  0  0  0  0  0  0  0  0  0  0  0
  -96.2619   23.5633   -5.8513 C   0  0  0  0  0  0  0  0  0  0  0  0
  -96.1118   24.9701   -5.2773 C   0  0  0  0  0  0  0  0  0  0  0  0
  -88.0253   27.2972   -0.2651 N   0  0  0  0  0  0  0  0  0  0  0  0
  -86.8065   27.2524    0.3732 C   0  0  0  0  0  0  0  0  0  0  0  0
  -85.9331   26.3098    0.2210 O   0  0  0  0  0  0  0  0  0  0  0  0
  -86.3953   28.2968    1.2995 N   0  0  0  0  0  0  0  0  0  0  0  0
  -87.8776   25.9843   -0.5396 H   0  0  0  0  0  0  0  0  0  0  0  0
  -86.9030   29.1106    1.5567 H   0  0  0  0  0  0  0  0  0  0  0  0
  -85.0898   28.0182    1.8566 C   0  0  0  0  0  0  0  0  0  0  0  0
  -84.9717   27.0113    2.7822 C   0  0  0  0  0  0  0  0  0  0  0  0
  -83.7656   26.5521    3.2875 C   0  0  0  0  0  0  0  0  0  0  0  0
  -82.6084   27.1649    2.8267 C   0  0  0  0  0  0  0  0  0  0  0  0
  -82.6817   28.1826    1.9055 C   0  0  0  0  0  0  0  0  0  0  0  0
  -83.9280   28.6013    1.4260 C   0  0  0  0  0  0  0  0  0  0  0  0
  -81.3101   26.6681    3.2480 N   0  0  0  0  0  0  0  0  0  0  0  0
  -81.0259   25.2551    3.2700 C   0  0  0  0  0  0  0  0  0  0  0  0
  -79.5435   25.0157    3.4596 C   0  0  0  0  0  0  0  0  0  0  0  0
  -78.7491   25.9611    2.7149 N   0  0  0  0  0  0  0  0  0  0  0  0
  -77.3496   25.6579    2.9681 C   0  0  0  0  0  0  0  0  0  0  0  0
  -78.9671   27.2996    3.1258 C   0  0  0  0  0  0  0  0  0  0  0  0
  -80.3300   27.5868    3.6930 C   0  0  0  0  0  0  0  0  0  0  0  0
 13 14  1  0  0  0
 14 15  1  0  0  0
 15 16  1  0  0  0
 16 17  1  0  0  0
 17 18  1  0  0  0
 18 19  1  0  0  0
 19  7  1  0  0  0
  7  8  2  0  0  0
  8  9  1  0  0  0
  9 10  2  0  0  0
 10 11  1  0  0  0
 11 12  2  0  0  0
 11  1  1  0  0  0
  1  2  2  0  0  0
  2  3  1  0  0  0
  3  4  2  0  0  0
  4 26  1  0  0  0
 26 27  1  0  0  0
 27 28  2  0  0  0
 27 29  1  0  0  0
 29 32  1  0  0  0
 32 33  2  0  0  0
 33 34  1  0  0  0
 34 35  2  0  0  0
 35 36  1  0  0  0
 36 37  2  0  0  0
 35 38  1  0  0  0
 38 39  1  0  0  0
 39 40  1  0  0  0
 40 41  1  0  0  0
 41 42  1  0  0  0
 41 43  1  0  0  0
 43 44  1  0  0  0
  4  5  1  0  0  0
  5  6  2  0  0  0
  9 20  1  0  0  0
 20 21  1  0  0  0
 21 22  1  0  0  0
 22 23  1  0  0  0
 23 24  1  0  0  0
 24 25  1  0  0  0
 19 14  1  0  0  0
 12  7  1  0  0  0
  6  1  1  0  0  0
 25 20  1  0  0  0
 37 32  1  0  0  0
 44 38  1  0  0  0
 26 30  1  0  0  0
 29 31  1  0  0  0
M  END
> <minimizedAffinity>
16.50959

> <CNNscore>
0.3959280252

> <CNNaffinity>
6.3193221092

> <CNN_VS>
2.5019967556

> <CNNaffinity_variance>
1.2347593307

$$$$
[H]c1c([H])c(N([H])C(=O)N([H])c2c([H])c([H])c(N3C([H])([H])C([H])([H])N(C([H])([H])[H])C([H])([H])C3([H])[H])c([H])c2[H])c([H])c([H])c1-c1nc(N2C([H])([H])C([H])([H])OC([H])([H])[C@@]2([H])C([H])([H])[H])nc(C2([H])C([H])([H])C([H])([H])OC([H])([H])C2([H])[H])n1


 44 49  0  0  0  0  0  0  0  0999 V2000
  -87.2176   30.7496   -1.6147 C   0  0  0  0  0  0  0  0  0  0  0  0
  -86.6624   29.5004   -1.3646 C   0  0  0  0  0  0  0  0  0  0  0  0
  -87.4826   28.4271   -1.2689 C   0  0  0  0  0  0  0  0  0  0  0  0
  -88.8844   28.4750   -1.4046 C   0  0  0  0  0  0  0  0  0  0  0  0
  -89.3968   29.7664   -1.6496 C   0  0  0  0  0  0  0  0  0  0  0  0
  -88.5784   30.8711   -1.7508 C   0  0  0  0  0  0  0  0  0  0  0  0
  -85.9511   34.0186   -2.7192 C   0  0  0  0  0  0  0  0  0  0  0  0
  -84.7469   33.9892   -2.1317 N   0  0  0  0  0  0  0  0  0  0  0  0
  -84.3167   32.9520   -1.4137 C   0  0  0  0  0  0  0  0  0  0  0  0
  -85.1339   31.9088   -1.2962 N   0  0  0  0  0  0  0  0  0  0  0  0
  -86.3330   31.8975   -1.8628 C   0  0  0  0  0  0  0  0  0  0  0  0
  -86.7447   32.9477   -2.5729 N   0  0  0  0  0  0  0  0  0  0  0  0
  -88.5079   35.4744   -2.2954 C   0  0  0  0  0  0  0  0  0  0  0  0
  -87.2087   36.1454   -2.7749 C   0  0  0  0  0  0  0  0  0  0  0  0
  -87.5359   37.2610   -3.7387 C   0  0  0  0  0  0  0  0  0  0  0  0
  -88.0064   36.6835   -4.9178 O   0  0  0  0  0  0  0  0  0  0  0  0
  -86.9707   36.0954   -5.6792 C   0  0  0  0  0  0  0  0  0  0  0  0
  -86.0138   35.3392   -4.8185 C   0  0  0  0  0  0  0  0  0  0  0  0
  -86.3932   35.1731   -3.4570 N   0  0  0  0  0  0  0  0  0  0  0  0
  -82.9730   32.9065   -0.7356 C   0  0  0  0  0  0  0  0  0  0  0  0
  -82.5697   31.4726   -0.4023 C   0  0  0  0  0  0  0  0  0  0  0  0
  -81.0821   31.5290   -0.0164 C   0  0  0  0  0  0  0  0  0  0  0  0
  -80.7600   32.8551    0.3611 O   0  0  0  0  0  0  0  0  0  0  0  0
  -81.7033   33.3455    1.2793 C   0  0  0  0  0  0  0  0  0  0  0  0
  -82.9688   33.7429    0.5234 C   0  0  0  0  0  0  0  0  0  0  0  0
  -89.6288   27.3757   -1.4098 N   0  0  0  0  0  0  0  0  0  0  0  0
  -90.3999   26.2354   -1.4049 C   0  0  0  0  0  0  0  0  0  0  0  0
  -90.7622   25.5998   -0.3376 O   0  0  0  0  0  0  0  0  0  0  0  0
  -90.8808   25.6384   -2.6418 N   0  0  0  0  0  0  0  0  0  0  0  0
  -89.2686   27.0819   -0.1430 H   0  0  0  0  0  0  0  0  0  0  0  0
  -90.7288   25.9622   -3.5682 H   0  0  0  0  0  0  0  0  0  0  0  0
  -91.6490   24.4408   -2.3810 C   0  0  0  0  0  0  0  0  0  0  0  0
  -91.0140   23.2255   -2.4471 C   0  0  0  0  0  0  0  0  0  0  0  0
  -91.5947   22.0199   -2.0865 C   0  0  0  0  0  0  0  0  0  0  0  0
  -92.9084   22.0554   -1.6393 C   0  0  0  0  0  0  0  0  0  0  0  0
  -93.5841   23.2502   -1.5649 C   0  0  0  0  0  0  0  0  0  0  0  0
  -92.9446   24.4378   -1.9375 C   0  0  0  0  0  0  0  0  0  0  0  0
  -93.5423   20.8394   -1.1600 N   0  0  0  0  0  0  0  0  0  0  0  0
  -93.1831   20.2654    0.1126 C   0  0  0  0  0  0  0  0  0  0  0  0
  -94.1730   19.1906    0.5072 C   0  0  0  0  0  0  0  0  0  0  0  0
  -95.5258   19.5590    0.1699 N   0  0  0  0  0  0  0  0  0  0  0  0
  -96.3951   18.4662    0.5759 C   0  0  0  0  0  0  0  0  0  0  0  0
  -95.7096   19.7430   -1.2231 C   0  0  0  0  0  0  0  0  0  0  0  0
  -94.4885   20.1831   -1.9826 C   0  0  0  0  0  0  0  0  0  0  0  0
 13 14  1  0  0  0
 14 15  1  0  0  0
 15 16  1  0  0  0
 16 17  1  0  0  0
 17 18  1  0  0  0
 18 19  1  0  0  0
 19  7  1  0  0  0
  7  8  2  0  0  0
  8  9  1  0  0  0
  9 10  2  0  0  0
 10 11  1  0  0  0
 11 12  2  0  0  0
 11  1  1  0  0  0
  1  2  2  0  0  0
  2  3  1  0  0  0
  3  4  2  0  0  0
  4 26  1  0  0  0
 26 27  1  0  0  0
 27 28  2  0  0  0
 27 29  1  0  0  0
 29 32  1  0  0  0
 32 33  2  0  0  0
 33 34  1  0  0  0
 34 35  2  0  0  0
 35 36  1  0  0  0
 36 37  2  0  0  0
 35 38  1  0  0  0
 38 39  1  0  0  0
 39 40  1  0  0  0
 40 41  1  0  0  0
 41 42  1  0  0  0
 41 43  1  0  0  0
 43 44  1  0  0  0
  4  5  1  0  0  0
  5  6  2  0  0  0
  9 20  1  0  0  0
 20 21  1  0  0  0
 21 22  1  0  0  0
 22 23  1  0  0  0
 23 24  1  0  0  0
 24 25  1  0  0  0
 19 14  1  0  0  0
 12  7  1  0  0  0
  6  1  1  0  0  0
 25 20  1  0  0  0
 37 32  1  0  0  0
 44 38  1  0  0  0
 26 30  1  0  0  0
 29 31  1  0  0  0
M  END
> <minimizedAffinity>
9.03233

> <CNNscore>
0.3274975717

> <CNNaffinity>
6.4400763512

> <CNN_VS>
2.1091094017

> <CNNaffinity_variance>
1.0836513042

$$$$
[H]c1c([H])c(N([H])C(=O)N([H])c2c([H])c([H])c(N3C([H])([H])C([H])([H])N(C([H])([H])[H])C([H])([H])C3([H])[H])c([H])c2[H])c([H])c([H])c1-c1nc(N2C([H])([H])C([H])([H])OC([H])([H])[C@@]2([H])C([H])([H])[H])nc(C2([H])C([H])([H])C([H])([H])OC([H])([H])C2([H])[H])n1


 44 49  0  0  0  0  0  0  0  0999 V2000
  -92.9352   27.0056   -2.3870 C   0  0  0  0  0  0  0  0  0  0  0  0
  -92.1001   27.9703   -2.9378 C   0  0  0  0  0  0  0  0  0  0  0  0
  -92.6147   28.8483   -3.8312 C   0  0  0  0  0  0  0  0  0  0  0  0
  -93.9576   28.8633   -4.2579 C   0  0  0  0  0  0  0  0  0  0  0  0
  -94.7597   27.8597   -3.6749 C   0  0  0  0  0  0  0  0  0  0  0  0
  -94.2547   26.9572   -2.7634 C   0  0  0  0  0  0  0  0  0  0  0  0
  -91.0786   25.7775    0.5378 C   0  0  0  0  0  0  0  0  0  0  0  0
  -91.6825   24.5908    0.6897 N   0  0  0  0  0  0  0  0  0  0  0  0
  -92.6467   24.1598   -0.1234 C   0  0  0  0  0  0  0  0  0  0  0  0
  -93.0022   24.9576   -1.1270 N   0  0  0  0  0  0  0  0  0  0  0  0
  -92.4288   26.1389   -1.3128 C   0  0  0  0  0  0  0  0  0  0  0  0
  -91.4694   26.5519   -0.4847 N   0  0  0  0  0  0  0  0  0  0  0  0
  -91.0962   28.3502    2.0268 C   0  0  0  0  0  0  0  0  0  0  0  0
  -90.4691   27.0522    2.5655 C   0  0  0  0  0  0  0  0  0  0  0  0
  -89.2486   27.3797    3.3924 C   0  0  0  0  0  0  0  0  0  0  0  0
  -88.2545   27.8343    2.5263 O   0  0  0  0  0  0  0  0  0  0  0  0
  -87.6772   26.7867    1.7731 C   0  0  0  0  0  0  0  0  0  0  0  0
  -88.7099   25.8316    1.2736 C   0  0  0  0  0  0  0  0  0  0  0  0
  -90.0657   26.2223    1.4592 N   0  0  0  0  0  0  0  0  0  0  0  0
  -93.3457   22.8360    0.0393 C   0  0  0  0  0  0  0  0  0  0  0  0
  -92.3459   21.6832    0.0758 C   0  0  0  0  0  0  0  0  0  0  0  0
  -93.1344   20.4527    0.5544 C   0  0  0  0  0  0  0  0  0  0  0  0
  -94.5131   20.6773    0.3225 O   0  0  0  0  0  0  0  0  0  0  0  0
  -94.7212   21.1297   -0.9910 C   0  0  0  0  0  0  0  0  0  0  0  0
  -94.3466   22.6077   -1.0701 C   0  0  0  0  0  0  0  0  0  0  0  0
  -94.4328   29.8145   -5.0528 N   0  0  0  0  0  0  0  0  0  0  0  0
  -94.9326   30.8030   -5.8701 C   0  0  0  0  0  0  0  0  0  0  0  0
  -95.9106   31.5897   -5.5555 O   0  0  0  0  0  0  0  0  0  0  0  0
  -94.3805   31.0448   -7.1946 N   0  0  0  0  0  0  0  0  0  0  0  0
  -95.5675   29.9041   -4.3281 H   0  0  0  0  0  0  0  0  0  0  0  0
  -93.6277   30.5671   -7.6320 H   0  0  0  0  0  0  0  0  0  0  0  0
  -95.0826   32.1160   -7.8669 C   0  0  0  0  0  0  0  0  0  0  0  0
  -94.7292   33.4121   -7.5843 C   0  0  0  0  0  0  0  0  0  0  0  0
  -95.2220   34.5202   -8.2552 C   0  0  0  0  0  0  0  0  0  0  0  0
  -96.1396   34.2922   -9.2716 C   0  0  0  0  0  0  0  0  0  0  0  0
  -96.5269   33.0104   -9.5821 C   0  0  0  0  0  0  0  0  0  0  0  0
  -95.9915   31.9287   -8.8738 C   0  0  0  0  0  0  0  0  0  0  0  0
  -96.6227   35.4037  -10.0725 N   0  0  0  0  0  0  0  0  0  0  0  0
  -98.0197   35.7588  -10.0858 C   0  0  0  0  0  0  0  0  0  0  0  0
  -98.2181   37.1036  -10.7513 C   0  0  0  0  0  0  0  0  0  0  0  0
  -97.1780   38.0363  -10.3939 N   0  0  0  0  0  0  0  0  0  0  0  0
  -97.4490   39.2862  -11.0860 C   0  0  0  0  0  0  0  0  0  0  0  0
  -95.8925   37.6028  -10.8034 C   0  0  0  0  0  0  0  0  0  0  0  0
  -95.7118   36.1124  -10.8915 C   0  0  0  0  0  0  0  0  0  0  0  0
 13 14  1  0  0  0
 14 15  1  0  0  0
 15 16  1  0  0  0
 16 17  1  0  0  0
 17 18  1  0  0  0
 18 19  1  0  0  0
 19  7  1  0  0  0
  7  8  2  0  0  0
  8  9  1  0  0  0
  9 10  2  0  0  0
 10 11  1  0  0  0
 11 12  2  0  0  0
 11  1  1  0  0  0
  1  2  2  0  0  0
  2  3  1  0  0  0
  3  4  2  0  0  0
  4 26  1  0  0  0
 26 27  1  0  0  0
 27 28  2  0  0  0
 27 29  1  0  0  0
 29 32  1  0  0  0
 32 33  2  0  0  0
 33 34  1  0  0  0
 34 35  2  0  0  0
 35 36  1  0  0  0
 36 37  2  0  0  0
 35 38  1  0  0  0
 38 39  1  0  0  0
 39 40  1  0  0  0
 40 41  1  0  0  0
 41 42  1  0  0  0
 41 43  1  0  0  0
 43 44  1  0  0  0
  4  5  1  0  0  0
  5  6  2  0  0  0
  9 20  1  0  0  0
 20 21  1  0  0  0
 21 22  1  0  0  0
 22 23  1  0  0  0
 23 24  1  0  0  0
 24 25  1  0  0  0
 19 14  1  0  0  0
 12  7  1  0  0  0
  6  1  1  0  0  0
 25 20  1  0  0  0
 37 32  1  0  0  0
 44 38  1  0  0  0
 26 30  1  0  0  0
 29 31  1  0  0  0
M  END
> <minimizedAffinity>
-5.22944

> <CNNscore>
0.2628568411

> <CNNaffinity>
5.6693611145

> <CNN_VS>
1.4902303219

> <CNNaffinity_variance>
0.2488926649

$$$$
[H]c1c([H])c(N([H])C(=O)N([H])c2c([H])c([H])c(N3C([H])([H])C([H])([H])N(C([H])([H])[H])C([H])([H])C3([H])[H])c([H])c2[H])c([H])c([H])c1-c1nc(N2C([H])([H])C([H])([H])OC([H])([H])[C@@]2([H])C([H])([H])[H])nc(C2([H])C([H])([H])C([H])([H])OC([H])([H])C2([H])[H])n1


 44 49  0  0  0  0  0  0  0  0999 V2000
  -93.1869   28.5043   -3.3383 C   0  0  0  0  0  0  0  0  0  0  0  0
  -92.3978   27.3628   -3.2638 C   0  0  0  0  0  0  0  0  0  0  0  0
  -91.2053   27.4323   -2.6258 C   0  0  0  0  0  0  0  0  0  0  0  0
  -90.6877   28.5937   -2.0186 C   0  0  0  0  0  0  0  0  0  0  0  0
  -91.5237   29.7247   -2.1296 C   0  0  0  0  0  0  0  0  0  0  0  0
  -92.7411   29.6741   -2.7745 C   0  0  0  0  0  0  0  0  0  0  0  0
  -96.4813   29.4003   -4.7002 C   0  0  0  0  0  0  0  0  0  0  0  0
  -96.9018   28.1796   -5.0591 N   0  0  0  0  0  0  0  0  0  0  0  0
  -96.1790   27.0774   -4.8607 C   0  0  0  0  0  0  0  0  0  0  0  0
  -94.9947   27.2207   -4.2717 N   0  0  0  0  0  0  0  0  0  0  0  0
  -94.5424   28.4108   -3.9002 C   0  0  0  0  0  0  0  0  0  0  0  0
  -95.2802   29.5004   -4.1124 N   0  0  0  0  0  0  0  0  0  0  0  0
  -95.9033   31.4621   -6.7621 C   0  0  0  0  0  0  0  0  0  0  0  0
  -97.3229   31.0719   -6.3144 C   0  0  0  0  0  0  0  0  0  0  0  0
  -98.2204   32.2859   -6.3474 C   0  0  0  0  0  0  0  0  0  0  0  0
  -97.8247   33.1386   -5.3171 O   0  0  0  0  0  0  0  0  0  0  0  0
  -98.2206   32.6653   -4.0453 C   0  0  0  0  0  0  0  0  0  0  0  0
  -98.0015   31.1950   -3.9106 C   0  0  0  0  0  0  0  0  0  0  0  0
  -97.2767   30.5709   -4.9644 N   0  0  0  0  0  0  0  0  0  0  0  0
  -96.6290   25.6996   -5.2691 C   0  0  0  0  0  0  0  0  0  0  0  0
  -98.0172   25.7361   -5.9027 C   0  0  0  0  0  0  0  0  0  0  0  0
  -98.2242   24.3569   -6.5508 C   0  0  0  0  0  0  0  0  0  0  0  0
  -97.3394   23.4322   -5.9450 O   0  0  0  0  0  0  0  0  0  0  0  0
  -97.4157   23.5265   -4.5455 C   0  0  0  0  0  0  0  0  0  0  0  0
  -96.6319   24.7548   -4.0893 C   0  0  0  0  0  0  0  0  0  0  0  0
  -89.5633   28.5773   -1.3129 N   0  0  0  0  0  0  0  0  0  0  0  0
  -88.3978   28.5501   -0.5809 C   0  0  0  0  0  0  0  0  0  0  0  0
  -87.7993   27.4697   -0.1949 O   0  0  0  0  0  0  0  0  0  0  0  0
  -87.7292   29.7761   -0.1714 N   0  0  0  0  0  0  0  0  0  0  0  0
  -89.7618   27.2907   -0.9579 H   0  0  0  0  0  0  0  0  0  0  0  0
  -88.0080   30.7096   -0.3636 H   0  0  0  0  0  0  0  0  0  0  0  0
  -86.5407   29.4910    0.6023 C   0  0  0  0  0  0  0  0  0  0  0  0
  -86.5795   28.4631    1.5113 C   0  0  0  0  0  0  0  0  0  0  0  0
  -85.4781   27.9981    2.2124 C   0  0  0  0  0  0  0  0  0  0  0  0
  -84.2632   28.6274    1.9782 C   0  0  0  0  0  0  0  0  0  0  0  0
  -84.1812   29.6662    1.0818 C   0  0  0  0  0  0  0  0  0  0  0  0
  -85.3264   30.0899    0.3981 C   0  0  0  0  0  0  0  0  0  0  0  0
  -83.0556   28.1273    2.6121 N   0  0  0  0  0  0  0  0  0  0  0  0
  -83.1125   27.4219    3.8679 C   0  0  0  0  0  0  0  0  0  0  0  0
  -81.7835   26.7614    4.1652 C   0  0  0  0  0  0  0  0  0  0  0  0
  -81.1886   26.1979    2.9786 N   0  0  0  0  0  0  0  0  0  0  0  0
  -79.9198   25.5997    3.3623 C   0  0  0  0  0  0  0  0  0  0  0  0
  -80.9075   27.1760    1.9924 C   0  0  0  0  0  0  0  0  0  0  0  0
  -81.8014   28.3853    2.0096 C   0  0  0  0  0  0  0  0  0  0  0  0
 13 14  1  0  0  0
 14 15  1  0  0  0
 15 16  1  0  0  0
 16 17  1  0  0  0
 17 18  1  0  0  0
 18 19  1  0  0  0
 19  7  1  0  0  0
  7  8  2  0  0  0
  8  9  1  0  0  0
  9 10  2  0  0  0
 10 11  1  0  0  0
 11 12  2  0  0  0
 11  1  1  0  0  0
  1  2  2  0  0  0
  2  3  1  0  0  0
  3  4  2  0  0  0
  4 26  1  0  0  0
 26 27  1  0  0  0
 27 28  2  0  0  0
 27 29  1  0  0  0
 29 32  1  0  0  0
 32 33  2  0  0  0
 33 34  1  0  0  0
 34 35  2  0  0  0
 35 36  1  0  0  0
 36 37  2  0  0  0
 35 38  1  0  0  0
 38 39  1  0  0  0
 39 40  1  0  0  0
 40 41  1  0  0  0
 41 42  1  0  0  0
 41 43  1  0  0  0
 43 44  1  0  0  0
  4  5  1  0  0  0
  5  6  2  0  0  0
  9 20  1  0  0  0
 20 21  1  0  0  0
 21 22  1  0  0  0
 22 23  1  0  0  0
 23 24  1  0  0  0
 24 25  1  0  0  0
 19 14  1  0  0  0
 12  7  1  0  0  0
  6  1  1  0  0  0
 25 20  1  0  0  0
 37 32  1  0  0  0
 44 38  1  0  0  0
 26 30  1  0  0  0
 29 31  1  0  0  0
M  END
> <minimizedAffinity>
4.24680

> <CNNscore>
0.2478017062

> <CNNaffinity>
6.2884154320

> <CNN_VS>
1.5582801104

> <CNNaffinity_variance>
1.2308127880

$$$$
[H]c1c([H])c(N([H])C(=O)N([H])c2c([H])c([H])c(N3C([H])([H])C([H])([H])N(C([H])([H])[H])C([H])([H])C3([H])[H])c([H])c2[H])c([H])c([H])c1-c1nc(N2C([H])([H])C([H])([H])OC([H])([H])[C@@]2([H])C([H])([H])[H])nc(C2([H])C([H])([H])C([H])([H])OC([H])([H])C2([H])[H])n1


 44 49  0  0  0  0  0  0  0  0999 V2000
  -90.0993   28.6405   -0.8829 C   0  0  0  0  0  0  0  0  0  0  0  0
  -90.6740   29.0251   -2.0883 C   0  0  0  0  0  0  0  0  0  0  0  0
  -90.3753   30.2446   -2.5959 C   0  0  0  0  0  0  0  0  0  0  0  0
  -89.5105   31.1761   -1.9877 C   0  0  0  0  0  0  0  0  0  0  0  0
  -88.9606   30.7396   -0.7639 C   0  0  0  0  0  0  0  0  0  0  0  0
  -89.2519   29.5020   -0.2310 C   0  0  0  0  0  0  0  0  0  0  0  0
  -90.0308   25.6350    1.2320 C   0  0  0  0  0  0  0  0  0  0  0  0
  -90.8339   24.8458    0.5053 N   0  0  0  0  0  0  0  0  0  0  0  0
  -91.3785   25.2325   -0.6481 C   0  0  0  0  0  0  0  0  0  0  0  0
  -91.0908   26.4576   -1.0797 N   0  0  0  0  0  0  0  0  0  0  0  0
  -90.2997   27.2695   -0.3912 C   0  0  0  0  0  0  0  0  0  0  0  0
  -89.7693   26.8635    0.7623 N   0  0  0  0  0  0  0  0  0  0  0  0
  -91.4763   25.6159    3.8294 C   0  0  0  0  0  0  0  0  0  0  0  0
  -90.3901   24.5957    3.4453 C   0  0  0  0  0  0  0  0  0  0  0  0
  -89.6008   24.2044    4.6718 C   0  0  0  0  0  0  0  0  0  0  0  0
  -88.8322   25.3033    5.0547 O   0  0  0  0  0  0  0  0  0  0  0  0
  -87.7277   25.5121    4.1976 C   0  0  0  0  0  0  0  0  0  0  0  0
  -88.1014   25.3376    2.7630 C   0  0  0  0  0  0  0  0  0  0  0  0
  -89.4908   25.1928    2.4912 N   0  0  0  0  0  0  0  0  0  0  0  0
  -92.2934   24.3649   -1.4713 C   0  0  0  0  0  0  0  0  0  0  0  0
  -91.8328   24.2979   -2.9249 C   0  0  0  0  0  0  0  0  0  0  0  0
  -92.6374   23.1588   -3.5730 C   0  0  0  0  0  0  0  0  0  0  0  0
  -93.7992   22.9244   -2.7982 O   0  0  0  0  0  0  0  0  0  0  0  0
  -94.4600   24.1343   -2.5285 C   0  0  0  0  0  0  0  0  0  0  0  0
  -93.7189   24.8640   -1.4108 C   0  0  0  0  0  0  0  0  0  0  0  0
  -89.1685   32.3121   -2.5835 N   0  0  0  0  0  0  0  0  0  0  0  0
  -88.8126   33.4849   -3.2101 C   0  0  0  0  0  0  0  0  0  0  0  0
  -88.5183   33.5852   -4.4662 O   0  0  0  0  0  0  0  0  0  0  0  0
  -88.7368   34.7425   -2.4818 N   0  0  0  0  0  0  0  0  0  0  0  0
  -88.6497   31.6463   -3.6363 H   0  0  0  0  0  0  0  0  0  0  0  0
  -88.9266   34.8958   -1.5192 H   0  0  0  0  0  0  0  0  0  0  0  0
  -88.3233   35.8249   -3.3477 C   0  0  0  0  0  0  0  0  0  0  0  0
  -87.7684   35.5170   -4.5650 C   0  0  0  0  0  0  0  0  0  0  0  0
  -87.4594   36.4508   -5.5415 C   0  0  0  0  0  0  0  0  0  0  0  0
  -87.7245   37.7828   -5.2542 C   0  0  0  0  0  0  0  0  0  0  0  0
  -88.2726   38.1359   -4.0441 C   0  0  0  0  0  0  0  0  0  0  0  0
  -88.5692   37.1486   -3.0977 C   0  0  0  0  0  0  0  0  0  0  0  0
  -87.5090   38.7984   -6.2701 N   0  0  0  0  0  0  0  0  0  0  0  0
  -86.1976   39.3487   -6.5051 C   0  0  0  0  0  0  0  0  0  0  0  0
  -86.1834   40.1560   -7.7853 C   0  0  0  0  0  0  0  0  0  0  0  0
  -86.9651   39.5288   -8.8222 N   0  0  0  0  0  0  0  0  0  0  0  0
  -86.8987   40.3787  -10.0003 C   0  0  0  0  0  0  0  0  0  0  0  0
  -88.3331   39.4043   -8.4740 C   0  0  0  0  0  0  0  0  0  0  0  0
  -88.6164   39.2899   -7.0015 C   0  0  0  0  0  0  0  0  0  0  0  0
 13 14  1  0  0  0
 14 15  1  0  0  0
 15 16  1  0  0  0
 16 17  1  0  0  0
 17 18  1  0  0  0
 18 19  1  0  0  0
 19  7  1  0  0  0
  7  8  2  0  0  0
  8  9  1  0  0  0
  9 10  2  0  0  0
 10 11  1  0  0  0
 11 12  2  0  0  0
 11  1  1  0  0  0
  1  2  2  0  0  0
  2  3  1  0  0  0
  3  4  2  0  0  0
  4 26  1  0  0  0
 26 27  1  0  0  0
 27 28  2  0  0  0
 27 29  1  0  0  0
 29 32  1  0  0  0
 32 33  2  0  0  0
 33 34  1  0  0  0
 34 35  2  0  0  0
 35 36  1  0  0  0
 36 37  2  0  0  0
 35 38  1  0  0  0
 38 39  1  0  0  0
 39 40  1  0  0  0
 40 41  1  0  0  0
 41 42  1  0  0  0
 41 43  1  0  0  0
 43 44  1  0  0  0
  4  5  1  0  0  0
  5  6  2  0  0  0
  9 20  1  0  0  0
 20 21  1  0  0  0
 21 22  1  0  0  0
 22 23  1  0  0  0
 23 24  1  0  0  0
 24 25  1  0  0  0
 19 14  1  0  0  0
 12  7  1  0  0  0
  6  1  1  0  0  0
 25 20  1  0  0  0
 37 32  1  0  0  0
 44 38  1  0  0  0
 26 30  1  0  0  0
 29 31  1  0  0  0
M  END
> <minimizedAffinity>
-3.73664

> <CNNscore>
0.2392031550

> <CNNaffinity>
6.0396294594

> <CNN_VS>
1.4446984529

> <CNNaffinity_variance>
0.6642949581

$$$$
[H]c1c([H])c(N([H])C(=O)N([H])c2c([H])c([H])c(N3C([H])([H])C([H])([H])N(C([H])([H])[H])C([H])([H])C3([H])[H])c([H])c2[H])c([H])c([H])c1-c1nc(N2C([H])([H])C([H])([H])OC([H])([H])[C@@]2([H])C([H])([H])[H])nc(C2([H])C([H])([H])C([H])([H])OC([H])([H])C2([H])[H])n1


 44 49  0  0  0  0  0  0  0  0999 V2000
  -92.7824   25.6208   -2.0542 C   0  0  0  0  0  0  0  0  0  0  0  0
  -92.3079   26.4297   -1.0286 C   0  0  0  0  0  0  0  0  0  0  0  0
  -91.6280   27.5571   -1.3458 C   0  0  0  0  0  0  0  0  0  0  0  0
  -91.3557   27.9859   -2.6602 C   0  0  0  0  0  0  0  0  0  0  0  0
  -91.8521   27.1257   -3.6624 C   0  0  0  0  0  0  0  0  0  0  0  0
  -92.5468   25.9741   -3.3598 C   0  0  0  0  0  0  0  0  0  0  0  0
  -94.2559   22.2538   -2.0080 C   0  0  0  0  0  0  0  0  0  0  0  0
  -95.1108   22.4101   -0.9879 N   0  0  0  0  0  0  0  0  0  0  0  0
  -95.2490   23.5604   -0.3289 C   0  0  0  0  0  0  0  0  0  0  0  0
  -94.4997   24.5858   -0.7251 N   0  0  0  0  0  0  0  0  0  0  0  0
  -93.6425   24.4730   -1.7307 C   0  0  0  0  0  0  0  0  0  0  0  0
  -93.5173   23.3117   -2.3729 N   0  0  0  0  0  0  0  0  0  0  0  0
  -95.3542   21.5558   -4.6807 C   0  0  0  0  0  0  0  0  0  0  0  0
  -94.0498   20.9713   -4.1106 C   0  0  0  0  0  0  0  0  0  0  0  0
  -93.8854   19.5431   -4.5731 C   0  0  0  0  0  0  0  0  0  0  0  0
  -94.8476   18.7698   -3.9242 O   0  0  0  0  0  0  0  0  0  0  0  0
  -94.5322   18.5486   -2.5641 C   0  0  0  0  0  0  0  0  0  0  0  0
  -94.0164   19.7864   -1.9086 C   0  0  0  0  0  0  0  0  0  0  0  0
  -94.1101   20.9842   -2.6712 N   0  0  0  0  0  0  0  0  0  0  0  0
  -96.1943   23.7511    0.8277 C   0  0  0  0  0  0  0  0  0  0  0  0
  -97.2732   22.6716    0.8443 C   0  0  0  0  0  0  0  0  0  0  0  0
  -97.9638   22.7829    2.2138 C   0  0  0  0  0  0  0  0  0  0  0  0
  -97.7229   24.0747    2.7412 O   0  0  0  0  0  0  0  0  0  0  0  0
  -97.9999   25.0570    1.7759 C   0  0  0  0  0  0  0  0  0  0  0  0
  -96.8404   25.1169    0.7845 C   0  0  0  0  0  0  0  0  0  0  0  0
  -90.7799   29.1548   -2.9140 N   0  0  0  0  0  0  0  0  0  0  0  0
  -90.1775   30.3626   -3.1848 C   0  0  0  0  0  0  0  0  0  0  0  0
  -89.3288   30.5606   -4.1412 O   0  0  0  0  0  0  0  0  0  0  0  0
  -90.4587   31.5473   -2.3877 N   0  0  0  0  0  0  0  0  0  0  0  0
  -89.8244   28.5633   -3.6609 H   0  0  0  0  0  0  0  0  0  0  0  0
  -91.0789   31.6231   -1.6159 H   0  0  0  0  0  0  0  0  0  0  0  0
  -89.6928   32.6836   -2.8507 C   0  0  0  0  0  0  0  0  0  0  0  0
  -90.2375   33.4939   -3.8157 C   0  0  0  0  0  0  0  0  0  0  0  0
  -89.6741   34.6852   -4.2449 C   0  0  0  0  0  0  0  0  0  0  0  0
  -88.4754   35.0690   -3.6594 C   0  0  0  0  0  0  0  0  0  0  0  0
  -87.8913   34.2832   -2.6946 C   0  0  0  0  0  0  0  0  0  0  0  0
  -88.5090   33.0922   -2.2967 C   0  0  0  0  0  0  0  0  0  0  0  0
  -87.8823   36.3507   -3.9994 N   0  0  0  0  0  0  0  0  0  0  0  0
  -86.8089   36.4428   -4.9571 C   0  0  0  0  0  0  0  0  0  0  0  0
  -86.5699   37.8854   -5.3479 C   0  0  0  0  0  0  0  0  0  0  0  0
  -87.8065   38.6141   -5.4874 N   0  0  0  0  0  0  0  0  0  0  0  0
  -87.4740   39.9821   -5.8516 C   0  0  0  0  0  0  0  0  0  0  0  0
  -88.5448   38.6716   -4.2792 C   0  0  0  0  0  0  0  0  0  0  0  0
  -88.3333   37.5178   -3.3381 C   0  0  0  0  0  0  0  0  0  0  0  0
 13 14  1  0  0  0
 14 15  1  0  0  0
 15 16  1  0  0  0
 16 17  1  0  0  0
 17 18  1  0  0  0
 18 19  1  0  0  0
 19  7  1  0  0  0
  7  8  2  0  0  0
  8  9  1  0  0  0
  9 10  2  0  0  0
 10 11  1  0  0  0
 11 12  2  0  0  0
 11  1  1  0  0  0
  1  2  2  0  0  0
  2  3  1  0  0  0
  3  4  2  0  0  0
  4 26  1  0  0  0
 26 27  1  0  0  0
 27 28  2  0  0  0
 27 29  1  0  0  0
 29 32  1  0  0  0
 32 33  2  0  0  0
 33 34  1  0  0  0
 34 35  2  0  0  0
 35 36  1  0  0  0
 36 37  2  0  0  0
 35 38  1  0  0  0
 38 39  1  0  0  0
 39 40  1  0  0  0
 40 41  1  0  0  0
 41 42  1  0  0  0
 41 43  1  0  0  0
 43 44  1  0  0  0
  4  5  1  0  0  0
  5  6  2  0  0  0
  9 20  1  0  0  0
 20 21  1  0  0  0
 21 22  1  0  0  0
 22 23  1  0  0  0
 23 24  1  0  0  0
 24 25  1  0  0  0
 19 14  1  0  0  0
 12  7  1  0  0  0
  6  1  1  0  0  0
 25 20  1  0  0  0
 37 32  1  0  0  0
 44 38  1  0  0  0
 26 30  1  0  0  0
 29 31  1  0  0  0
M  END
> <minimizedAffinity>
-6.58317

> <CNNscore>
0.1321383715

> <CNNaffinity>
5.6530518532

> <CNN_VS>
0.7469850779

> <CNNaffinity_variance>
0.1692938805

$$$$
[H]c1c([H])c(N([H])C(=O)N([H])c2c([H])c([H])c(N3C([H])([H])C([H])([H])N(C([H])([H])[H])C([H])([H])C3([H])[H])c([H])c2[H])c([H])c([H])c1-c1nc(N2C([H])([H])C([H])([H])OC([H])([H])[C@@]2([H])C([H])([H])[H])nc(C2([H])C([H])([H])C([H])([H])OC([H])([H])C2([H])[H])n1


 44 49  0  0  0  0  0  0  0  0999 V2000
  -91.1455   31.7600   -4.3586 C   0  0  0  0  0  0  0  0  0  0  0  0
  -92.1482   30.8108   -4.5165 C   0  0  0  0  0  0  0  0  0  0  0  0
  -91.9949   29.5950   -3.9400 C   0  0  0  0  0  0  0  0  0  0  0  0
  -90.8764   29.2052   -3.1767 C   0  0  0  0  0  0  0  0  0  0  0  0
  -89.8856   30.2020   -3.0540 C   0  0  0  0  0  0  0  0  0  0  0  0
  -90.0232   31.4455   -3.6329 C   0  0  0  0  0  0  0  0  0  0  0  0
  -90.6325   35.3046   -5.1846 C   0  0  0  0  0  0  0  0  0  0  0  0
  -91.7371   35.5147   -5.9138 N   0  0  0  0  0  0  0  0  0  0  0  0
  -92.6513   34.5696   -6.1319 C   0  0  0  0  0  0  0  0  0  0  0  0
  -92.4389   33.3757   -5.5847 N   0  0  0  0  0  0  0  0  0  0  0  0
  -91.3593   33.1271   -4.8556 C   0  0  0  0  0  0  0  0  0  0  0  0
  -90.4557   34.0860   -4.6540 N   0  0  0  0  0  0  0  0  0  0  0  0
  -87.6878   34.9094   -5.0877 C   0  0  0  0  0  0  0  0  0  0  0  0
  -88.3647   36.1800   -5.6311 C   0  0  0  0  0  0  0  0  0  0  0  0
  -87.5163   37.3874   -5.3103 C   0  0  0  0  0  0  0  0  0  0  0  0
  -87.5796   37.6014   -3.9337 O   0  0  0  0  0  0  0  0  0  0  0  0
  -88.8190   38.1491   -3.5310 C   0  0  0  0  0  0  0  0  0  0  0  0
  -89.9647   37.4945   -4.2288 C   0  0  0  0  0  0  0  0  0  0  0  0
  -89.6507   36.3417   -5.0020 N   0  0  0  0  0  0  0  0  0  0  0  0
  -93.8913   34.7833   -6.9590 C   0  0  0  0  0  0  0  0  0  0  0  0
  -95.0723   35.2023   -6.0875 C   0  0  0  0  0  0  0  0  0  0  0  0
  -96.1632   35.6882   -7.0564 C   0  0  0  0  0  0  0  0  0  0  0  0
  -95.9090   35.1431   -8.3383 O   0  0  0  0  0  0  0  0  0  0  0  0
  -95.6715   33.7618   -8.2444 C   0  0  0  0  0  0  0  0  0  0  0  0
  -94.2489   33.5380   -7.7376 C   0  0  0  0  0  0  0  0  0  0  0  0
  -90.8280   28.0390   -2.5441 N   0  0  0  0  0  0  0  0  0  0  0  0
  -90.7717   26.8340   -1.8811 C   0  0  0  0  0  0  0  0  0  0  0  0
  -90.1292   26.6344   -0.7758 O   0  0  0  0  0  0  0  0  0  0  0  0
  -91.4527   25.6536   -2.3917 N   0  0  0  0  0  0  0  0  0  0  0  0
  -89.7619   28.4356   -1.8182 H   0  0  0  0  0  0  0  0  0  0  0  0
  -92.0054   25.5830   -3.2136 H   0  0  0  0  0  0  0  0  0  0  0  0
  -91.2295   24.5091   -1.5357 C   0  0  0  0  0  0  0  0  0  0  0  0
  -90.1248   23.7259   -1.7607 C   0  0  0  0  0  0  0  0  0  0  0  0
  -89.7206   22.6891   -0.9345 C   0  0  0  0  0  0  0  0  0  0  0  0
  -90.4975   22.4292    0.1861 C   0  0  0  0  0  0  0  0  0  0  0  0
  -91.6166   23.1843    0.4450 C   0  0  0  0  0  0  0  0  0  0  0  0
  -91.9735   24.2230   -0.4222 C   0  0  0  0  0  0  0  0  0  0  0  0
  -90.0764   21.4171    1.1392 N   0  0  0  0  0  0  0  0  0  0  0  0
  -88.7620   20.8296    1.0679 C   0  0  0  0  0  0  0  0  0  0  0  0
  -88.4684   20.0344    2.3217 C   0  0  0  0  0  0  0  0  0  0  0  0
  -88.9662   20.6947    3.5031 N   0  0  0  0  0  0  0  0  0  0  0  0
  -88.6470   19.8542    4.6462 C   0  0  0  0  0  0  0  0  0  0  0  0
  -90.3737   20.8573    3.4847 C   0  0  0  0  0  0  0  0  0  0  0  0
  -90.9931   20.9664    2.1186 C   0  0  0  0  0  0  0  0  0  0  0  0
 13 14  1  0  0  0
 14 15  1  0  0  0
 15 16  1  0  0  0
 16 17  1  0  0  0
 17 18  1  0  0  0
 18 19  1  0  0  0
 19  7  1  0  0  0
  7  8  2  0  0  0
  8  9  1  0  0  0
  9 10  2  0  0  0
 10 11  1  0  0  0
 11 12  2  0  0  0
 11  1  1  0  0  0
  1  2  2  0  0  0
  2  3  1  0  0  0
  3  4  2  0  0  0
  4 26  1  0  0  0
 26 27  1  0  0  0
 27 28  2  0  0  0
 27 29  1  0  0  0
 29 32  1  0  0  0
 32 33  2  0  0  0
 33 34  1  0  0  0
 34 35  2  0  0  0
 35 36  1  0  0  0
 36 37  2  0  0  0
 35 38  1  0  0  0
 38 39  1  0  0  0
 39 40  1  0  0  0
 40 41  1  0  0  0
 41 42  1  0  0  0
 41 43  1  0  0  0
 43 44  1  0  0  0
  4  5  1  0  0  0
  5  6  2  0  0  0
  9 20  1  0  0  0
 20 21  1  0  0  0
 21 22  1  0  0  0
 22 23  1  0  0  0
 23 24  1  0  0  0
 24 25  1  0  0  0
 19 14  1  0  0  0
 12  7  1  0  0  0
  6  1  1  0  0  0
 25 20  1  0  0  0
 37 32  1  0  0  0
 44 38  1  0  0  0
 26 30  1  0  0  0
 29 31  1  0  0  0
M  END
> <minimizedAffinity>
-5.50841

> <CNNscore>
0.1101706028

> <CNNaffinity>
5.8069601059

> <CNN_VS>
0.6397563219

> <CNNaffinity_variance>
0.4967991710

$$$$
[H]c1c([H])c(N([H])C(=O)N([H])c2c([H])c([H])c(N3C([H])([H])C([H])([H])N(C([H])([H])[H])C([H])([H])C3([H])[H])c([H])c2[H])c([H])c([H])c1-c1nc(N2C([H])([H])C([H])([H])OC([H])([H])[C@@]2([H])C([H])([H])[H])nc(C2([H])C([H])([H])C([H])([H])OC([H])([H])C2([H])[H])n1


 44 49  0  0  0  0  0  0  0  0999 V2000
  -90.6856   32.6959   -4.8440 C   0  0  0  0  0  0  0  0  0  0  0  0
  -89.5769   32.1063   -4.2487 C   0  0  0  0  0  0  0  0  0  0  0  0
  -89.7057   30.8741   -3.7020 C   0  0  0  0  0  0  0  0  0  0  0  0
  -90.8990   30.1248   -3.6866 C   0  0  0  0  0  0  0  0  0  0  0  0
  -91.9946   30.7715   -4.2964 C   0  0  0  0  0  0  0  0  0  0  0  0
  -91.8835   32.0253   -4.8587 C   0  0  0  0  0  0  0  0  0  0  0  0
  -90.8316   35.2824   -7.4515 C   0  0  0  0  0  0  0  0  0  0  0  0
  -90.3633   36.3214   -6.7464 N   0  0  0  0  0  0  0  0  0  0  0  0
  -89.9813   36.2193   -5.4735 C   0  0  0  0  0  0  0  0  0  0  0  0
  -90.0713   35.0211   -4.9025 N   0  0  0  0  0  0  0  0  0  0  0  0
  -90.5283   33.9673   -5.5656 C   0  0  0  0  0  0  0  0  0  0  0  0
  -90.9090   34.0933   -6.8367 N   0  0  0  0  0  0  0  0  0  0  0  0
  -93.2349   36.7899   -8.3395 C   0  0  0  0  0  0  0  0  0  0  0  0
  -91.9480   36.6600   -9.1732 C   0  0  0  0  0  0  0  0  0  0  0  0
  -92.2947   36.6035  -10.6419 C   0  0  0  0  0  0  0  0  0  0  0  0
  -92.9147   35.3788  -10.8883 O   0  0  0  0  0  0  0  0  0  0  0  0
  -91.9987   34.3020  -10.8853 C   0  0  0  0  0  0  0  0  0  0  0  0
  -91.0135   34.4185   -9.7701 C   0  0  0  0  0  0  0  0  0  0  0  0
  -91.2679   35.4417   -8.8143 N   0  0  0  0  0  0  0  0  0  0  0  0
  -89.4653   37.3778   -4.6617 C   0  0  0  0  0  0  0  0  0  0  0  0
  -88.7080   38.3729   -5.5368 C   0  0  0  0  0  0  0  0  0  0  0  0
  -88.5143   39.6328   -4.6766 C   0  0  0  0  0  0  0  0  0  0  0  0
  -88.6422   39.2763   -3.3122 O   0  0  0  0  0  0  0  0  0  0  0  0
  -87.8552   38.1486   -3.0251 C   0  0  0  0  0  0  0  0  0  0  0  0
  -88.5711   36.9021   -3.5397 C   0  0  0  0  0  0  0  0  0  0  0  0
  -90.9409   28.8775   -3.2338 N   0  0  0  0  0  0  0  0  0  0  0  0
  -90.9771   27.5815   -2.7711 C   0  0  0  0  0  0  0  0  0  0  0  0
  -90.2219   26.6257   -3.2074 O   0  0  0  0  0  0  0  0  0  0  0  0
  -91.8997   27.1752   -1.7216 N   0  0  0  0  0  0  0  0  0  0  0  0
  -90.2773   28.4231   -4.3173 H   0  0  0  0  0  0  0  0  0  0  0  0
  -92.5588   27.7434   -1.2431 H   0  0  0  0  0  0  0  0  0  0  0  0
  -91.7647   25.7665   -1.4224 C   0  0  0  0  0  0  0  0  0  0  0  0
  -91.2027   25.4001   -0.2247 C   0  0  0  0  0  0  0  0  0  0  0  0
  -91.1415   24.0971    0.2435 C   0  0  0  0  0  0  0  0  0  0  0  0
  -91.6789   23.1049   -0.5650 C   0  0  0  0  0  0  0  0  0  0  0  0
  -92.2445   23.4270   -1.7757 C   0  0  0  0  0  0  0  0  0  0  0  0
  -92.2830   24.7616   -2.1949 C   0  0  0  0  0  0  0  0  0  0  0  0
  -91.7282   21.7330   -0.0902 N   0  0  0  0  0  0  0  0  0  0  0  0
  -90.6621   21.1842    0.7098 C   0  0  0  0  0  0  0  0  0  0  0  0
  -91.0793   19.8596    1.3117 C   0  0  0  0  0  0  0  0  0  0  0  0
  -92.4536   19.8794    1.7484 N   0  0  0  0  0  0  0  0  0  0  0  0
  -92.7608   18.5687    2.2984 C   0  0  0  0  0  0  0  0  0  0  0  0
  -93.3606   20.1085    0.6841 C   0  0  0  0  0  0  0  0  0  0  0  0
  -92.8169   20.9106   -0.4660 C   0  0  0  0  0  0  0  0  0  0  0  0
 13 14  1  0  0  0
 14 15  1  0  0  0
 15 16  1  0  0  0
 16 17  1  0  0  0
 17 18  1  0  0  0
 18 19  1  0  0  0
 19  7  1  0  0  0
  7  8  2  0  0  0
  8  9  1  0  0  0
  9 10  2  0  0  0
 10 11  1  0  0  0
 11 12  2  0  0  0
 11  1  1  0  0  0
  1  2  2  0  0  0
  2  3  1  0  0  0
  3  4  2  0  0  0
  4 26  1  0  0  0
 26 27  1  0  0  0
 27 28  2  0  0  0
 27 29  1  0  0  0
 29 32  1  0  0  0
 32 33  2  0  0  0
 33 34  1  0  0  0
 34 35  2  0  0  0
 35 36  1  0  0  0
 36 37  2  0  0  0
 35 38  1  0  0  0
 38 39  1  0  0  0
 39 40  1  0  0  0
 40 41  1  0  0  0
 41 42  1  0  0  0
 41 43  1  0  0  0
 43 44  1  0  0  0
  4  5  1  0  0  0
  5  6  2  0  0  0
  9 20  1  0  0  0
 20 21  1  0  0  0
 21 22  1  0  0  0
 22 23  1  0  0  0
 23 24  1  0  0  0
 24 25  1  0  0  0
 19 14  1  0  0  0
 12  7  1  0  0  0
  6  1  1  0  0  0
 25 20  1  0  0  0
 37 32  1  0  0  0
 44 38  1  0  0  0
 26 30  1  0  0  0
 29 31  1  0  0  0
M  END
> <minimizedAffinity>
-6.76371

> <CNNscore>
0.1036541834

> <CNNaffinity>
5.6385927200

> <CNN_VS>
0.5844637156

> <CNNaffinity_variance>
0.3452631235

$$$$
[H]c1c([H])c(N([H])C(=O)N([H])c2c([H])c([H])c(N3C([H])([H])C([H])([H])N(C([H])([H])[H])C([H])([H])C3([H])[H])c([H])c2[H])c([H])c([H])c1-c1nc(N2C([H])([H])C([H])([H])OC([H])([H])[C@@]2([H])C([H])([H])[H])nc(C2([H])C([H])([H])C([H])([H])OC([H])([H])C2([H])[H])n1


 44 49  0  0  0  0  0  0  0  0999 V2000
  -90.1901   32.1313   -3.7313 C   0  0  0  0  0  0  0  0  0  0  0  0
  -90.1568   30.8786   -3.1306 C   0  0  0  0  0  0  0  0  0  0  0  0
  -91.0223   29.9268   -3.5537 C   0  0  0  0  0  0  0  0  0  0  0  0
  -91.9754   30.1075   -4.5757 C   0  0  0  0  0  0  0  0  0  0  0  0
  -91.9725   31.3978   -5.1462 C   0  0  0  0  0  0  0  0  0  0  0  0
  -91.0993   32.3799   -4.7297 C   0  0  0  0  0  0  0  0  0  0  0  0
  -88.3098   35.2801   -3.4873 C   0  0  0  0  0  0  0  0  0  0  0  0
  -87.3857   34.9067   -2.5914 N   0  0  0  0  0  0  0  0  0  0  0  0
  -87.3288   33.6773   -2.0795 C   0  0  0  0  0  0  0  0  0  0  0  0
  -88.2354   32.7982   -2.4979 N   0  0  0  0  0  0  0  0  0  0  0  0
  -89.1659   33.1273   -3.3839 C   0  0  0  0  0  0  0  0  0  0  0  0
  -89.2069   34.3639   -3.8795 N   0  0  0  0  0  0  0  0  0  0  0  0
  -87.6324   36.1270   -6.2550 C   0  0  0  0  0  0  0  0  0  0  0  0
  -88.6871   36.8255   -5.3787 C   0  0  0  0  0  0  0  0  0  0  0  0
  -88.6902   38.3078   -5.6674 C   0  0  0  0  0  0  0  0  0  0  0  0
  -87.5056   38.8443   -5.1636 O   0  0  0  0  0  0  0  0  0  0  0  0
  -87.5167   38.9426   -3.7535 C   0  0  0  0  0  0  0  0  0  0  0  0
  -88.1027   37.7249   -3.1196 C   0  0  0  0  0  0  0  0  0  0  0  0
  -88.3597   36.6284   -3.9897 N   0  0  0  0  0  0  0  0  0  0  0  0
  -86.3065   33.2434   -1.0626 C   0  0  0  0  0  0  0  0  0  0  0  0
  -84.9032   33.2231   -1.6626 C   0  0  0  0  0  0  0  0  0  0  0  0
  -83.9361   33.0799   -0.4755 C   0  0  0  0  0  0  0  0  0  0  0  0
  -84.6452   32.5444    0.6270 O   0  0  0  0  0  0  0  0  0  0  0  0
  -85.3842   31.4167    0.2326 C   0  0  0  0  0  0  0  0  0  0  0  0
  -86.6404   31.8805   -0.5008 C   0  0  0  0  0  0  0  0  0  0  0  0
  -92.7243   29.1073   -5.0243 N   0  0  0  0  0  0  0  0  0  0  0  0
  -93.4928   28.0668   -5.4951 C   0  0  0  0  0  0  0  0  0  0  0  0
  -93.0678   27.1465   -6.2994 O   0  0  0  0  0  0  0  0  0  0  0  0
  -94.8888   27.9194   -5.1114 N   0  0  0  0  0  0  0  0  0  0  0  0
  -91.8498   28.8505   -6.0194 H   0  0  0  0  0  0  0  0  0  0  0  0
  -95.4131   28.5032   -4.5028 H   0  0  0  0  0  0  0  0  0  0  0  0
  -95.4879   26.7670   -5.7482 C   0  0  0  0  0  0  0  0  0  0  0  0
  -96.1440   26.9427   -6.9411 C   0  0  0  0  0  0  0  0  0  0  0  0
  -96.6388   25.9087   -7.7203 C   0  0  0  0  0  0  0  0  0  0  0  0
  -96.4613   24.6155   -7.2481 C   0  0  0  0  0  0  0  0  0  0  0  0
  -95.8167   24.3950   -6.0542 C   0  0  0  0  0  0  0  0  0  0  0  0
  -95.3328   25.4783   -5.3120 C   0  0  0  0  0  0  0  0  0  0  0  0
  -96.8750   23.4854   -8.0616 N   0  0  0  0  0  0  0  0  0  0  0  0
  -97.8862   23.6318   -9.0785 C   0  0  0  0  0  0  0  0  0  0  0  0
  -97.9268   22.4061   -9.9655 C   0  0  0  0  0  0  0  0  0  0  0  0
  -96.6043   21.9038  -10.2451 N   0  0  0  0  0  0  0  0  0  0  0  0
  -96.7479   20.7285  -11.0894 C   0  0  0  0  0  0  0  0  0  0  0  0
  -95.9174   21.4955   -9.0749 C   0  0  0  0  0  0  0  0  0  0  0  0
  -96.3113   22.2115   -7.8124 C   0  0  0  0  0  0  0  0  0  0  0  0
 13 14  1  0  0  0
 14 15  1  0  0  0
 15 16  1  0  0  0
 16 17  1  0  0  0
 17 18  1  0  0  0
 18 19  1  0  0  0
 19  7  1  0  0  0
  7  8  2  0  0  0
  8  9  1  0  0  0
  9 10  2  0  0  0
 10 11  1  0  0  0
 11 12  2  0  0  0
 11  1  1  0  0  0
  1  2  2  0  0  0
  2  3  1  0  0  0
  3  4  2  0  0  0
  4 26  1  0  0  0
 26 27  1  0  0  0
 27 28  2  0  0  0
 27 29  1  0  0  0
 29 32  1  0  0  0
 32 33  2  0  0  0
 33 34  1  0  0  0
 34 35  2  0  0  0
 35 36  1  0  0  0
 36 37  2  0  0  0
 35 38  1  0  0  0
 38 39  1  0  0  0
 39 40  1  0  0  0
 40 41  1  0  0  0
 41 42  1  0  0  0
 41 43  1  0  0  0
 43 44  1  0  0  0
  4  5  1  0  0  0
  5  6  2  0  0  0
  9 20  1  0  0  0
 20 21  1  0  0  0
 21 22  1  0  0  0
 22 23  1  0  0  0
 23 24  1  0  0  0
 24 25  1  0  0  0
 19 14  1  0  0  0
 12  7  1  0  0  0
  6  1  1  0  0  0
 25 20  1  0  0  0
 37 32  1  0  0  0
 44 38  1  0  0  0
 26 30  1  0  0  0
 29 31  1  0  0  0
M  END
> <minimizedAffinity>
-7.64141

> <CNNscore>
0.1027104929

> <CNNaffinity>
5.6453933716

> <CNN_VS>
0.5798411369

> <CNNaffinity_variance>
0.0601398535

$$$$
[H]OC(=O)[C@@]([H])(N([H])C(=O)[C@@]([H])(N([H])C(=O)[C@@]([H])(N([H])C(=O)[C@@]([H])(N([H])C(=O)[C@@]1([H])N(C(=O)[C@@]([H])(N([H])C(=O)OC([H])([H])c2c([H])c([H])c([H])c([H])c2[H])[C@@]([H])(C([H])([H])[H])C([H])([H])C([H])([H])[H])C([H])([H])C([H])([H])C1([H])[H])C([H])([H])C([H])(C([H])([H])[H])C([H])([H])[H])C([H])([H])O[H])C([H])(C([H])([H])[H])C([H])([H])[H])C([H])([H])O[H]


 61 62  0  0  0  0  0  0  0  0999 V2000
  -89.4759   31.2025   -2.6579 C   0  0  0  0  0  0  0  0  0  0  0  0
  -88.8875   28.7336   -2.7362 C   0  0  0  0  0  0  0  0  0  0  0  0
  -87.9352   29.0230   -3.5116 O   0  0  0  0  0  0  0  0  0  0  0  0
  -89.6841   29.8254   -2.2894 N   0  0  0  0  0  0  0  0  0  0  0  0
  -90.4649   29.5997   -1.6496 H   0  0  0  0  0  0  0  0  0  0  0  0
  -88.3836   27.6732    0.1412 C   0  0  0  0  0  0  0  0  0  0  0  0
  -88.0158   28.8885   -0.0626 O   0  0  0  0  0  0  0  0  0  0  0  0
  -88.8730   26.9893   -0.9691 N   0  0  0  0  0  0  0  0  0  0  0  0
  -89.2955   25.5696   -1.0696 C   0  0  0  0  0  0  0  0  0  0  0  0
  -90.7138   25.8023   -1.5308 C   0  0  0  0  0  0  0  0  0  0  0  0
  -90.6530   27.0433   -2.3960 C   0  0  0  0  0  0  0  0  0  0  0  0
  -89.1348   27.3676   -2.3422 C   0  0  0  0  0  0  0  0  0  0  0  0
  -88.2209   27.2042    1.5270 C   0  0  0  0  0  0  0  0  0  0  0  0
  -87.2583   28.0584    2.2487 N   0  0  0  0  0  0  0  0  0  0  0  0
  -85.8692   27.7410    2.3230 C   0  0  0  0  0  0  0  0  0  0  0  0
  -85.5079   26.6743    1.7313 O   0  0  0  0  0  0  0  0  0  0  0  0
  -87.5481   28.9342    2.7217 H   0  0  0  0  0  0  0  0  0  0  0  0
  -84.9496   28.5083    2.9780 O   0  0  0  0  0  0  0  0  0  0  0  0
  -83.6822   28.7196    2.3940 C   0  0  0  0  0  0  0  0  0  0  0  0
  -83.6711   29.9930    1.6523 C   0  0  0  0  0  0  0  0  0  0  0  0
  -84.8384   30.7426    1.5205 C   0  0  0  0  0  0  0  0  0  0  0  0
  -84.8853   31.9328    0.8456 C   0  0  0  0  0  0  0  0  0  0  0  0
  -83.7192   32.4042    0.2725 C   0  0  0  0  0  0  0  0  0  0  0  0
  -82.5573   31.6702    0.3966 C   0  0  0  0  0  0  0  0  0  0  0  0
  -82.5077   30.4616    1.0817 C   0  0  0  0  0  0  0  0  0  0  0  0
  -89.4656   27.0046    2.3055 C   0  0  0  0  0  0  0  0  0  0  0  0
  -89.8096   25.5219    2.5031 C   0  0  0  0  0  0  0  0  0  0  0  0
  -90.0165   26.7896    4.7696 C   0  0  0  0  0  0  0  0  0  0  0  0
  -89.6006   27.6737    3.6223 C   0  0  0  0  0  0  0  0  0  0  0  0
  -90.2825   31.6386   -3.7994 C   0  0  0  0  0  0  0  0  0  0  0  0
  -90.4112   30.9103   -4.8102 O   0  0  0  0  0  0  0  0  0  0  0  0
  -90.9499   32.8804   -3.8315 N   0  0  0  0  0  0  0  0  0  0  0  0
  -90.8716   33.5180   -3.0109 H   0  0  0  0  0  0  0  0  0  0  0  0
  -91.7281   33.2751   -4.9662 C   0  0  0  0  0  0  0  0  0  0  0  0
  -91.5096   34.6956   -5.3054 C   0  0  0  0  0  0  0  0  0  0  0  0
  -92.4860   35.4710   -5.5379 O   0  0  0  0  0  0  0  0  0  0  0  0
  -90.2062   35.2329   -5.3795 N   0  0  0  0  0  0  0  0  0  0  0  0
  -89.3980   34.6057   -5.1925 H   0  0  0  0  0  0  0  0  0  0  0  0
  -89.9598   36.6183   -5.7033 C   0  0  0  0  0  0  0  0  0  0  0  0
  -89.8700   36.8776   -7.1529 C   0  0  0  0  0  0  0  0  0  0  0  0
  -89.9702   35.9314   -7.9698 O   0  0  0  0  0  0  0  0  0  0  0  0
  -89.6707   38.1934   -7.6373 N   0  0  0  0  0  0  0  0  0  0  0  0
  -89.5874   38.9686   -6.9504 H   0  0  0  0  0  0  0  0  0  0  0  0
  -89.5755   38.5021   -9.0525 C   0  0  0  0  0  0  0  0  0  0  0  0
  -88.1489   38.6842   -9.3628 C   0  0  0  0  0  0  0  0  0  0  0  0
  -87.2444   38.9141   -8.3396 O   0  0  0  0  0  0  0  0  0  0  0  0
  -87.6782   38.6453  -10.5293 O   0  0  0  0  0  0  0  0  0  0  0  0
  -87.2694   39.6972   -7.7221 H   0  0  0  0  0  0  0  0  0  0  0  0
  -90.3648   39.7547   -9.3919 C   0  0  0  0  0  0  0  0  0  0  0  0
  -91.7336   39.5581   -9.2867 O   0  0  0  0  0  0  0  0  0  0  0  0
  -91.9989   38.9298   -9.9927 H   0  0  0  0  0  0  0  0  0  0  0  0
  -88.6919   37.1224   -5.0076 C   0  0  0  0  0  0  0  0  0  0  0  0
  -89.1034   37.7760   -3.6978 C   0  0  0  0  0  0  0  0  0  0  0  0
  -87.7135   36.0048   -4.7836 C   0  0  0  0  0  0  0  0  0  0  0  0
  -93.1963   33.0261   -4.7970 C   0  0  0  0  0  0  0  0  0  0  0  0
  -93.7123   33.6865   -3.6809 O   0  0  0  0  0  0  0  0  0  0  0  0
  -93.2475   33.3872   -2.8638 H   0  0  0  0  0  0  0  0  0  0  0  0
  -88.0472   31.6258   -2.7140 C   0  0  0  0  0  0  0  0  0  0  0  0
  -87.6645   32.9368   -2.1806 C   0  0  0  0  0  0  0  0  0  0  0  0
  -86.2604   33.3809   -2.3694 C   0  0  0  0  0  0  0  0  0  0  0  0
  -87.9461   32.8956   -0.6695 C   0  0  0  0  0  0  0  0  0  0  0  0
 28 29  1  0  0  0
 29 26  1  0  0  0
 26 27  1  0  0  0
 26 13  1  0  0  0
 13 14  1  0  0  0
 14 15  1  0  0  0
 15 16  2  0  0  0
 15 18  1  0  0  0
 18 19  1  0  0  0
 19 20  1  0  0  0
 20 21  2  0  0  0
 21 22  1  0  0  0
 22 23  2  0  0  0
 23 24  1  0  0  0
 24 25  2  0  0  0
 13  6  1  0  0  0
  6  7  2  0  0  0
  6  8  1  0  0  0
  8  9  1  0  0  0
  9 10  1  0  0  0
 10 11  1  0  0  0
 11 12  1  0  0  0
 12  2  1  0  0  0
  2  3  2  0  0  0
  2  4  1  0  0  0
  4  1  1  0  0  0
  1 58  1  0  0  0
 58 59  1  0  0  0
 59 60  1  0  0  0
 59 61  1  0  0  0
  1 30  1  0  0  0
 30 31  2  0  0  0
 30 32  1  0  0  0
 32 34  1  0  0  0
 34 55  1  0  0  0
 55 56  1  0  0  0
 34 35  1  0  0  0
 35 36  2  0  0  0
 35 37  1  0  0  0
 37 39  1  0  0  0
 39 52  1  0  0  0
 52 53  1  0  0  0
 52 54  1  0  0  0
 39 40  1  0  0  0
 40 41  2  0  0  0
 40 42  1  0  0  0
 42 44  1  0  0  0
 44 49  1  0  0  0
 49 50  1  0  0  0
 44 45  1  0  0  0
 45 46  1  0  0  0
 45 47  2  0  0  0
 25 20  1  0  0  0
 12  8  1  0  0  0
 14 17  1  0  0  0
  4  5  1  0  0  0
 32 33  1  0  0  0
 56 57  1  0  0  0
 37 38  1  0  0  0
 42 43  1  0  0  0
 50 51  1  0  0  0
 46 48  1  0  0  0
M  END
> <minimizedAffinity>
-7.67031

> <CNNscore>
0.5305898786

> <CNNaffinity>
7.6496162415

> <CNN_VS>
4.0588088036

> <CNNaffinity_variance>
0.2837460637

$$$$
[H]OC(=O)[C@@]([H])(N([H])C(=O)[C@@]([H])(N([H])C(=O)[C@@]([H])(N([H])C(=O)[C@@]([H])(N([H])C(=O)[C@@]1([H])N(C(=O)[C@@]([H])(N([H])C(=O)OC([H])([H])c2c([H])c([H])c([H])c([H])c2[H])[C@@]([H])(C([H])([H])[H])C([H])([H])C([H])([H])[H])C([H])([H])C([H])([H])C1([H])[H])C([H])([H])C([H])(C([H])([H])[H])C([H])([H])[H])C([H])([H])O[H])C([H])(C([H])([H])[H])C([H])([H])[H])C([H])([H])O[H]


 61 62  0  0  0  0  0  0  0  0999 V2000
  -89.8462   30.8328   -2.5435 C   0  0  0  0  0  0  0  0  0  0  0  0
  -89.1384   28.3951   -2.6077 C   0  0  0  0  0  0  0  0  0  0  0  0
  -88.2387   28.7164   -3.4318 O   0  0  0  0  0  0  0  0  0  0  0  0
  -89.9675   29.4545   -2.1424 N   0  0  0  0  0  0  0  0  0  0  0  0
  -90.7056   29.2028   -1.4628 H   0  0  0  0  0  0  0  0  0  0  0  0
  -88.5878   27.4451    0.2997 C   0  0  0  0  0  0  0  0  0  0  0  0
  -88.2994   28.6763    0.0662 O   0  0  0  0  0  0  0  0  0  0  0  0
  -89.0225   26.7018   -0.7952 N   0  0  0  0  0  0  0  0  0  0  0  0
  -89.3496   25.2551   -0.8609 C   0  0  0  0  0  0  0  0  0  0  0  0
  -90.7766   25.3815   -1.3365 C   0  0  0  0  0  0  0  0  0  0  0  0
  -90.7912   26.6011   -2.2337 C   0  0  0  0  0  0  0  0  0  0  0  0
  -89.2981   27.0264   -2.1794 C   0  0  0  0  0  0  0  0  0  0  0  0
  -88.4052   27.0238    1.6982 C   0  0  0  0  0  0  0  0  0  0  0  0
  -87.4215   27.8928    2.3721 N   0  0  0  0  0  0  0  0  0  0  0  0
  -86.0273   27.5896    2.3892 C   0  0  0  0  0  0  0  0  0  0  0  0
  -85.6808   26.5221    1.7902 O   0  0  0  0  0  0  0  0  0  0  0  0
  -87.6997   28.7691    2.8510 H   0  0  0  0  0  0  0  0  0  0  0  0
  -85.0884   28.3708    2.9990 O   0  0  0  0  0  0  0  0  0  0  0  0
  -83.8169   28.5168    2.4040 C   0  0  0  0  0  0  0  0  0  0  0  0
  -83.6733   29.8703    1.8392 C   0  0  0  0  0  0  0  0  0  0  0  0
  -82.6611   30.1486    0.9229 C   0  0  0  0  0  0  0  0  0  0  0  0
  -82.4831   31.3859    0.3647 C   0  0  0  0  0  0  0  0  0  0  0  0
  -83.3498   32.3981    0.7321 C   0  0  0  0  0  0  0  0  0  0  0  0
  -84.3559   32.1340    1.6388 C   0  0  0  0  0  0  0  0  0  0  0  0
  -84.5382   30.8783    2.2064 C   0  0  0  0  0  0  0  0  0  0  0  0
  -89.6378   26.8652    2.5048 C   0  0  0  0  0  0  0  0  0  0  0  0
  -89.4249   27.2069    3.9859 C   0  0  0  0  0  0  0  0  0  0  0  0
  -91.2274   28.8163    2.8019 C   0  0  0  0  0  0  0  0  0  0  0  0
  -90.8758   27.5516    2.0618 C   0  0  0  0  0  0  0  0  0  0  0  0
  -90.7540   31.2166   -3.6264 C   0  0  0  0  0  0  0  0  0  0  0  0
  -90.6494   30.7035   -4.7641 O   0  0  0  0  0  0  0  0  0  0  0  0
  -91.7807   32.1688   -3.4593 N   0  0  0  0  0  0  0  0  0  0  0  0
  -91.9052   32.6203   -2.5284 H   0  0  0  0  0  0  0  0  0  0  0  0
  -92.6484   32.5216   -4.5417 C   0  0  0  0  0  0  0  0  0  0  0  0
  -92.3628   33.8804   -5.0443 C   0  0  0  0  0  0  0  0  0  0  0  0
  -93.2836   34.6074   -5.5260 O   0  0  0  0  0  0  0  0  0  0  0  0
  -91.0552   34.4111   -5.0018 N   0  0  0  0  0  0  0  0  0  0  0  0
  -90.2920   33.8230   -4.6106 H   0  0  0  0  0  0  0  0  0  0  0  0
  -90.7448   35.7376   -5.4803 C   0  0  0  0  0  0  0  0  0  0  0  0
  -90.3557   35.7748   -6.9029 C   0  0  0  0  0  0  0  0  0  0  0  0
  -89.1949   36.1185   -7.2301 O   0  0  0  0  0  0  0  0  0  0  0  0
  -91.2851   35.4237   -7.9122 N   0  0  0  0  0  0  0  0  0  0  0  0
  -92.2443   35.1424   -7.6286 H   0  0  0  0  0  0  0  0  0  0  0  0
  -90.9530   35.4435   -9.3252 C   0  0  0  0  0  0  0  0  0  0  0  0
  -91.7094   36.5487   -9.9343 C   0  0  0  0  0  0  0  0  0  0  0  0
  -91.2471   37.8488   -9.8152 O   0  0  0  0  0  0  0  0  0  0  0  0
  -92.7809   36.3910  -10.5752 O   0  0  0  0  0  0  0  0  0  0  0  0
  -91.1232   38.3328   -8.9518 H   0  0  0  0  0  0  0  0  0  0  0  0
  -91.3039   34.1218   -9.9866 C   0  0  0  0  0  0  0  0  0  0  0  0
  -92.5407   33.6431   -9.5807 O   0  0  0  0  0  0  0  0  0  0  0  0
  -92.4704   33.4049   -8.6311 H   0  0  0  0  0  0  0  0  0  0  0  0
  -89.6480   36.3810   -4.6265 C   0  0  0  0  0  0  0  0  0  0  0  0
  -90.1928   37.6860   -4.0679 C   0  0  0  0  0  0  0  0  0  0  0  0
  -89.1987   35.4562   -3.5312 C   0  0  0  0  0  0  0  0  0  0  0  0
  -94.1032   32.4162   -4.1971 C   0  0  0  0  0  0  0  0  0  0  0  0
  -94.4628   33.2976   -3.1764 O   0  0  0  0  0  0  0  0  0  0  0  0
  -93.9343   33.1114   -2.3645 H   0  0  0  0  0  0  0  0  0  0  0  0
  -88.4451   31.3139   -2.7131 C   0  0  0  0  0  0  0  0  0  0  0  0
  -87.8596   32.1948   -1.6977 C   0  0  0  0  0  0  0  0  0  0  0  0
  -86.7936   31.6388   -0.8266 C   0  0  0  0  0  0  0  0  0  0  0  0
  -89.0160   32.6520   -0.7932 C   0  0  0  0  0  0  0  0  0  0  0  0
 28 29  1  0  0  0
 29 26  1  0  0  0
 26 27  1  0  0  0
 26 13  1  0  0  0
 13 14  1  0  0  0
 14 15  1  0  0  0
 15 16  2  0  0  0
 15 18  1  0  0  0
 18 19  1  0  0  0
 19 20  1  0  0  0
 20 21  2  0  0  0
 21 22  1  0  0  0
 22 23  2  0  0  0
 23 24  1  0  0  0
 24 25  2  0  0  0
 13  6  1  0  0  0
  6  7  2  0  0  0
  6  8  1  0  0  0
  8  9  1  0  0  0
  9 10  1  0  0  0
 10 11  1  0  0  0
 11 12  1  0  0  0
 12  2  1  0  0  0
  2  3  2  0  0  0
  2  4  1  0  0  0
  4  1  1  0  0  0
  1 58  1  0  0  0
 58 59  1  0  0  0
 59 60  1  0  0  0
 59 61  1  0  0  0
  1 30  1  0  0  0
 30 31  2  0  0  0
 30 32  1  0  0  0
 32 34  1  0  0  0
 34 55  1  0  0  0
 55 56  1  0  0  0
 34 35  1  0  0  0
 35 36  2  0  0  0
 35 37  1  0  0  0
 37 39  1  0  0  0
 39 52  1  0  0  0
 52 53  1  0  0  0
 52 54  1  0  0  0
 39 40  1  0  0  0
 40 41  2  0  0  0
 40 42  1  0  0  0
 42 44  1  0  0  0
 44 49  1  0  0  0
 49 50  1  0  0  0
 44 45  1  0  0  0
 45 46  1  0  0  0
 45 47  2  0  0  0
 25 20  1  0  0  0
 12  8  1  0  0  0
 14 17  1  0  0  0
  4  5  1  0  0  0
 32 33  1  0  0  0
 56 57  1  0  0  0
 37 38  1  0  0  0
 42 43  1  0  0  0
 50 51  1  0  0  0
 46 48  1  0  0  0
M  END
> <minimizedAffinity>
-7.78422

> <CNNscore>
0.5168930292

> <CNNaffinity>
7.4888586998

> <CNN_VS>
3.8709387779

> <CNNaffinity_variance>
0.2084204406

$$$$
[H]OC(=O)[C@@]([H])(N([H])C(=O)[C@@]([H])(N([H])C(=O)[C@@]([H])(N([H])C(=O)[C@@]([H])(N([H])C(=O)[C@@]1([H])N(C(=O)[C@@]([H])(N([H])C(=O)OC([H])([H])c2c([H])c([H])c([H])c([H])c2[H])[C@@]([H])(C([H])([H])[H])C([H])([H])C([H])([H])[H])C([H])([H])C([H])([H])C1([H])[H])C([H])([H])C([H])(C([H])([H])[H])C([H])([H])[H])C([H])([H])O[H])C([H])(C([H])([H])[H])C([H])([H])[H])C([H])([H])O[H]


 61 62  0  0  0  0  0  0  0  0999 V2000
  -89.7054   30.8419   -2.5746 C   0  0  0  0  0  0  0  0  0  0  0  0
  -88.9495   28.4213   -2.4446 C   0  0  0  0  0  0  0  0  0  0  0  0
  -88.0731   28.6870   -3.3125 O   0  0  0  0  0  0  0  0  0  0  0  0
  -89.7906   29.5013   -2.0542 N   0  0  0  0  0  0  0  0  0  0  0  0
  -90.5097   29.2954   -1.3397 H   0  0  0  0  0  0  0  0  0  0  0  0
  -88.0115   27.6656    0.4202 C   0  0  0  0  0  0  0  0  0  0  0  0
  -87.7359   28.8681    0.0574 O   0  0  0  0  0  0  0  0  0  0  0  0
  -88.6104   26.8590   -0.5446 N   0  0  0  0  0  0  0  0  0  0  0  0
  -88.9706   25.4215   -0.4557 C   0  0  0  0  0  0  0  0  0  0  0  0
  -90.4479   25.5551   -0.7355 C   0  0  0  0  0  0  0  0  0  0  0  0
  -90.5662   26.7075   -1.7106 C   0  0  0  0  0  0  0  0  0  0  0  0
  -89.0727   27.0919   -1.8971 C   0  0  0  0  0  0  0  0  0  0  0  0
  -87.6410   27.3401    1.8072 C   0  0  0  0  0  0  0  0  0  0  0  0
  -86.6684   28.3224    2.3230 N   0  0  0  0  0  0  0  0  0  0  0  0
  -85.2775   28.0250    2.4372 C   0  0  0  0  0  0  0  0  0  0  0  0
  -84.9239   26.8596    2.0697 O   0  0  0  0  0  0  0  0  0  0  0  0
  -86.9522   29.2766    2.6122 H   0  0  0  0  0  0  0  0  0  0  0  0
  -84.3488   28.9088    2.9062 O   0  0  0  0  0  0  0  0  0  0  0  0
  -83.2230   29.2164    2.1124 C   0  0  0  0  0  0  0  0  0  0  0  0
  -83.4847   30.4221    1.3065 C   0  0  0  0  0  0  0  0  0  0  0  0
  -84.7615   30.9787    1.2640 C   0  0  0  0  0  0  0  0  0  0  0  0
  -85.0604   32.0984    0.5351 C   0  0  0  0  0  0  0  0  0  0  0  0
  -84.0454   32.6965   -0.1879 C   0  0  0  0  0  0  0  0  0  0  0  0
  -82.7772   32.1539   -0.1533 C   0  0  0  0  0  0  0  0  0  0  0  0
  -82.4717   31.0172    0.5864 C   0  0  0  0  0  0  0  0  0  0  0  0
  -88.7595   27.1281    2.7555 C   0  0  0  0  0  0  0  0  0  0  0  0
  -90.0615   27.7980    2.2954 C   0  0  0  0  0  0  0  0  0  0  0  0
  -89.6481   25.5905    4.5633 C   0  0  0  0  0  0  0  0  0  0  0  0
  -89.0923   25.7437    3.1709 C   0  0  0  0  0  0  0  0  0  0  0  0
  -90.5732   31.0856   -3.7285 C   0  0  0  0  0  0  0  0  0  0  0  0
  -90.7539   30.1991   -4.5946 O   0  0  0  0  0  0  0  0  0  0  0  0
  -91.2450   32.3085   -3.9326 N   0  0  0  0  0  0  0  0  0  0  0  0
  -91.1246   33.0742   -3.2359 H   0  0  0  0  0  0  0  0  0  0  0  0
  -92.0839   32.5124   -5.0743 C   0  0  0  0  0  0  0  0  0  0  0  0
  -91.4194   33.3506   -6.0924 C   0  0  0  0  0  0  0  0  0  0  0  0
  -90.1896   33.6454   -5.9967 O   0  0  0  0  0  0  0  0  0  0  0  0
  -92.1342   33.8475   -7.2039 N   0  0  0  0  0  0  0  0  0  0  0  0
  -93.1436   33.6135   -7.2914 H   0  0  0  0  0  0  0  0  0  0  0  0
  -91.5120   34.6648   -8.2187 C   0  0  0  0  0  0  0  0  0  0  0  0
  -91.4332   36.0933   -7.8583 C   0  0  0  0  0  0  0  0  0  0  0  0
  -92.2063   36.9222   -8.3948 O   0  0  0  0  0  0  0  0  0  0  0  0
  -90.4872   36.5436   -6.9054 N   0  0  0  0  0  0  0  0  0  0  0  0
  -89.8511   35.8474   -6.4692 H   0  0  0  0  0  0  0  0  0  0  0  0
  -90.3688   37.9369   -6.5159 C   0  0  0  0  0  0  0  0  0  0  0  0
  -88.9348   38.2657   -6.5072 C   0  0  0  0  0  0  0  0  0  0  0  0
  -88.1094   37.7263   -5.5346 O   0  0  0  0  0  0  0  0  0  0  0  0
  -88.3884   39.0269   -7.3473 O   0  0  0  0  0  0  0  0  0  0  0  0
  -88.2094   37.8788   -4.5538 H   0  0  0  0  0  0  0  0  0  0  0  0
  -90.9843   38.1750   -5.1477 C   0  0  0  0  0  0  0  0  0  0  0  0
  -90.5689   37.2373   -4.2141 O   0  0  0  0  0  0  0  0  0  0  0  0
  -90.9427   36.3689   -4.4782 H   0  0  0  0  0  0  0  0  0  0  0  0
  -92.2333   34.5084   -9.5608 C   0  0  0  0  0  0  0  0  0  0  0  0
  -91.1823   34.2725  -10.6339 C   0  0  0  0  0  0  0  0  0  0  0  0
  -93.2345   33.3895   -9.5129 C   0  0  0  0  0  0  0  0  0  0  0  0
  -93.4167   33.1081   -4.7350 C   0  0  0  0  0  0  0  0  0  0  0  0
  -93.8058   32.8063   -3.4290 O   0  0  0  0  0  0  0  0  0  0  0  0
  -93.8594   31.8288   -3.3075 H   0  0  0  0  0  0  0  0  0  0  0  0
  -88.3181   31.3680   -2.7238 C   0  0  0  0  0  0  0  0  0  0  0  0
  -87.8450   32.4158   -1.8138 C   0  0  0  0  0  0  0  0  0  0  0  0
  -88.6601   32.7092   -0.6081 C   0  0  0  0  0  0  0  0  0  0  0  0
  -87.7488   33.7072   -2.6428 C   0  0  0  0  0  0  0  0  0  0  0  0
 28 29  1  0  0  0
 29 26  1  0  0  0
 26 27  1  0  0  0
 26 13  1  0  0  0
 13 14  1  0  0  0
 14 15  1  0  0  0
 15 16  2  0  0  0
 15 18  1  0  0  0
 18 19  1  0  0  0
 19 20  1  0  0  0
 20 21  2  0  0  0
 21 22  1  0  0  0
 22 23  2  0  0  0
 23 24  1  0  0  0
 24 25  2  0  0  0
 13  6  1  0  0  0
  6  7  2  0  0  0
  6  8  1  0  0  0
  8  9  1  0  0  0
  9 10  1  0  0  0
 10 11  1  0  0  0
 11 12  1  0  0  0
 12  2  1  0  0  0
  2  3  2  0  0  0
  2  4  1  0  0  0
  4  1  1  0  0  0
  1 58  1  0  0  0
 58 59  1  0  0  0
 59 60  1  0  0  0
 59 61  1  0  0  0
  1 30  1  0  0  0
 30 31  2  0  0  0
 30 32  1  0  0  0
 32 34  1  0  0  0
 34 55  1  0  0  0
 55 56  1  0  0  0
 34 35  1  0  0  0
 35 36  2  0  0  0
 35 37  1  0  0  0
 37 39  1  0  0  0
 39 52  1  0  0  0
 52 53  1  0  0  0
 52 54  1  0  0  0
 39 40  1  0  0  0
 40 41  2  0  0  0
 40 42  1  0  0  0
 42 44  1  0  0  0
 44 49  1  0  0  0
 49 50  1  0  0  0
 44 45  1  0  0  0
 45 46  1  0  0  0
 45 47  2  0  0  0
 25 20  1  0  0  0
 12  8  1  0  0  0
 14 17  1  0  0  0
  4  5  1  0  0  0
 32 33  1  0  0  0
 56 57  1  0  0  0
 37 38  1  0  0  0
 42 43  1  0  0  0
 50 51  1  0  0  0
 46 48  1  0  0  0
M  END
> <minimizedAffinity>
-8.15455

> <CNNscore>
0.4789550006

> <CNNaffinity>
7.4436364174

> <CNN_VS>
3.5651669502

> <CNNaffinity_variance>
0.1317206174

$$$$
[H]OC(=O)[C@@]([H])(N([H])C(=O)[C@@]([H])(N([H])C(=O)[C@@]([H])(N([H])C(=O)[C@@]([H])(N([H])C(=O)[C@@]1([H])N(C(=O)[C@@]([H])(N([H])C(=O)OC([H])([H])c2c([H])c([H])c([H])c([H])c2[H])[C@@]([H])(C([H])([H])[H])C([H])([H])C([H])([H])[H])C([H])([H])C([H])([H])C1([H])[H])C([H])([H])C([H])(C([H])([H])[H])C([H])([H])[H])C([H])([H])O[H])C([H])(C([H])([H])[H])C([H])([H])[H])C([H])([H])O[H]


 61 62  0  0  0  0  0  0  0  0999 V2000
  -88.4953   31.3949   -3.1552 C   0  0  0  0  0  0  0  0  0  0  0  0
  -89.7113   29.2451   -2.5657 C   0  0  0  0  0  0  0  0  0  0  0  0
  -90.7322   29.9382   -2.3025 O   0  0  0  0  0  0  0  0  0  0  0  0
  -88.5625   29.9641   -3.0010 N   0  0  0  0  0  0  0  0  0  0  0  0
  -87.7213   29.4050   -3.2238 H   0  0  0  0  0  0  0  0  0  0  0  0
  -89.0153   27.7862    0.0886 C   0  0  0  0  0  0  0  0  0  0  0  0
  -88.8493   29.0612    0.1093 O   0  0  0  0  0  0  0  0  0  0  0  0
  -89.3996   27.2405   -1.1339 N   0  0  0  0  0  0  0  0  0  0  0  0
  -89.5898   25.8121   -1.4912 C   0  0  0  0  0  0  0  0  0  0  0  0
  -91.0316   25.8933   -1.9307 C   0  0  0  0  0  0  0  0  0  0  0  0
  -91.1793   27.2615   -2.5622 C   0  0  0  0  0  0  0  0  0  0  0  0
  -89.7323   27.8092   -2.4235 C   0  0  0  0  0  0  0  0  0  0  0  0
  -88.7657   27.1113    1.3727 C   0  0  0  0  0  0  0  0  0  0  0  0
  -87.6657   27.7762    2.0971 N   0  0  0  0  0  0  0  0  0  0  0  0
  -86.3092   27.3512    1.9729 C   0  0  0  0  0  0  0  0  0  0  0  0
  -86.1029   26.3612    1.2010 O   0  0  0  0  0  0  0  0  0  0  0  0
  -87.8296   28.5903    2.7176 H   0  0  0  0  0  0  0  0  0  0  0  0
  -85.2659   27.9435    2.6243 O   0  0  0  0  0  0  0  0  0  0  0  0
  -85.3592   29.3043    2.9870 C   0  0  0  0  0  0  0  0  0  0  0  0
  -84.4897   30.1208    2.1215 C   0  0  0  0  0  0  0  0  0  0  0  0
  -83.1756   29.7301    1.8721 C   0  0  0  0  0  0  0  0  0  0  0  0
  -82.3253   30.4479    1.0746 C   0  0  0  0  0  0  0  0  0  0  0  0
  -82.7990   31.6103    0.4958 C   0  0  0  0  0  0  0  0  0  0  0  0
  -84.0987   32.0069    0.7359 C   0  0  0  0  0  0  0  0  0  0  0  0
  -84.9635   31.2793    1.5452 C   0  0  0  0  0  0  0  0  0  0  0  0
  -89.9443   26.8977    2.2448 C   0  0  0  0  0  0  0  0  0  0  0  0
  -90.3647   25.4236    2.3225 C   0  0  0  0  0  0  0  0  0  0  0  0
  -90.2764   26.4474    4.7164 C   0  0  0  0  0  0  0  0  0  0  0  0
  -89.9144   27.4270    3.6300 C   0  0  0  0  0  0  0  0  0  0  0  0
  -88.9869   31.8749   -4.4482 C   0  0  0  0  0  0  0  0  0  0  0  0
  -88.7499   31.2397   -5.5013 O   0  0  0  0  0  0  0  0  0  0  0  0
  -89.7414   33.0583   -4.5855 N   0  0  0  0  0  0  0  0  0  0  0  0
  -89.9635   33.6181   -3.7351 H   0  0  0  0  0  0  0  0  0  0  0  0
  -90.2035   33.4989   -5.8666 C   0  0  0  0  0  0  0  0  0  0  0  0
  -89.9511   34.9399   -6.0677 C   0  0  0  0  0  0  0  0  0  0  0  0
  -90.7653   35.6629   -6.7179 O   0  0  0  0  0  0  0  0  0  0  0  0
  -88.7954   35.5557   -5.5400 N   0  0  0  0  0  0  0  0  0  0  0  0
  -88.1200   34.9720   -5.0066 H   0  0  0  0  0  0  0  0  0  0  0  0
  -88.5228   36.9629   -5.7147 C   0  0  0  0  0  0  0  0  0  0  0  0
  -87.2832   37.2339   -6.4672 C   0  0  0  0  0  0  0  0  0  0  0  0
  -86.8869   36.4263   -7.3410 O   0  0  0  0  0  0  0  0  0  0  0  0
  -86.5289   38.4053   -6.2130 N   0  0  0  0  0  0  0  0  0  0  0  0
  -86.8666   39.0658   -5.4854 H   0  0  0  0  0  0  0  0  0  0  0  0
  -85.3034   38.7188   -6.9250 C   0  0  0  0  0  0  0  0  0  0  0  0
  -84.2103   38.6952   -5.9405 C   0  0  0  0  0  0  0  0  0  0  0  0
  -84.4547   38.2590   -4.6489 O   0  0  0  0  0  0  0  0  0  0  0  0
  -83.0321   39.0553   -6.1973 O   0  0  0  0  0  0  0  0  0  0  0  0
  -85.0945   38.6870   -4.0144 H   0  0  0  0  0  0  0  0  0  0  0  0
  -85.3948   40.0786   -7.5958 C   0  0  0  0  0  0  0  0  0  0  0  0
  -86.1905   40.0521   -8.7314 O   0  0  0  0  0  0  0  0  0  0  0  0
  -85.7316   39.5029   -9.4032 H   0  0  0  0  0  0  0  0  0  0  0  0
  -88.4746   37.6796   -4.3620 C   0  0  0  0  0  0  0  0  0  0  0  0
  -89.8662   38.2155   -4.0648 C   0  0  0  0  0  0  0  0  0  0  0  0
  -87.9934   36.7599   -3.2761 C   0  0  0  0  0  0  0  0  0  0  0  0
  -91.6548   33.2117   -6.1071 C   0  0  0  0  0  0  0  0  0  0  0  0
  -92.4743   33.8487   -5.1740 O   0  0  0  0  0  0  0  0  0  0  0  0
  -92.2435   33.5537   -4.2613 H   0  0  0  0  0  0  0  0  0  0  0  0
  -87.2109   32.0117   -2.7157 C   0  0  0  0  0  0  0  0  0  0  0  0
  -87.0964   32.5397   -1.3526 C   0  0  0  0  0  0  0  0  0  0  0  0
  -88.3454   32.7227   -0.5711 C   0  0  0  0  0  0  0  0  0  0  0  0
  -86.4085   33.9100   -1.4685 C   0  0  0  0  0  0  0  0  0  0  0  0
 28 29  1  0  0  0
 29 26  1  0  0  0
 26 27  1  0  0  0
 26 13  1  0  0  0
 13 14  1  0  0  0
 14 15  1  0  0  0
 15 16  2  0  0  0
 15 18  1  0  0  0
 18 19  1  0  0  0
 19 20  1  0  0  0
 20 21  2  0  0  0
 21 22  1  0  0  0
 22 23  2  0  0  0
 23 24  1  0  0  0
 24 25  2  0  0  0
 13  6  1  0  0  0
  6  7  2  0  0  0
  6  8  1  0  0  0
  8  9  1  0  0  0
  9 10  1  0  0  0
 10 11  1  0  0  0
 11 12  1  0  0  0
 12  2  1  0  0  0
  2  3  2  0  0  0
  2  4  1  0  0  0
  4  1  1  0  0  0
  1 58  1  0  0  0
 58 59  1  0  0  0
 59 60  1  0  0  0
 59 61  1  0  0  0
  1 30  1  0  0  0
 30 31  2  0  0  0
 30 32  1  0  0  0
 32 34  1  0  0  0
 34 55  1  0  0  0
 55 56  1  0  0  0
 34 35  1  0  0  0
 35 36  2  0  0  0
 35 37  1  0  0  0
 37 39  1  0  0  0
 39 52  1  0  0  0
 52 53  1  0  0  0
 52 54  1  0  0  0
 39 40  1  0  0  0
 40 41  2  0  0  0
 40 42  1  0  0  0
 42 44  1  0  0  0
 44 49  1  0  0  0
 49 50  1  0  0  0
 44 45  1  0  0  0
 45 46  1  0  0  0
 45 47  2  0  0  0
 25 20  1  0  0  0
 12  8  1  0  0  0
 14 17  1  0  0  0
  4  5  1  0  0  0
 32 33  1  0  0  0
 56 57  1  0  0  0
 37 38  1  0  0  0
 42 43  1  0  0  0
 50 51  1  0  0  0
 46 48  1  0  0  0
M  END
> <minimizedAffinity>
-8.47608

> <CNNscore>
0.3604169190

> <CNNaffinity>
7.3401975632

> <CNN_VS>
2.6455314159

> <CNNaffinity_variance>
0.3303795159

$$$$
[H]OC(=O)[C@@]([H])(N([H])C(=O)[C@@]([H])(N([H])C(=O)[C@@]([H])(N([H])C(=O)[C@@]([H])(N([H])C(=O)[C@@]1([H])N(C(=O)[C@@]([H])(N([H])C(=O)OC([H])([H])c2c([H])c([H])c([H])c([H])c2[H])[C@@]([H])(C([H])([H])[H])C([H])([H])C([H])([H])[H])C([H])([H])C([H])([H])C1([H])[H])C([H])([H])C([H])(C([H])([H])[H])C([H])([H])[H])C([H])([H])O[H])C([H])(C([H])([H])[H])C([H])([H])[H])C([H])([H])O[H]


 61 62  0  0  0  0  0  0  0  0999 V2000
  -89.7426   31.5128   -2.4781 C   0  0  0  0  0  0  0  0  0  0  0  0
  -90.0704   29.0038   -2.2649 C   0  0  0  0  0  0  0  0  0  0  0  0
  -91.3157   29.1993   -2.3176 O   0  0  0  0  0  0  0  0  0  0  0  0
  -89.2511   30.1652   -2.3447 N   0  0  0  0  0  0  0  0  0  0  0  0
  -88.2283   30.0158   -2.3070 H   0  0  0  0  0  0  0  0  0  0  0  0
  -89.1839   27.7936    0.4568 C   0  0  0  0  0  0  0  0  0  0  0  0
  -89.5450   29.0269    0.5020 O   0  0  0  0  0  0  0  0  0  0  0  0
  -89.1635   27.2095   -0.8076 N   0  0  0  0  0  0  0  0  0  0  0  0
  -88.7213   25.8448   -1.1898 C   0  0  0  0  0  0  0  0  0  0  0  0
  -90.0090   25.3734   -1.8208 C   0  0  0  0  0  0  0  0  0  0  0  0
  -90.6116   26.6044   -2.4642 C   0  0  0  0  0  0  0  0  0  0  0  0
  -89.5333   27.6713   -2.1294 C   0  0  0  0  0  0  0  0  0  0  0  0
  -88.8464   27.2019    1.7617 C   0  0  0  0  0  0  0  0  0  0  0  0
  -87.6502   27.8544    2.3276 N   0  0  0  0  0  0  0  0  0  0  0  0
  -86.3302   27.3850    2.0571 C   0  0  0  0  0  0  0  0  0  0  0  0
  -86.2443   26.3666    1.2995 O   0  0  0  0  0  0  0  0  0  0  0  0
  -87.7169   28.6913    2.9358 H   0  0  0  0  0  0  0  0  0  0  0  0
  -85.2010   27.9645    2.5596 O   0  0  0  0  0  0  0  0  0  0  0  0
  -85.2469   29.3059    2.9964 C   0  0  0  0  0  0  0  0  0  0  0  0
  -84.4805   30.1654    2.0767 C   0  0  0  0  0  0  0  0  0  0  0  0
  -83.1467   29.8803    1.7915 C   0  0  0  0  0  0  0  0  0  0  0  0
  -82.3886   30.6420    0.9434 C   0  0  0  0  0  0  0  0  0  0  0  0
  -82.9800   31.7406    0.3484 C   0  0  0  0  0  0  0  0  0  0  0  0
  -84.3003   32.0325    0.6236 C   0  0  0  0  0  0  0  0  0  0  0  0
  -85.0716   31.2601    1.4843 C   0  0  0  0  0  0  0  0  0  0  0  0
  -89.9453   27.1209    2.7523 C   0  0  0  0  0  0  0  0  0  0  0  0
  -90.4225   25.6818    2.9916 C   0  0  0  0  0  0  0  0  0  0  0  0
  -90.0476   26.8824    5.2731 C   0  0  0  0  0  0  0  0  0  0  0  0
  -89.7599   27.7563    4.0796 C   0  0  0  0  0  0  0  0  0  0  0  0
  -90.0292   31.9047   -3.8595 C   0  0  0  0  0  0  0  0  0  0  0  0
  -89.4185   31.3760   -4.8167 O   0  0  0  0  0  0  0  0  0  0  0  0
  -90.9899   32.8822   -4.1911 N   0  0  0  0  0  0  0  0  0  0  0  0
  -91.5230   33.3474   -3.4260 H   0  0  0  0  0  0  0  0  0  0  0  0
  -91.2420   33.2423   -5.5534 C   0  0  0  0  0  0  0  0  0  0  0  0
  -91.0973   34.6965   -5.7652 C   0  0  0  0  0  0  0  0  0  0  0  0
  -90.7518   35.1628   -6.8929 O   0  0  0  0  0  0  0  0  0  0  0  0
  -91.3409   35.6112   -4.7178 N   0  0  0  0  0  0  0  0  0  0  0  0
  -91.6230   35.2398   -3.7883 H   0  0  0  0  0  0  0  0  0  0  0  0
  -91.2133   37.0386   -4.8945 C   0  0  0  0  0  0  0  0  0  0  0  0
  -89.8376   37.5355   -4.7019 C   0  0  0  0  0  0  0  0  0  0  0  0
  -89.4983   38.0429   -3.6064 O   0  0  0  0  0  0  0  0  0  0  0  0
  -88.8871   37.4453   -5.7479 N   0  0  0  0  0  0  0  0  0  0  0  0
  -89.1808   37.0246   -6.6515 H   0  0  0  0  0  0  0  0  0  0  0  0
  -87.5219   37.9187   -5.6099 C   0  0  0  0  0  0  0  0  0  0  0  0
  -86.7894   37.4901   -6.8119 C   0  0  0  0  0  0  0  0  0  0  0  0
  -85.8001   38.3013   -7.3424 O   0  0  0  0  0  0  0  0  0  0  0  0
  -87.0059   36.4048   -7.4109 O   0  0  0  0  0  0  0  0  0  0  0  0
  -85.9460   39.2248   -7.6901 H   0  0  0  0  0  0  0  0  0  0  0  0
  -86.8741   37.3576   -4.3558 C   0  0  0  0  0  0  0  0  0  0  0  0
  -86.2838   36.1222   -4.5768 O   0  0  0  0  0  0  0  0  0  0  0  0
  -87.0013   35.4790   -4.7635 H   0  0  0  0  0  0  0  0  0  0  0  0
  -92.1702   37.7897   -3.9639 C   0  0  0  0  0  0  0  0  0  0  0  0
  -92.7245   38.9837   -4.7248 C   0  0  0  0  0  0  0  0  0  0  0  0
  -93.2682   36.8902   -3.4719 C   0  0  0  0  0  0  0  0  0  0  0  0
  -92.5866   32.8010   -6.0467 C   0  0  0  0  0  0  0  0  0  0  0  0
  -92.6713   32.8438   -7.4393 O   0  0  0  0  0  0  0  0  0  0  0  0
  -92.5047   33.7611   -7.7619 H   0  0  0  0  0  0  0  0  0  0  0  0
  -88.9930   32.5328   -1.6900 C   0  0  0  0  0  0  0  0  0  0  0  0
  -87.9194   33.2940   -2.3364 C   0  0  0  0  0  0  0  0  0  0  0  0
  -86.6748   33.5338   -1.5633 C   0  0  0  0  0  0  0  0  0  0  0  0
  -88.5136   34.6625   -2.7086 C   0  0  0  0  0  0  0  0  0  0  0  0
 28 29  1  0  0  0
 29 26  1  0  0  0
 26 27  1  0  0  0
 26 13  1  0  0  0
 13 14  1  0  0  0
 14 15  1  0  0  0
 15 16  2  0  0  0
 15 18  1  0  0  0
 18 19  1  0  0  0
 19 20  1  0  0  0
 20 21  2  0  0  0
 21 22  1  0  0  0
 22 23  2  0  0  0
 23 24  1  0  0  0
 24 25  2  0  0  0
 13  6  1  0  0  0
  6  7  2  0  0  0
  6  8  1  0  0  0
  8  9  1  0  0  0
  9 10  1  0  0  0
 10 11  1  0  0  0
 11 12  1  0  0  0
 12  2  1  0  0  0
  2  3  2  0  0  0
  2  4  1  0  0  0
  4  1  1  0  0  0
  1 58  1  0  0  0
 58 59  1  0  0  0
 59 60  1  0  0  0
 59 61  1  0  0  0
  1 30  1  0  0  0
 30 31  2  0  0  0
 30 32  1  0  0  0
 32 34  1  0  0  0
 34 55  1  0  0  0
 55 56  1  0  0  0
 34 35  1  0  0  0
 35 36  2  0  0  0
 35 37  1  0  0  0
 37 39  1  0  0  0
 39 52  1  0  0  0
 52 53  1  0  0  0
 52 54  1  0  0  0
 39 40  1  0  0  0
 40 41  2  0  0  0
 40 42  1  0  0  0
 42 44  1  0  0  0
 44 49  1  0  0  0
 49 50  1  0  0  0
 44 45  1  0  0  0
 45 46  1  0  0  0
 45 47  2  0  0  0
 25 20  1  0  0  0
 12  8  1  0  0  0
 14 17  1  0  0  0
  4  5  1  0  0  0
 32 33  1  0  0  0
 56 57  1  0  0  0
 37 38  1  0  0  0
 42 43  1  0  0  0
 50 51  1  0  0  0
 46 48  1  0  0  0
M  END
> <minimizedAffinity>
-8.43381

> <CNNscore>
0.3357632756

> <CNNaffinity>
7.3517427444

> <CNN_VS>
2.4684453011

> <CNNaffinity_variance>
0.2489678115

$$$$
[H]OC(=O)[C@@]([H])(N([H])C(=O)[C@@]([H])(N([H])C(=O)[C@@]([H])(N([H])C(=O)[C@@]([H])(N([H])C(=O)[C@@]1([H])N(C(=O)[C@@]([H])(N([H])C(=O)OC([H])([H])c2c([H])c([H])c([H])c([H])c2[H])[C@@]([H])(C([H])([H])[H])C([H])([H])C([H])([H])[H])C([H])([H])C([H])([H])C1([H])[H])C([H])([H])C([H])(C([H])([H])[H])C([H])([H])[H])C([H])([H])O[H])C([H])(C([H])([H])[H])C([H])([H])[H])C([H])([H])O[H]


 61 62  0  0  0  0  0  0  0  0999 V2000
  -89.4469   31.2419   -2.7138 C   0  0  0  0  0  0  0  0  0  0  0  0
  -88.7227   28.8083   -2.7459 C   0  0  0  0  0  0  0  0  0  0  0  0
  -87.7734   29.1393   -3.5082 O   0  0  0  0  0  0  0  0  0  0  0  0
  -89.5861   29.8605   -2.3292 N   0  0  0  0  0  0  0  0  0  0  0  0
  -90.3652   29.6008   -1.7003 H   0  0  0  0  0  0  0  0  0  0  0  0
  -88.4403   27.8588    0.1997 C   0  0  0  0  0  0  0  0  0  0  0  0
  -88.1495   29.0948   -0.0034 O   0  0  0  0  0  0  0  0  0  0  0  0
  -88.7562   27.1120   -0.9328 N   0  0  0  0  0  0  0  0  0  0  0  0
  -89.0534   25.6608   -1.0316 C   0  0  0  0  0  0  0  0  0  0  0  0
  -90.4298   25.7671   -1.6422 C   0  0  0  0  0  0  0  0  0  0  0  0
  -90.3764   26.9888   -2.5351 C   0  0  0  0  0  0  0  0  0  0  0  0
  -88.9021   27.4362   -2.3367 C   0  0  0  0  0  0  0  0  0  0  0  0
  -88.3868   27.4365    1.6089 C   0  0  0  0  0  0  0  0  0  0  0  0
  -87.3257   28.1702    2.3250 N   0  0  0  0  0  0  0  0  0  0  0  0
  -85.9617   27.7526    2.2952 C   0  0  0  0  0  0  0  0  0  0  0  0
  -85.7129   26.7064    1.6155 O   0  0  0  0  0  0  0  0  0  0  0  0
  -87.5239   29.0295    2.8700 H   0  0  0  0  0  0  0  0  0  0  0  0
  -84.9535   28.4074    2.9420 O   0  0  0  0  0  0  0  0  0  0  0  0
  -83.6959   28.5346    2.3140 C   0  0  0  0  0  0  0  0  0  0  0  0
  -83.6375   29.7903    1.5448 C   0  0  0  0  0  0  0  0  0  0  0  0
  -84.8001   30.3498    1.0186 C   0  0  0  0  0  0  0  0  0  0  0  0
  -84.8049   31.5147    0.2994 C   0  0  0  0  0  0  0  0  0  0  0  0
  -83.5992   32.1574    0.0904 C   0  0  0  0  0  0  0  0  0  0  0  0
  -82.4414   31.6124    0.6068 C   0  0  0  0  0  0  0  0  0  0  0  0
  -82.4346   30.4298    1.3375 C   0  0  0  0  0  0  0  0  0  0  0  0
  -89.6675   27.4622    2.3534 C   0  0  0  0  0  0  0  0  0  0  0  0
  -90.5288   26.2185    2.0941 C   0  0  0  0  0  0  0  0  0  0  0  0
  -89.9096   26.4775    4.6759 C   0  0  0  0  0  0  0  0  0  0  0  0
  -89.6382   27.6872    3.8192 C   0  0  0  0  0  0  0  0  0  0  0  0
  -90.2551   31.6177   -3.8754 C   0  0  0  0  0  0  0  0  0  0  0  0
  -90.2431   30.9233   -4.9177 O   0  0  0  0  0  0  0  0  0  0  0  0
  -91.0795   32.7616   -3.8929 N   0  0  0  0  0  0  0  0  0  0  0  0
  -91.1214   33.3679   -3.0463 H   0  0  0  0  0  0  0  0  0  0  0  0
  -91.8544   33.0999   -5.0479 C   0  0  0  0  0  0  0  0  0  0  0  0
  -91.4532   34.4069   -5.6059 C   0  0  0  0  0  0  0  0  0  0  0  0
  -90.3345   34.5564   -6.1842 O   0  0  0  0  0  0  0  0  0  0  0  0
  -92.3049   35.5290   -5.5130 N   0  0  0  0  0  0  0  0  0  0  0  0
  -93.2240   35.4183   -5.0391 H   0  0  0  0  0  0  0  0  0  0  0  0
  -91.9439   36.8186   -6.0530 C   0  0  0  0  0  0  0  0  0  0  0  0
  -91.2414   37.6857   -5.0881 C   0  0  0  0  0  0  0  0  0  0  0  0
  -91.8803   38.5352   -4.4226 O   0  0  0  0  0  0  0  0  0  0  0  0
  -89.8422   37.5692   -4.9022 N   0  0  0  0  0  0  0  0  0  0  0  0
  -89.3237   36.8629   -5.4607 H   0  0  0  0  0  0  0  0  0  0  0  0
  -89.1038   38.3973   -3.9662 C   0  0  0  0  0  0  0  0  0  0  0  0
  -88.4246   39.4404   -4.7506 C   0  0  0  0  0  0  0  0  0  0  0  0
  -88.6385   40.7761   -4.4531 O   0  0  0  0  0  0  0  0  0  0  0  0
  -87.6389   39.1968   -5.7030 O   0  0  0  0  0  0  0  0  0  0  0  0
  -89.5226   41.2357   -4.4995 H   0  0  0  0  0  0  0  0  0  0  0  0
  -88.0979   37.5714   -3.1831 C   0  0  0  0  0  0  0  0  0  0  0  0
  -88.1062   36.2368   -3.5604 O   0  0  0  0  0  0  0  0  0  0  0  0
  -88.9683   35.8558   -3.2865 H   0  0  0  0  0  0  0  0  0  0  0  0
  -93.1772   37.5443   -6.5989 C   0  0  0  0  0  0  0  0  0  0  0  0
  -92.9088   37.8973   -8.0533 C   0  0  0  0  0  0  0  0  0  0  0  0
  -94.4125   36.7017   -6.4541 C   0  0  0  0  0  0  0  0  0  0  0  0
  -93.3316   33.1016   -4.7942 C   0  0  0  0  0  0  0  0  0  0  0  0
  -93.6340   32.7791   -3.4704 O   0  0  0  0  0  0  0  0  0  0  0  0
  -93.2790   31.8858   -3.2485 H   0  0  0  0  0  0  0  0  0  0  0  0
  -88.0427   31.7423   -2.7510 C   0  0  0  0  0  0  0  0  0  0  0  0
  -87.7165   33.0169   -2.1040 C   0  0  0  0  0  0  0  0  0  0  0  0
  -86.3398   33.5478   -2.2691 C   0  0  0  0  0  0  0  0  0  0  0  0
  -87.9692   32.8235   -0.5996 C   0  0  0  0  0  0  0  0  0  0  0  0
 28 29  1  0  0  0
 29 26  1  0  0  0
 26 27  1  0  0  0
 26 13  1  0  0  0
 13 14  1  0  0  0
 14 15  1  0  0  0
 15 16  2  0  0  0
 15 18  1  0  0  0
 18 19  1  0  0  0
 19 20  1  0  0  0
 20 21  2  0  0  0
 21 22  1  0  0  0
 22 23  2  0  0  0
 23 24  1  0  0  0
 24 25  2  0  0  0
 13  6  1  0  0  0
  6  7  2  0  0  0
  6  8  1  0  0  0
  8  9  1  0  0  0
  9 10  1  0  0  0
 10 11  1  0  0  0
 11 12  1  0  0  0
 12  2  1  0  0  0
  2  3  2  0  0  0
  2  4  1  0  0  0
  4  1  1  0  0  0
  1 58  1  0  0  0
 58 59  1  0  0  0
 59 60  1  0  0  0
 59 61  1  0  0  0
  1 30  1  0  0  0
 30 31  2  0  0  0
 30 32  1  0  0  0
 32 34  1  0  0  0
 34 55  1  0  0  0
 55 56  1  0  0  0
 34 35  1  0  0  0
 35 36  2  0  0  0
 35 37  1  0  0  0
 37 39  1  0  0  0
 39 52  1  0  0  0
 52 53  1  0  0  0
 52 54  1  0  0  0
 39 40  1  0  0  0
 40 41  2  0  0  0
 40 42  1  0  0  0
 42 44  1  0  0  0
 44 49  1  0  0  0
 49 50  1  0  0  0
 44 45  1  0  0  0
 45 46  1  0  0  0
 45 47  2  0  0  0
 25 20  1  0  0  0
 12  8  1  0  0  0
 14 17  1  0  0  0
  4  5  1  0  0  0
 32 33  1  0  0  0
 56 57  1  0  0  0
 37 38  1  0  0  0
 42 43  1  0  0  0
 50 51  1  0  0  0
 46 48  1  0  0  0
M  END
> <minimizedAffinity>
-7.56276

> <CNNscore>
0.3328633904

> <CNNaffinity>
7.4088950157

> <CNN_VS>
2.4661498070

> <CNNaffinity_variance>
0.2068480551

$$$$
[H]OC(=O)[C@@]([H])(N([H])C(=O)[C@@]([H])(N([H])C(=O)[C@@]([H])(N([H])C(=O)[C@@]([H])(N([H])C(=O)[C@@]1([H])N(C(=O)[C@@]([H])(N([H])C(=O)OC([H])([H])c2c([H])c([H])c([H])c([H])c2[H])[C@@]([H])(C([H])([H])[H])C([H])([H])C([H])([H])[H])C([H])([H])C([H])([H])C1([H])[H])C([H])([H])C([H])(C([H])([H])[H])C([H])([H])[H])C([H])([H])O[H])C([H])(C([H])([H])[H])C([H])([H])[H])C([H])([H])O[H]


 61 62  0  0  0  0  0  0  0  0999 V2000
  -90.5466   30.9933   -2.3243 C   0  0  0  0  0  0  0  0  0  0  0  0
  -89.3988   28.7323   -2.4580 C   0  0  0  0  0  0  0  0  0  0  0  0
  -88.6242   29.2182   -3.3273 O   0  0  0  0  0  0  0  0  0  0  0  0
  -90.3839   29.6162   -1.9340 N   0  0  0  0  0  0  0  0  0  0  0  0
  -91.0213   29.2291   -1.2173 H   0  0  0  0  0  0  0  0  0  0  0  0
  -88.1609   27.8885    0.2648 C   0  0  0  0  0  0  0  0  0  0  0  0
  -88.1031   29.1472    0.0080 O   0  0  0  0  0  0  0  0  0  0  0  0
  -88.6898   27.0839   -0.7417 N   0  0  0  0  0  0  0  0  0  0  0  0
  -88.8127   25.6047   -0.7758 C   0  0  0  0  0  0  0  0  0  0  0  0
  -90.3082   25.5202   -0.9625 C   0  0  0  0  0  0  0  0  0  0  0  0
  -90.6722   26.7197   -1.8117 C   0  0  0  0  0  0  0  0  0  0  0  0
  -89.2739   27.3573   -2.0383 C   0  0  0  0  0  0  0  0  0  0  0  0
  -87.6503   27.5059    1.5914 C   0  0  0  0  0  0  0  0  0  0  0  0
  -86.6651   28.4957    2.0675 N   0  0  0  0  0  0  0  0  0  0  0  0
  -85.3032   28.1511    2.3175 C   0  0  0  0  0  0  0  0  0  0  0  0
  -84.9872   26.9367    2.1079 O   0  0  0  0  0  0  0  0  0  0  0  0
  -86.9172   29.4884    2.2279 H   0  0  0  0  0  0  0  0  0  0  0  0
  -84.3637   29.0397    2.7548 O   0  0  0  0  0  0  0  0  0  0  0  0
  -83.2716   29.3595    1.9198 C   0  0  0  0  0  0  0  0  0  0  0  0
  -83.5709   30.5699    1.1343 C   0  0  0  0  0  0  0  0  0  0  0  0
  -84.8671   31.0794    1.0900 C   0  0  0  0  0  0  0  0  0  0  0  0
  -85.2010   32.2011    0.3796 C   0  0  0  0  0  0  0  0  0  0  0  0
  -84.2027   32.8503   -0.3221 C   0  0  0  0  0  0  0  0  0  0  0  0
  -82.9154   32.3545   -0.2855 C   0  0  0  0  0  0  0  0  0  0  0  0
  -82.5744   31.2159    0.4354 C   0  0  0  0  0  0  0  0  0  0  0  0
  -88.6664   27.2043    2.6266 C   0  0  0  0  0  0  0  0  0  0  0  0
  -90.0346   27.8249    2.3126 C   0  0  0  0  0  0  0  0  0  0  0  0
  -90.2829   25.2575    2.7649 C   0  0  0  0  0  0  0  0  0  0  0  0
  -88.8955   25.7908    3.0134 C   0  0  0  0  0  0  0  0  0  0  0  0
  -91.8389   31.2832   -2.9487 C   0  0  0  0  0  0  0  0  0  0  0  0
  -92.8501   30.5942   -2.6814 O   0  0  0  0  0  0  0  0  0  0  0  0
  -92.0214   32.3339   -3.8713 N   0  0  0  0  0  0  0  0  0  0  0  0
  -91.2072   32.9340   -4.1220 H   0  0  0  0  0  0  0  0  0  0  0  0
  -93.2995   32.5867   -4.4643 C   0  0  0  0  0  0  0  0  0  0  0  0
  -93.4909   31.7962   -5.6968 C   0  0  0  0  0  0  0  0  0  0  0  0
  -93.1225   32.2430   -6.8251 O   0  0  0  0  0  0  0  0  0  0  0  0
  -94.0890   30.5181   -5.6547 N   0  0  0  0  0  0  0  0  0  0  0  0
  -94.3966   30.1426   -4.7351 H   0  0  0  0  0  0  0  0  0  0  0  0
  -94.2853   29.7185   -6.8410 C   0  0  0  0  0  0  0  0  0  0  0  0
  -95.3890   30.1945   -7.6964 C   0  0  0  0  0  0  0  0  0  0  0  0
  -95.6875   29.5731   -8.7440 O   0  0  0  0  0  0  0  0  0  0  0  0
  -96.1222   31.3543   -7.3457 N   0  0  0  0  0  0  0  0  0  0  0  0
  -95.8642   31.8615   -6.4763 H   0  0  0  0  0  0  0  0  0  0  0  0
  -97.2163   31.8640   -8.1520 C   0  0  0  0  0  0  0  0  0  0  0  0
  -96.8163   33.1944   -8.6366 C   0  0  0  0  0  0  0  0  0  0  0  0
  -95.5834   33.7159   -8.2813 O   0  0  0  0  0  0  0  0  0  0  0  0
  -97.5386   33.9146   -9.3738 O   0  0  0  0  0  0  0  0  0  0  0  0
  -95.2931   33.9056   -7.3460 H   0  0  0  0  0  0  0  0  0  0  0  0
  -98.4979   31.9491   -7.3411 C   0  0  0  0  0  0  0  0  0  0  0  0
  -99.5065   31.1558   -7.8674 O   0  0  0  0  0  0  0  0  0  0  0  0
  -99.7651   31.5392   -8.7332 H   0  0  0  0  0  0  0  0  0  0  0  0
  -94.5107   28.2485   -6.4750 C   0  0  0  0  0  0  0  0  0  0  0  0
  -93.1662   27.5403   -6.5267 C   0  0  0  0  0  0  0  0  0  0  0  0
  -95.1526   28.1169   -5.1232 C   0  0  0  0  0  0  0  0  0  0  0  0
  -93.5415   34.0355   -4.7621 C   0  0  0  0  0  0  0  0  0  0  0  0
  -94.6886   34.2248   -5.5344 O   0  0  0  0  0  0  0  0  0  0  0  0
  -94.6071   33.7387   -6.3889 H   0  0  0  0  0  0  0  0  0  0  0  0
  -89.3739   31.5865   -3.0289 C   0  0  0  0  0  0  0  0  0  0  0  0
  -88.6687   32.7199   -2.4223 C   0  0  0  0  0  0  0  0  0  0  0  0
  -87.2238   32.8809   -2.7231 C   0  0  0  0  0  0  0  0  0  0  0  0
  -88.8185   32.5666   -0.8997 C   0  0  0  0  0  0  0  0  0  0  0  0
 28 29  1  0  0  0
 29 26  1  0  0  0
 26 27  1  0  0  0
 26 13  1  0  0  0
 13 14  1  0  0  0
 14 15  1  0  0  0
 15 16  2  0  0  0
 15 18  1  0  0  0
 18 19  1  0  0  0
 19 20  1  0  0  0
 20 21  2  0  0  0
 21 22  1  0  0  0
 22 23  2  0  0  0
 23 24  1  0  0  0
 24 25  2  0  0  0
 13  6  1  0  0  0
  6  7  2  0  0  0
  6  8  1  0  0  0
  8  9  1  0  0  0
  9 10  1  0  0  0
 10 11  1  0  0  0
 11 12  1  0  0  0
 12  2  1  0  0  0
  2  3  2  0  0  0
  2  4  1  0  0  0
  4  1  1  0  0  0
  1 58  1  0  0  0
 58 59  1  0  0  0
 59 60  1  0  0  0
 59 61  1  0  0  0
  1 30  1  0  0  0
 30 31  2  0  0  0
 30 32  1  0  0  0
 32 34  1  0  0  0
 34 55  1  0  0  0
 55 56  1  0  0  0
 34 35  1  0  0  0
 35 36  2  0  0  0
 35 37  1  0  0  0
 37 39  1  0  0  0
 39 52  1  0  0  0
 52 53  1  0  0  0
 52 54  1  0  0  0
 39 40  1  0  0  0
 40 41  2  0  0  0
 40 42  1  0  0  0
 42 44  1  0  0  0
 44 49  1  0  0  0
 49 50  1  0  0  0
 44 45  1  0  0  0
 45 46  1  0  0  0
 45 47  2  0  0  0
 25 20  1  0  0  0
 12  8  1  0  0  0
 14 17  1  0  0  0
  4  5  1  0  0  0
 32 33  1  0  0  0
 56 57  1  0  0  0
 37 38  1  0  0  0
 42 43  1  0  0  0
 50 51  1  0  0  0
 46 48  1  0  0  0
M  END
> <minimizedAffinity>
-7.38542

> <CNNscore>
0.2903193533

> <CNNaffinity>
7.0818505287

> <CNN_VS>
2.0559983253

> <CNNaffinity_variance>
0.2757348418

$$$$
[H]OC(=O)[C@@]([H])(N([H])C(=O)[C@@]([H])(N([H])C(=O)[C@@]([H])(N([H])C(=O)[C@@]([H])(N([H])C(=O)[C@@]1([H])N(C(=O)[C@@]([H])(N([H])C(=O)OC([H])([H])c2c([H])c([H])c([H])c([H])c2[H])[C@@]([H])(C([H])([H])[H])C([H])([H])C([H])([H])[H])C([H])([H])C([H])([H])C1([H])[H])C([H])([H])C([H])(C([H])([H])[H])C([H])([H])[H])C([H])([H])O[H])C([H])(C([H])([H])[H])C([H])([H])[H])C([H])([H])O[H]


 61 62  0  0  0  0  0  0  0  0999 V2000
  -89.6308   31.0011   -2.5041 C   0  0  0  0  0  0  0  0  0  0  0  0
  -88.9679   28.5502   -2.4684 C   0  0  0  0  0  0  0  0  0  0  0  0
  -88.1199   28.8046   -3.3673 O   0  0  0  0  0  0  0  0  0  0  0  0
  -89.7472   29.6514   -2.0142 N   0  0  0  0  0  0  0  0  0  0  0  0
  -90.4424   29.4547   -1.2740 H   0  0  0  0  0  0  0  0  0  0  0  0
  -88.0693   27.7187    0.3881 C   0  0  0  0  0  0  0  0  0  0  0  0
  -87.7682   28.9229    0.0524 O   0  0  0  0  0  0  0  0  0  0  0  0
  -88.6747   26.9433   -0.5981 N   0  0  0  0  0  0  0  0  0  0  0  0
  -89.0624   25.5113   -0.5418 C   0  0  0  0  0  0  0  0  0  0  0  0
  -90.5344   25.6784   -0.8313 C   0  0  0  0  0  0  0  0  0  0  0  0
  -90.6226   26.8524   -1.7833 C   0  0  0  0  0  0  0  0  0  0  0  0
  -89.1207   27.2124   -1.9494 C   0  0  0  0  0  0  0  0  0  0  0  0
  -87.7171   27.3579    1.7711 C   0  0  0  0  0  0  0  0  0  0  0  0
  -86.7331   28.3128    2.3162 N   0  0  0  0  0  0  0  0  0  0  0  0
  -85.3443   27.9998    2.4112 C   0  0  0  0  0  0  0  0  0  0  0  0
  -85.0028   26.8454    1.9999 O   0  0  0  0  0  0  0  0  0  0  0  0
  -87.0070   29.2583    2.6412 H   0  0  0  0  0  0  0  0  0  0  0  0
  -84.4053   28.8581    2.9063 O   0  0  0  0  0  0  0  0  0  0  0  0
  -83.2802   29.1828    2.1184 C   0  0  0  0  0  0  0  0  0  0  0  0
  -83.5416   30.4068    1.3405 C   0  0  0  0  0  0  0  0  0  0  0  0
  -82.5134   31.0254    0.6320 C   0  0  0  0  0  0  0  0  0  0  0  0
  -82.6999   32.1615   -0.1088 C   0  0  0  0  0  0  0  0  0  0  0  0
  -83.9668   32.7128   -0.1501 C   0  0  0  0  0  0  0  0  0  0  0  0
  -84.9926   32.1087    0.5476 C   0  0  0  0  0  0  0  0  0  0  0  0
  -84.8052   30.9551    1.3002 C   0  0  0  0  0  0  0  0  0  0  0  0
  -88.8477   27.1450    2.7047 C   0  0  0  0  0  0  0  0  0  0  0  0
  -90.1247   27.8742    2.2651 C   0  0  0  0  0  0  0  0  0  0  0  0
  -89.4776   25.5006    4.5271 C   0  0  0  0  0  0  0  0  0  0  0  0
  -89.2273   25.7567    3.0633 C   0  0  0  0  0  0  0  0  0  0  0  0
  -90.4327   31.2684   -3.6997 C   0  0  0  0  0  0  0  0  0  0  0  0
  -90.0203   30.9407   -4.8360 O   0  0  0  0  0  0  0  0  0  0  0  0
  -91.6928   31.8993   -3.6472 N   0  0  0  0  0  0  0  0  0  0  0  0
  -92.0759   32.1879   -2.7221 H   0  0  0  0  0  0  0  0  0  0  0  0
  -92.4484   32.1471   -4.8375 C   0  0  0  0  0  0  0  0  0  0  0  0
  -93.0804   33.4814   -4.8102 C   0  0  0  0  0  0  0  0  0  0  0  0
  -94.2672   33.6525   -5.2234 O   0  0  0  0  0  0  0  0  0  0  0  0
  -92.3817   34.6066   -4.3213 N   0  0  0  0  0  0  0  0  0  0  0  0
  -91.4072   34.4783   -3.9816 H   0  0  0  0  0  0  0  0  0  0  0  0
  -92.9735   35.9229   -4.2766 C   0  0  0  0  0  0  0  0  0  0  0  0
  -94.3913   35.9180   -3.8689 C   0  0  0  0  0  0  0  0  0  0  0  0
  -95.2628   36.4280   -4.6126 O   0  0  0  0  0  0  0  0  0  0  0  0
  -94.7837   35.3389   -2.6374 N   0  0  0  0  0  0  0  0  0  0  0  0
  -94.0521   34.9211   -2.0292 H   0  0  0  0  0  0  0  0  0  0  0  0
  -96.1642   35.3078   -2.1900 C   0  0  0  0  0  0  0  0  0  0  0  0
  -96.1453   35.3323   -0.7190 C   0  0  0  0  0  0  0  0  0  0  0  0
  -96.5662   36.4652   -0.0426 O   0  0  0  0  0  0  0  0  0  0  0  0
  -95.7609   34.3662   -0.0101 O   0  0  0  0  0  0  0  0  0  0  0  0
  -96.1435   37.3654   -0.1206 H   0  0  0  0  0  0  0  0  0  0  0  0
  -96.8748   34.0655   -2.6989 C   0  0  0  0  0  0  0  0  0  0  0  0
  -96.0201   32.9787   -2.8080 O   0  0  0  0  0  0  0  0  0  0  0  0
  -95.3776   33.1763   -3.5233 H   0  0  0  0  0  0  0  0  0  0  0  0
  -92.8252   36.6321   -5.6260 C   0  0  0  0  0  0  0  0  0  0  0  0
  -92.5477   38.1024   -5.3557 C   0  0  0  0  0  0  0  0  0  0  0  0
  -91.7369   36.0075   -6.4519 C   0  0  0  0  0  0  0  0  0  0  0  0
  -93.4950   31.1083   -5.1054 C   0  0  0  0  0  0  0  0  0  0  0  0
  -92.9719   29.8153   -5.0542 O   0  0  0  0  0  0  0  0  0  0  0  0
  -92.2515   29.7134   -5.7205 H   0  0  0  0  0  0  0  0  0  0  0  0
  -88.2364   31.5258   -2.5663 C   0  0  0  0  0  0  0  0  0  0  0  0
  -87.9548   32.8782   -2.0748 C   0  0  0  0  0  0  0  0  0  0  0  0
  -88.9241   33.9534   -2.4046 C   0  0  0  0  0  0  0  0  0  0  0  0
  -86.5891   33.2812   -2.6554 C   0  0  0  0  0  0  0  0  0  0  0  0
 28 29  1  0  0  0
 29 26  1  0  0  0
 26 27  1  0  0  0
 26 13  1  0  0  0
 13 14  1  0  0  0
 14 15  1  0  0  0
 15 16  2  0  0  0
 15 18  1  0  0  0
 18 19  1  0  0  0
 19 20  1  0  0  0
 20 21  2  0  0  0
 21 22  1  0  0  0
 22 23  2  0  0  0
 23 24  1  0  0  0
 24 25  2  0  0  0
 13  6  1  0  0  0
  6  7  2  0  0  0
  6  8  1  0  0  0
  8  9  1  0  0  0
  9 10  1  0  0  0
 10 11  1  0  0  0
 11 12  1  0  0  0
 12  2  1  0  0  0
  2  3  2  0  0  0
  2  4  1  0  0  0
  4  1  1  0  0  0
  1 58  1  0  0  0
 58 59  1  0  0  0
 59 60  1  0  0  0
 59 61  1  0  0  0
  1 30  1  0  0  0
 30 31  2  0  0  0
 30 32  1  0  0  0
 32 34  1  0  0  0
 34 55  1  0  0  0
 55 56  1  0  0  0
 34 35  1  0  0  0
 35 36  2  0  0  0
 35 37  1  0  0  0
 37 39  1  0  0  0
 39 52  1  0  0  0
 52 53  1  0  0  0
 52 54  1  0  0  0
 39 40  1  0  0  0
 40 41  2  0  0  0
 40 42  1  0  0  0
 42 44  1  0  0  0
 44 49  1  0  0  0
 49 50  1  0  0  0
 44 45  1  0  0  0
 45 46  1  0  0  0
 45 47  2  0  0  0
 25 20  1  0  0  0
 12  8  1  0  0  0
 14 17  1  0  0  0
  4  5  1  0  0  0
 32 33  1  0  0  0
 56 57  1  0  0  0
 37 38  1  0  0  0
 42 43  1  0  0  0
 50 51  1  0  0  0
 46 48  1  0  0  0
M  END
> <minimizedAffinity>
-7.98379

> <CNNscore>
0.2892976403

> <CNNaffinity>
7.2309699059

> <CNN_VS>
2.0919024944

> <CNNaffinity_variance>
0.2606528103

$$$$
[H]OC(=O)[C@@]([H])(N([H])C(=O)[C@@]([H])(N([H])C(=O)[C@@]([H])(N([H])C(=O)[C@@]([H])(N([H])C(=O)[C@@]1([H])N(C(=O)[C@@]([H])(N([H])C(=O)OC([H])([H])c2c([H])c([H])c([H])c([H])c2[H])[C@@]([H])(C([H])([H])[H])C([H])([H])C([H])([H])[H])C([H])([H])C([H])([H])C1([H])[H])C([H])([H])C([H])(C([H])([H])[H])C([H])([H])[H])C([H])([H])O[H])C([H])(C([H])([H])[H])C([H])([H])[H])C([H])([H])O[H]


 61 62  0  0  0  0  0  0  0  0999 V2000
  -90.4300   21.8031    1.7081 C   0  0  0  0  0  0  0  0  0  0  0  0
  -90.6396   23.9739    3.0086 C   0  0  0  0  0  0  0  0  0  0  0  0
  -91.7176   23.5350    3.4955 O   0  0  0  0  0  0  0  0  0  0  0  0
  -89.9678   23.1107    2.0977 N   0  0  0  0  0  0  0  0  0  0  0  0
  -89.0805   23.4590    1.6960 H   0  0  0  0  0  0  0  0  0  0  0  0
  -90.3743   26.3147    0.9817 C   0  0  0  0  0  0  0  0  0  0  0  0
  -90.7425   25.1931    0.4718 O   0  0  0  0  0  0  0  0  0  0  0  0
  -90.0706   26.2969    2.3410 N   0  0  0  0  0  0  0  0  0  0  0  0
  -89.5479   27.3990    3.1873 C   0  0  0  0  0  0  0  0  0  0  0  0
  -90.6608   27.4301    4.2066 C   0  0  0  0  0  0  0  0  0  0  0  0
  -91.1114   25.9916    4.3488 C   0  0  0  0  0  0  0  0  0  0  0  0
  -90.1396   25.2788    3.3686 C   0  0  0  0  0  0  0  0  0  0  0  0
  -90.3324   27.4391    0.0326 C   0  0  0  0  0  0  0  0  0  0  0  0
  -88.9372   27.7532   -0.3304 N   0  0  0  0  0  0  0  0  0  0  0  0
  -88.4009   29.0702   -0.2138 C   0  0  0  0  0  0  0  0  0  0  0  0
  -89.1983   29.9613    0.2202 O   0  0  0  0  0  0  0  0  0  0  0  0
  -88.2820   27.0266   -0.6733 H   0  0  0  0  0  0  0  0  0  0  0  0
  -87.1154   29.3973   -0.5366 O   0  0  0  0  0  0  0  0  0  0  0  0
  -86.5516   30.5828   -0.0181 C   0  0  0  0  0  0  0  0  0  0  0  0
  -85.2401   30.2971    0.5902 C   0  0  0  0  0  0  0  0  0  0  0  0
  -84.1352   31.0913    0.2898 C   0  0  0  0  0  0  0  0  0  0  0  0
  -82.8951   30.8738    0.8274 C   0  0  0  0  0  0  0  0  0  0  0  0
  -82.7408   29.8175    1.7055 C   0  0  0  0  0  0  0  0  0  0  0  0
  -83.8280   29.0243    2.0102 C   0  0  0  0  0  0  0  0  0  0  0  0
  -85.0880   29.2437    1.4654 C   0  0  0  0  0  0  0  0  0  0  0  0
  -91.1962   27.3224   -1.1655 C   0  0  0  0  0  0  0  0  0  0  0  0
  -92.1951   28.4809   -1.2911 C   0  0  0  0  0  0  0  0  0  0  0  0
  -90.0731   25.7441   -2.7994 C   0  0  0  0  0  0  0  0  0  0  0  0
  -90.5583   27.1373   -2.4917 C   0  0  0  0  0  0  0  0  0  0  0  0
  -91.4607   21.8247    0.6683 C   0  0  0  0  0  0  0  0  0  0  0  0
  -91.2968   21.2112   -0.4112 O   0  0  0  0  0  0  0  0  0  0  0  0
  -92.6766   22.5240    0.8143 N   0  0  0  0  0  0  0  0  0  0  0  0
  -92.8560   23.0475    1.6973 H   0  0  0  0  0  0  0  0  0  0  0  0
  -93.6609   22.5253   -0.2249 C   0  0  0  0  0  0  0  0  0  0  0  0
  -93.5405   23.7203   -1.0839 C   0  0  0  0  0  0  0  0  0  0  0  0
  -92.4515   23.9968   -1.6723 O   0  0  0  0  0  0  0  0  0  0  0  0
  -94.6358   24.5901   -1.2767 N   0  0  0  0  0  0  0  0  0  0  0  0
  -95.5331   24.3740   -0.7976 H   0  0  0  0  0  0  0  0  0  0  0  0
  -94.5515   25.7632   -2.1143 C   0  0  0  0  0  0  0  0  0  0  0  0
  -95.7450   26.6272   -2.0401 C   0  0  0  0  0  0  0  0  0  0  0  0
  -96.8017   26.1989   -1.5179 O   0  0  0  0  0  0  0  0  0  0  0  0
  -95.7115   27.9459   -2.5555 N   0  0  0  0  0  0  0  0  0  0  0  0
  -94.8308   28.2886   -2.9874 H   0  0  0  0  0  0  0  0  0  0  0  0
  -96.8571   28.8360   -2.5073 C   0  0  0  0  0  0  0  0  0  0  0  0
  -97.0419   29.3808   -3.8615 C   0  0  0  0  0  0  0  0  0  0  0  0
  -96.2322   28.9442   -4.8969 O   0  0  0  0  0  0  0  0  0  0  0  0
  -97.9106   30.2430   -4.1542 O   0  0  0  0  0  0  0  0  0  0  0  0
  -95.2406   29.0485   -4.9276 H   0  0  0  0  0  0  0  0  0  0  0  0
  -96.6376   29.9537   -1.5024 C   0  0  0  0  0  0  0  0  0  0  0  0
  -95.2946   30.1448   -1.2139 O   0  0  0  0  0  0  0  0  0  0  0  0
  -94.9773   29.3491   -0.7346 H   0  0  0  0  0  0  0  0  0  0  0  0
  -94.2842   25.3732   -3.5712 C   0  0  0  0  0  0  0  0  0  0  0  0
  -95.6122   24.9927   -4.2065 C   0  0  0  0  0  0  0  0  0  0  0  0
  -93.6142   26.4906   -4.3191 C   0  0  0  0  0  0  0  0  0  0  0  0
  -95.0661   22.4217    0.2860 C   0  0  0  0  0  0  0  0  0  0  0  0
  -95.3339   23.3717    1.2729 O   0  0  0  0  0  0  0  0  0  0  0  0
  -94.7150   23.2565    2.0324 H   0  0  0  0  0  0  0  0  0  0  0  0
  -90.7162   20.8775    2.8416 C   0  0  0  0  0  0  0  0  0  0  0  0
  -89.7848   19.7818    3.1276 C   0  0  0  0  0  0  0  0  0  0  0  0
  -90.3551   18.4758    3.5443 C   0  0  0  0  0  0  0  0  0  0  0  0
  -88.8610   20.2732    4.2543 C   0  0  0  0  0  0  0  0  0  0  0  0
 28 29  1  0  0  0
 29 26  1  0  0  0
 26 27  1  0  0  0
 26 13  1  0  0  0
 13 14  1  0  0  0
 14 15  1  0  0  0
 15 16  2  0  0  0
 15 18  1  0  0  0
 18 19  1  0  0  0
 19 20  1  0  0  0
 20 21  2  0  0  0
 21 22  1  0  0  0
 22 23  2  0  0  0
 23 24  1  0  0  0
 24 25  2  0  0  0
 13  6  1  0  0  0
  6  7  2  0  0  0
  6  8  1  0  0  0
  8  9  1  0  0  0
  9 10  1  0  0  0
 10 11  1  0  0  0
 11 12  1  0  0  0
 12  2  1  0  0  0
  2  3  2  0  0  0
  2  4  1  0  0  0
  4  1  1  0  0  0
  1 58  1  0  0  0
 58 59  1  0  0  0
 59 60  1  0  0  0
 59 61  1  0  0  0
  1 30  1  0  0  0
 30 31  2  0  0  0
 30 32  1  0  0  0
 32 34  1  0  0  0
 34 55  1  0  0  0
 55 56  1  0  0  0
 34 35  1  0  0  0
 35 36  2  0  0  0
 35 37  1  0  0  0
 37 39  1  0  0  0
 39 52  1  0  0  0
 52 53  1  0  0  0
 52 54  1  0  0  0
 39 40  1  0  0  0
 40 41  2  0  0  0
 40 42  1  0  0  0
 42 44  1  0  0  0
 44 49  1  0  0  0
 49 50  1  0  0  0
 44 45  1  0  0  0
 45 46  1  0  0  0
 45 47  2  0  0  0
 25 20  1  0  0  0
 12  8  1  0  0  0
 14 17  1  0  0  0
  4  5  1  0  0  0
 32 33  1  0  0  0
 56 57  1  0  0  0
 37 38  1  0  0  0
 42 43  1  0  0  0
 50 51  1  0  0  0
 46 48  1  0  0  0
M  END
> <minimizedAffinity>
-7.72008

> <CNNscore>
0.1719852090

> <CNNaffinity>
6.5858139992

> <CNN_VS>
1.1326626539

> <CNNaffinity_variance>
0.3708886504

$$$$
[H]N=C(N([H])[H])N([H])C([H])([H])C([H])([H])C([H])([H])[C@@]1([H])C(=O)N2C([H])([H])C([H])([H])C([H])([H])[C@@]2([H])C(=O)N([H])C([H])([H])C(=O)N([H])[C@@]([H])(C([H])([H])c2c([H])nc([H])n2[H])C(=O)N([H])[C@]([H])(C([H])([H])c2c([H])c([H])c(O[H])c([H])c2[H])C(=O)N1[H]


 54 57  0  0  0  0  0  0  0  0999 V2000
  -86.3647   30.2222    0.4326 C   0  0  0  0  0  0  0  0  0  0  0  0
  -87.2556   31.1782   -0.1197 N   0  0  0  0  0  0  0  0  0  0  0  0
  -87.0963   32.4448   -0.6370 C   0  0  0  0  0  0  0  0  0  0  0  0
  -87.9428   33.3125   -0.1564 O   0  0  0  0  0  0  0  0  0  0  0  0
  -86.1995   33.0502   -1.6008 C   0  0  0  0  0  0  0  0  0  0  0  0
  -86.7947   33.8435   -2.6481 N   0  0  0  0  0  0  0  0  0  0  0  0
  -88.0551   34.0528   -3.1549 C   0  0  0  0  0  0  0  0  0  0  0  0
  -88.5835   35.2043   -2.8067 O   0  0  0  0  0  0  0  0  0  0  0  0
  -88.9768   33.2920   -4.0116 C   0  0  0  0  0  0  0  0  0  0  0  0
  -88.3896   32.3791   -4.9587 N   0  0  0  0  0  0  0  0  0  0  0  0
  -88.8279   31.1004   -5.3441 C   0  0  0  0  0  0  0  0  0  0  0  0
  -89.0719   30.8874   -6.5892 O   0  0  0  0  0  0  0  0  0  0  0  0
  -89.0503   29.9226   -4.4560 C   0  0  0  0  0  0  0  0  0  0  0  0
  -88.0877   29.8650   -3.4148 N   0  0  0  0  0  0  0  0  0  0  0  0
  -87.6306   28.8674   -2.5624 C   0  0  0  0  0  0  0  0  0  0  0  0
  -86.3788   28.5416   -2.6129 O   0  0  0  0  0  0  0  0  0  0  0  0
  -88.3626   28.0833   -1.5654 C   0  0  0  0  0  0  0  0  0  0  0  0
  -89.7825   28.4407   -1.3372 C   0  0  0  0  0  0  0  0  0  0  0  0
  -90.0684   27.7820   -0.0000 C   0  0  0  0  0  0  0  0  0  0  0  0
  -88.7413   27.1646    0.3987 C   0  0  0  0  0  0  0  0  0  0  0  0
  -87.7908   28.1084   -0.2315 N   0  0  0  0  0  0  0  0  0  0  0  0
  -86.6701   28.8004    0.2481 C   0  0  0  0  0  0  0  0  0  0  0  0
  -85.6807   28.0310    0.6131 O   0  0  0  0  0  0  0  0  0  0  0  0
  -88.2728   30.8290   -0.1200 H   0  0  0  0  0  0  0  0  0  0  0  0
  -86.0206   34.4423   -3.1334 H   0  0  0  0  0  0  0  0  0  0  0  0
  -87.5099   32.7496   -5.4392 H   0  0  0  0  0  0  0  0  0  0  0  0
  -87.6130   30.8194   -3.2681 H   0  0  0  0  0  0  0  0  0  0  0  0
  -86.3349   30.5921    1.9299 C   0  0  0  0  0  0  0  0  0  0  0  0
  -85.0222   31.0611    2.4252 C   0  0  0  0  0  0  0  0  0  0  0  0
  -84.7109   30.1731    3.6510 C   0  0  0  0  0  0  0  0  0  0  0  0
  -84.7666   28.7834    3.3373 N   0  0  0  0  0  0  0  0  0  0  0  0
  -85.6619   28.2678    3.4704 H   0  0  0  0  0  0  0  0  0  0  0  0
  -82.5168   28.7018    2.2621 N   0  0  0  0  0  0  0  0  0  0  0  0
  -83.6534   28.0673    2.8500 C   0  0  0  0  0  0  0  0  0  0  0  0
  -83.6004   26.7734    2.9097 N   0  0  0  0  0  0  0  0  0  0  0  0
  -81.5865   28.4820    2.6741 H   0  0  0  0  0  0  0  0  0  0  0  0
  -82.5644   29.3521    1.4692 H   0  0  0  0  0  0  0  0  0  0  0  0
  -84.4089   26.2325    3.3338 H   0  0  0  0  0  0  0  0  0  0  0  0
  -85.0740   32.2224   -2.1199 C   0  0  0  0  0  0  0  0  0  0  0  0
  -83.9588   32.0641   -1.1541 C   0  0  0  0  0  0  0  0  0  0  0  0
  -83.3367   30.8628   -0.9225 C   0  0  0  0  0  0  0  0  0  0  0  0
  -82.2839   30.8034   -0.0163 C   0  0  0  0  0  0  0  0  0  0  0  0
  -81.8456   31.9218    0.6589 C   0  0  0  0  0  0  0  0  0  0  0  0
  -80.8012   31.8909    1.5651 O   0  0  0  0  0  0  0  0  0  0  0  0
  -82.4698   33.1291    0.4268 C   0  0  0  0  0  0  0  0  0  0  0  0
  -83.5098   33.1680   -0.4737 C   0  0  0  0  0  0  0  0  0  0  0  0
  -80.4819   32.7122    2.0596 H   0  0  0  0  0  0  0  0  0  0  0  0
  -90.2296   32.7909   -3.3861 C   0  0  0  0  0  0  0  0  0  0  0  0
  -90.1458   32.3589   -1.9910 C   0  0  0  0  0  0  0  0  0  0  0  0
  -89.8602   33.1229   -0.9009 C   0  0  0  0  0  0  0  0  0  0  0  0
  -89.8882   32.3329    0.2130 N   0  0  0  0  0  0  0  0  0  0  0  0
  -90.1931   31.0666   -0.1844 C   0  0  0  0  0  0  0  0  0  0  0  0
  -90.3445   31.1021   -1.5160 N   0  0  0  0  0  0  0  0  0  0  0  0
  -90.5774   30.3040   -2.1056 H   0  0  0  0  0  0  0  0  0  0  0  0
 33 34  1  0  0  0
 34 35  2  0  0  0
 34 31  1  0  0  0
 31 30  1  0  0  0
 30 29  1  0  0  0
 29 28  1  0  0  0
 28  1  1  0  0  0
  1  2  1  0  0  0
  2  3  1  0  0  0
  3  4  2  0  0  0
  3  5  1  0  0  0
  5 39  1  0  0  0
 39 40  1  0  0  0
 40 41  2  0  0  0
 41 42  1  0  0  0
 42 43  2  0  0  0
 43 44  1  0  0  0
 43 45  1  0  0  0
 45 46  2  0  0  0
  5  6  1  0  0  0
  6  7  1  0  0  0
  7  8  2  0  0  0
  7  9  1  0  0  0
  9 48  1  0  0  0
 48 49  1  0  0  0
 49 50  2  0  0  0
 50 51  1  0  0  0
 51 52  2  0  0  0
 52 53  1  0  0  0
  9 10  1  0  0  0
 10 11  1  0  0  0
 11 12  2  0  0  0
 11 13  1  0  0  0
 13 14  1  0  0  0
 14 15  1  0  0  0
 15 16  2  0  0  0
 15 17  1  0  0  0
 17 18  1  0  0  0
 18 19  1  0  0  0
 19 20  1  0  0  0
 20 21  1  0  0  0
 21 22  1  0  0  0
 22 23  2  0  0  0
 22  1  1  0  0  0
 46 40  1  0  0  0
 53 49  1  0  0  0
 21 17  1  0  0  0
 33 36  1  0  0  0
 33 37  1  0  0  0
 35 38  1  0  0  0
 31 32  1  0  0  0
  2 24  1  0  0  0
 44 47  1  0  0  0
  6 25  1  0  0  0
 53 54  1  0  0  0
 10 26  1  0  0  0
 14 27  1  0  0  0
M  END
> <minimizedAffinity>
1.63332

> <CNNscore>
0.4069082141

> <CNNaffinity>
6.7674627304

> <CNN_VS>
2.7537362576

> <CNNaffinity_variance>
0.1961972713

$$$$
[H]N=C(N([H])[H])N([H])C([H])([H])C([H])([H])C([H])([H])[C@@]1([H])C(=O)N2C([H])([H])C([H])([H])C([H])([H])[C@@]2([H])C(=O)N([H])C([H])([H])C(=O)N([H])[C@@]([H])(C([H])([H])c2c([H])nc([H])n2[H])C(=O)N([H])[C@]([H])(C([H])([H])c2c([H])c([H])c(O[H])c([H])c2[H])C(=O)N1[H]


 54 57  0  0  0  0  0  0  0  0999 V2000
  -87.7153   30.7587   -1.2478 C   0  0  0  0  0  0  0  0  0  0  0  0
  -88.5528   31.8832   -1.4645 N   0  0  0  0  0  0  0  0  0  0  0  0
  -88.3410   33.2442   -1.4720 C   0  0  0  0  0  0  0  0  0  0  0  0
  -89.2074   33.9086   -0.7591 O   0  0  0  0  0  0  0  0  0  0  0  0
  -87.3713   34.1246   -2.0919 C   0  0  0  0  0  0  0  0  0  0  0  0
  -87.8815   35.2667   -2.8101 N   0  0  0  0  0  0  0  0  0  0  0  0
  -89.1005   35.6935   -3.2798 C   0  0  0  0  0  0  0  0  0  0  0  0
  -89.6366   36.6584   -2.5669 O   0  0  0  0  0  0  0  0  0  0  0  0
  -89.9703   35.3324   -4.4092 C   0  0  0  0  0  0  0  0  0  0  0  0
  -89.3307   34.8055   -5.5875 N   0  0  0  0  0  0  0  0  0  0  0  0
  -89.7579   33.7724   -6.4395 C   0  0  0  0  0  0  0  0  0  0  0  0
  -89.9173   34.0368   -7.6885 O   0  0  0  0  0  0  0  0  0  0  0  0
  -90.0573   32.3615   -6.0590 C   0  0  0  0  0  0  0  0  0  0  0  0
  -89.1705   31.8923   -5.0552 N   0  0  0  0  0  0  0  0  0  0  0  0
  -88.7872   30.6363   -4.6010 C   0  0  0  0  0  0  0  0  0  0  0  0
  -87.5394   30.3042   -4.6919 O   0  0  0  0  0  0  0  0  0  0  0  0
  -89.5973   29.5714   -4.0059 C   0  0  0  0  0  0  0  0  0  0  0  0
  -91.0247   29.8745   -3.7484 C   0  0  0  0  0  0  0  0  0  0  0  0
  -91.4119   28.7855   -2.7647 C   0  0  0  0  0  0  0  0  0  0  0  0
  -90.1241   28.0156   -2.5406 C   0  0  0  0  0  0  0  0  0  0  0  0
  -89.1195   29.0873   -2.7235 N   0  0  0  0  0  0  0  0  0  0  0  0
  -88.0260   29.5143   -1.9576 C   0  0  0  0  0  0  0  0  0  0  0  0
  -87.0747   28.6281   -1.8407 O   0  0  0  0  0  0  0  0  0  0  0  0
  -89.5720   31.5967   -1.6536 H   0  0  0  0  0  0  0  0  0  0  0  0
  -87.0675   35.9713   -2.9952 H   0  0  0  0  0  0  0  0  0  0  0  0
  -88.4147   35.2920   -5.8454 H   0  0  0  0  0  0  0  0  0  0  0  0
  -88.6945   32.7091   -4.5413 H   0  0  0  0  0  0  0  0  0  0  0  0
  -87.7851   30.5566    0.2800 C   0  0  0  0  0  0  0  0  0  0  0  0
  -86.5292   30.8571    1.0016 C   0  0  0  0  0  0  0  0  0  0  0  0
  -85.8298   29.4912    1.1836 C   0  0  0  0  0  0  0  0  0  0  0  0
  -86.7632   28.4220    1.3190 N   0  0  0  0  0  0  0  0  0  0  0  0
  -87.7533   28.5724    1.0325 H   0  0  0  0  0  0  0  0  0  0  0  0
  -87.3541   26.1211    2.0814 N   0  0  0  0  0  0  0  0  0  0  0  0
  -86.4036   27.1567    1.8284 C   0  0  0  0  0  0  0  0  0  0  0  0
  -85.1711   26.8602    2.0994 N   0  0  0  0  0  0  0  0  0  0  0  0
  -87.1844   25.2013    1.6247 H   0  0  0  0  0  0  0  0  0  0  0  0
  -88.1821   26.2307    2.6783 H   0  0  0  0  0  0  0  0  0  0  0  0
  -84.4085   27.5800    1.9369 H   0  0  0  0  0  0  0  0  0  0  0  0
  -86.2234   33.5007   -2.8092 C   0  0  0  0  0  0  0  0  0  0  0  0
  -85.0810   33.1658   -1.9235 C   0  0  0  0  0  0  0  0  0  0  0  0
  -84.5201   34.0685   -1.0551 C   0  0  0  0  0  0  0  0  0  0  0  0
  -83.4648   33.6685   -0.2430 C   0  0  0  0  0  0  0  0  0  0  0  0
  -82.9640   32.3856   -0.2858 C   0  0  0  0  0  0  0  0  0  0  0  0
  -81.9157   31.9614    0.5105 O   0  0  0  0  0  0  0  0  0  0  0  0
  -83.5268   31.4780   -1.1579 C   0  0  0  0  0  0  0  0  0  0  0  0
  -84.5705   31.8924   -1.9535 C   0  0  0  0  0  0  0  0  0  0  0  0
  -81.5496   31.0203    0.4770 H   0  0  0  0  0  0  0  0  0  0  0  0
  -91.2702   34.6857   -4.0868 C   0  0  0  0  0  0  0  0  0  0  0  0
  -92.4745   35.3142   -4.6297 C   0  0  0  0  0  0  0  0  0  0  0  0
  -92.6146   36.5924   -5.0769 C   0  0  0  0  0  0  0  0  0  0  0  0
  -93.8986   36.7730   -5.5061 N   0  0  0  0  0  0  0  0  0  0  0  0
  -94.5652   35.5994   -5.3252 C   0  0  0  0  0  0  0  0  0  0  0  0
  -93.6904   34.7322   -4.7959 N   0  0  0  0  0  0  0  0  0  0  0  0
  -93.8943   33.7651   -4.5472 H   0  0  0  0  0  0  0  0  0  0  0  0
 33 34  1  0  0  0
 34 35  2  0  0  0
 34 31  1  0  0  0
 31 30  1  0  0  0
 30 29  1  0  0  0
 29 28  1  0  0  0
 28  1  1  0  0  0
  1  2  1  0  0  0
  2  3  1  0  0  0
  3  4  2  0  0  0
  3  5  1  0  0  0
  5 39  1  0  0  0
 39 40  1  0  0  0
 40 41  2  0  0  0
 41 42  1  0  0  0
 42 43  2  0  0  0
 43 44  1  0  0  0
 43 45  1  0  0  0
 45 46  2  0  0  0
  5  6  1  0  0  0
  6  7  1  0  0  0
  7  8  2  0  0  0
  7  9  1  0  0  0
  9 48  1  0  0  0
 48 49  1  0  0  0
 49 50  2  0  0  0
 50 51  1  0  0  0
 51 52  2  0  0  0
 52 53  1  0  0  0
  9 10  1  0  0  0
 10 11  1  0  0  0
 11 12  2  0  0  0
 11 13  1  0  0  0
 13 14  1  0  0  0
 14 15  1  0  0  0
 15 16  2  0  0  0
 15 17  1  0  0  0
 17 18  1  0  0  0
 18 19  1  0  0  0
 19 20  1  0  0  0
 20 21  1  0  0  0
 21 22  1  0  0  0
 22 23  2  0  0  0
 22  1  1  0  0  0
 46 40  1  0  0  0
 53 49  1  0  0  0
 21 17  1  0  0  0
 33 36  1  0  0  0
 33 37  1  0  0  0
 35 38  1  0  0  0
 31 32  1  0  0  0
  2 24  1  0  0  0
 44 47  1  0  0  0
  6 25  1  0  0  0
 53 54  1  0  0  0
 10 26  1  0  0  0
 14 27  1  0  0  0
M  END
> <minimizedAffinity>
-0.47314

> <CNNscore>
0.4050877094

> <CNNaffinity>
6.7450256348

> <CNN_VS>
2.7323269844

> <CNNaffinity_variance>
0.9159916043

$$$$
[H]N=C(N([H])[H])N([H])C([H])([H])C([H])([H])C([H])([H])[C@@]1([H])C(=O)N2C([H])([H])C([H])([H])C([H])([H])[C@@]2([H])C(=O)N([H])C([H])([H])C(=O)N([H])[C@@]([H])(C([H])([H])c2c([H])nc([H])n2[H])C(=O)N([H])[C@]([H])(C([H])([H])c2c([H])c([H])c(O[H])c([H])c2[H])C(=O)N1[H]


 54 57  0  0  0  0  0  0  0  0999 V2000
  -87.1305   30.0594    0.4808 C   0  0  0  0  0  0  0  0  0  0  0  0
  -88.2142   30.8528    0.0236 N   0  0  0  0  0  0  0  0  0  0  0  0
  -88.3031   32.0605   -0.6327 C   0  0  0  0  0  0  0  0  0  0  0  0
  -89.1445   32.8904   -0.0816 O   0  0  0  0  0  0  0  0  0  0  0  0
  -87.6753   32.6357   -1.8052 C   0  0  0  0  0  0  0  0  0  0  0  0
  -88.5412   33.2401   -2.7876 N   0  0  0  0  0  0  0  0  0  0  0  0
  -89.8886   33.2643   -3.0578 C   0  0  0  0  0  0  0  0  0  0  0  0
  -90.4773   34.3908   -2.7248 O   0  0  0  0  0  0  0  0  0  0  0  0
  -90.8544   32.3226   -3.6434 C   0  0  0  0  0  0  0  0  0  0  0  0
  -90.3458   31.3685   -4.5954 N   0  0  0  0  0  0  0  0  0  0  0  0
  -90.6923   30.0169   -4.7653 C   0  0  0  0  0  0  0  0  0  0  0  0
  -91.1323   29.6384   -5.9135 O   0  0  0  0  0  0  0  0  0  0  0  0
  -90.6079   28.9336   -3.7432 C   0  0  0  0  0  0  0  0  0  0  0  0
  -89.4717   29.0918   -2.9077 N   0  0  0  0  0  0  0  0  0  0  0  0
  -88.7518   28.2493   -2.0694 C   0  0  0  0  0  0  0  0  0  0  0  0
  -87.5006   28.0446   -2.3305 O   0  0  0  0  0  0  0  0  0  0  0  0
  -89.1916   27.5177   -0.8796 C   0  0  0  0  0  0  0  0  0  0  0  0
  -90.5782   27.7575   -0.4152 C   0  0  0  0  0  0  0  0  0  0  0  0
  -90.5354   27.2330    1.0084 C   0  0  0  0  0  0  0  0  0  0  0  0
  -89.0941   26.7995    1.1988 C   0  0  0  0  0  0  0  0  0  0  0  0
  -88.3931   27.7529    0.3096 N   0  0  0  0  0  0  0  0  0  0  0  0
  -87.2939   28.6026    0.4949 C   0  0  0  0  0  0  0  0  0  0  0  0
  -86.1704   27.9818    0.7324 O   0  0  0  0  0  0  0  0  0  0  0  0
  -89.1657   30.4075    0.2537 H   0  0  0  0  0  0  0  0  0  0  0  0
  -87.9451   33.8520   -3.4684 H   0  0  0  0  0  0  0  0  0  0  0  0
  -89.6186   31.7658   -5.2703 H   0  0  0  0  0  0  0  0  0  0  0  0
  -89.0946   30.0988   -2.9472 H   0  0  0  0  0  0  0  0  0  0  0  0
  -86.8723   30.6011    1.9019 C   0  0  0  0  0  0  0  0  0  0  0  0
  -85.4847   31.0499    2.1500 C   0  0  0  0  0  0  0  0  0  0  0  0
  -84.9768   30.1708    3.3151 C   0  0  0  0  0  0  0  0  0  0  0  0
  -84.6428   28.8519    2.8886 N   0  0  0  0  0  0  0  0  0  0  0  0
  -85.4022   28.1492    2.7678 H   0  0  0  0  0  0  0  0  0  0  0  0
  -82.8080   27.1634    2.9705 N   0  0  0  0  0  0  0  0  0  0  0  0
  -83.3174   28.4509    2.6201 C   0  0  0  0  0  0  0  0  0  0  0  0
  -82.4758   29.2418    2.0315 N   0  0  0  0  0  0  0  0  0  0  0  0
  -82.3856   26.5976    2.2058 H   0  0  0  0  0  0  0  0  0  0  0  0
  -82.8347   26.7704    3.9185 H   0  0  0  0  0  0  0  0  0  0  0  0
  -82.7827   30.2152    1.7412 H   0  0  0  0  0  0  0  0  0  0  0  0
  -86.5733   31.8682   -2.4517 C   0  0  0  0  0  0  0  0  0  0  0  0
  -85.3055   31.8861   -1.6810 C   0  0  0  0  0  0  0  0  0  0  0  0
  -84.6439   30.7438   -1.3056 C   0  0  0  0  0  0  0  0  0  0  0  0
  -83.4487   30.8475   -0.6027 C   0  0  0  0  0  0  0  0  0  0  0  0
  -82.9075   32.0705   -0.2709 C   0  0  0  0  0  0  0  0  0  0  0  0
  -81.7209   32.2023    0.4273 O   0  0  0  0  0  0  0  0  0  0  0  0
  -83.5715   33.2187   -0.6475 C   0  0  0  0  0  0  0  0  0  0  0  0
  -84.7528   33.0958   -1.3427 C   0  0  0  0  0  0  0  0  0  0  0  0
  -81.3262   33.1002    0.6702 H   0  0  0  0  0  0  0  0  0  0  0  0
  -91.9037   31.7764   -2.7421 C   0  0  0  0  0  0  0  0  0  0  0  0
  -93.2334   31.5774   -3.3188 C   0  0  0  0  0  0  0  0  0  0  0  0
  -93.8614   32.3532   -4.2448 C   0  0  0  0  0  0  0  0  0  0  0  0
  -95.0864   31.8138   -4.5166 N   0  0  0  0  0  0  0  0  0  0  0  0
  -95.2245   30.6935   -3.7548 C   0  0  0  0  0  0  0  0  0  0  0  0
  -94.0976   30.5676   -3.0396 N   0  0  0  0  0  0  0  0  0  0  0  0
  -93.9008   29.8216   -2.3736 H   0  0  0  0  0  0  0  0  0  0  0  0
 33 34  1  0  0  0
 34 35  2  0  0  0
 34 31  1  0  0  0
 31 30  1  0  0  0
 30 29  1  0  0  0
 29 28  1  0  0  0
 28  1  1  0  0  0
  1  2  1  0  0  0
  2  3  1  0  0  0
  3  4  2  0  0  0
  3  5  1  0  0  0
  5 39  1  0  0  0
 39 40  1  0  0  0
 40 41  2  0  0  0
 41 42  1  0  0  0
 42 43  2  0  0  0
 43 44  1  0  0  0
 43 45  1  0  0  0
 45 46  2  0  0  0
  5  6  1  0  0  0
  6  7  1  0  0  0
  7  8  2  0  0  0
  7  9  1  0  0  0
  9 48  1  0  0  0
 48 49  1  0  0  0
 49 50  2  0  0  0
 50 51  1  0  0  0
 51 52  2  0  0  0
 52 53  1  0  0  0
  9 10  1  0  0  0
 10 11  1  0  0  0
 11 12  2  0  0  0
 11 13  1  0  0  0
 13 14  1  0  0  0
 14 15  1  0  0  0
 15 16  2  0  0  0
 15 17  1  0  0  0
 17 18  1  0  0  0
 18 19  1  0  0  0
 19 20  1  0  0  0
 20 21  1  0  0  0
 21 22  1  0  0  0
 22 23  2  0  0  0
 22  1  1  0  0  0
 46 40  1  0  0  0
 53 49  1  0  0  0
 21 17  1  0  0  0
 33 36  1  0  0  0
 33 37  1  0  0  0
 35 38  1  0  0  0
 31 32  1  0  0  0
  2 24  1  0  0  0
 44 47  1  0  0  0
  6 25  1  0  0  0
 53 54  1  0  0  0
 10 26  1  0  0  0
 14 27  1  0  0  0
M  END
> <minimizedAffinity>
-0.32893

> <CNNscore>
0.4042049646

> <CNNaffinity>
6.8225622177

> <CNN_VS>
2.7577135563

> <CNNaffinity_variance>
0.7529333830

$$$$
[H]N=C(N([H])[H])N([H])C([H])([H])C([H])([H])C([H])([H])[C@@]1([H])C(=O)N2C([H])([H])C([H])([H])C([H])([H])[C@@]2([H])C(=O)N([H])C([H])([H])C(=O)N([H])[C@@]([H])(C([H])([H])c2c([H])nc([H])n2[H])C(=O)N([H])[C@]([H])(C([H])([H])c2c([H])c([H])c(O[H])c([H])c2[H])C(=O)N1[H]


 54 57  0  0  0  0  0  0  0  0999 V2000
  -86.8055   28.5954    0.6853 C   0  0  0  0  0  0  0  0  0  0  0  0
  -87.6259   29.6819    0.2862 N   0  0  0  0  0  0  0  0  0  0  0  0
  -87.4041   31.0290    0.1034 C   0  0  0  0  0  0  0  0  0  0  0  0
  -88.2926   31.7853    0.6855 O   0  0  0  0  0  0  0  0  0  0  0  0
  -86.4048   31.8157   -0.5910 C   0  0  0  0  0  0  0  0  0  0  0  0
  -86.8785   32.8513   -1.4762 N   0  0  0  0  0  0  0  0  0  0  0  0
  -88.0754   33.2132   -2.0468 C   0  0  0  0  0  0  0  0  0  0  0  0
  -88.6316   34.2665   -1.4922 O   0  0  0  0  0  0  0  0  0  0  0  0
  -88.9034   32.7044   -3.1504 C   0  0  0  0  0  0  0  0  0  0  0  0
  -88.2224   32.0219   -4.2208 N   0  0  0  0  0  0  0  0  0  0  0  0
  -88.6238   30.8841   -4.9418 C   0  0  0  0  0  0  0  0  0  0  0  0
  -88.7329   30.9776   -6.2203 O   0  0  0  0  0  0  0  0  0  0  0  0
  -88.9479   29.5380   -4.3865 C   0  0  0  0  0  0  0  0  0  0  0  0
  -88.1041   29.2071   -3.2945 N   0  0  0  0  0  0  0  0  0  0  0  0
  -87.7476   28.0232   -2.6603 C   0  0  0  0  0  0  0  0  0  0  0  0
  -86.4997   27.6794   -2.6564 O   0  0  0  0  0  0  0  0  0  0  0  0
  -88.5878   27.0500   -1.9592 C   0  0  0  0  0  0  0  0  0  0  0  0
  -90.0220   27.3878   -1.8013 C   0  0  0  0  0  0  0  0  0  0  0  0
  -90.4548   26.4425   -0.6957 C   0  0  0  0  0  0  0  0  0  0  0  0
  -89.1822   25.7075   -0.3193 C   0  0  0  0  0  0  0  0  0  0  0  0
  -88.1636   26.7427   -0.6055 N   0  0  0  0  0  0  0  0  0  0  0  0
  -87.0974   27.2671    0.1382 C   0  0  0  0  0  0  0  0  0  0  0  0
  -86.1579   26.4030    0.4110 O   0  0  0  0  0  0  0  0  0  0  0  0
  -88.6390   29.3745    0.0974 H   0  0  0  0  0  0  0  0  0  0  0  0
  -86.0530   33.5229   -1.7225 H   0  0  0  0  0  0  0  0  0  0  0  0
  -87.2937   32.4674   -4.5057 H   0  0  0  0  0  0  0  0  0  0  0  0
  -87.6424   30.0849   -2.8772 H   0  0  0  0  0  0  0  0  0  0  0  0
  -86.9358   28.6017    2.2224 C   0  0  0  0  0  0  0  0  0  0  0  0
  -87.2146   27.2797    2.8249 C   0  0  0  0  0  0  0  0  0  0  0  0
  -88.7244   27.2947    3.1538 C   0  0  0  0  0  0  0  0  0  0  0  0
  -89.2707   25.9804    3.2367 N   0  0  0  0  0  0  0  0  0  0  0  0
  -88.7775   25.1943    2.7636 H   0  0  0  0  0  0  0  0  0  0  0  0
  -91.1413   24.4414    3.8337 N   0  0  0  0  0  0  0  0  0  0  0  0
  -90.4607   25.6928    3.9372 C   0  0  0  0  0  0  0  0  0  0  0  0
  -91.0106   26.5627    4.7255 N   0  0  0  0  0  0  0  0  0  0  0  0
  -91.3294   23.9304    4.7208 H   0  0  0  0  0  0  0  0  0  0  0  0
  -91.4504   24.0238    2.9483 H   0  0  0  0  0  0  0  0  0  0  0  0
  -90.5615   27.5156    4.8528 H   0  0  0  0  0  0  0  0  0  0  0  0
  -85.2346   31.0984   -1.1719 C   0  0  0  0  0  0  0  0  0  0  0  0
  -83.9793   31.2910   -0.4044 C   0  0  0  0  0  0  0  0  0  0  0  0
  -83.4237   30.3086    0.3766 C   0  0  0  0  0  0  0  0  0  0  0  0
  -82.2326   30.5626    1.0473 C   0  0  0  0  0  0  0  0  0  0  0  0
  -81.5915   31.7784    0.9495 C   0  0  0  0  0  0  0  0  0  0  0  0
  -80.4063   32.0575    1.6056 O   0  0  0  0  0  0  0  0  0  0  0  0
  -82.1488   32.7658    0.1651 C   0  0  0  0  0  0  0  0  0  0  0  0
  -83.3279   32.4957   -0.4911 C   0  0  0  0  0  0  0  0  0  0  0  0
  -79.9382   32.9500    1.5329 H   0  0  0  0  0  0  0  0  0  0  0  0
  -90.2194   32.1097   -2.7951 C   0  0  0  0  0  0  0  0  0  0  0  0
  -90.3263   31.4769   -1.4805 C   0  0  0  0  0  0  0  0  0  0  0  0
  -90.5773   30.1669   -1.2075 C   0  0  0  0  0  0  0  0  0  0  0  0
  -90.5889   29.9913    0.1469 N   0  0  0  0  0  0  0  0  0  0  0  0
  -90.3438   31.2003    0.7239 C   0  0  0  0  0  0  0  0  0  0  0  0
  -90.1883   32.0832   -0.2730 N   0  0  0  0  0  0  0  0  0  0  0  0
  -89.9925   33.0766   -0.1570 H   0  0  0  0  0  0  0  0  0  0  0  0
 33 34  1  0  0  0
 34 35  2  0  0  0
 34 31  1  0  0  0
 31 30  1  0  0  0
 30 29  1  0  0  0
 29 28  1  0  0  0
 28  1  1  0  0  0
  1  2  1  0  0  0
  2  3  1  0  0  0
  3  4  2  0  0  0
  3  5  1  0  0  0
  5 39  1  0  0  0
 39 40  1  0  0  0
 40 41  2  0  0  0
 41 42  1  0  0  0
 42 43  2  0  0  0
 43 44  1  0  0  0
 43 45  1  0  0  0
 45 46  2  0  0  0
  5  6  1  0  0  0
  6  7  1  0  0  0
  7  8  2  0  0  0
  7  9  1  0  0  0
  9 48  1  0  0  0
 48 49  1  0  0  0
 49 50  2  0  0  0
 50 51  1  0  0  0
 51 52  2  0  0  0
 52 53  1  0  0  0
  9 10  1  0  0  0
 10 11  1  0  0  0
 11 12  2  0  0  0
 11 13  1  0  0  0
 13 14  1  0  0  0
 14 15  1  0  0  0
 15 16  2  0  0  0
 15 17  1  0  0  0
 17 18  1  0  0  0
 18 19  1  0  0  0
 19 20  1  0  0  0
 20 21  1  0  0  0
 21 22  1  0  0  0
 22 23  2  0  0  0
 22  1  1  0  0  0
 46 40  1  0  0  0
 53 49  1  0  0  0
 21 17  1  0  0  0
 33 36  1  0  0  0
 33 37  1  0  0  0
 35 38  1  0  0  0
 31 32  1  0  0  0
  2 24  1  0  0  0
 44 47  1  0  0  0
  6 25  1  0  0  0
 53 54  1  0  0  0
 10 26  1  0  0  0
 14 27  1  0  0  0
M  END
> <minimizedAffinity>
2.10456

> <CNNscore>
0.4019403756

> <CNNaffinity>
6.8613829613

> <CNN_VS>
2.7578668594

> <CNNaffinity_variance>
0.5245058537

$$$$
[H]N=C(N([H])[H])N([H])C([H])([H])C([H])([H])C([H])([H])[C@@]1([H])C(=O)N2C([H])([H])C([H])([H])C([H])([H])[C@@]2([H])C(=O)N([H])C([H])([H])C(=O)N([H])[C@@]([H])(C([H])([H])c2c([H])nc([H])n2[H])C(=O)N([H])[C@]([H])(C([H])([H])c2c([H])c([H])c(O[H])c([H])c2[H])C(=O)N1[H]


 54 57  0  0  0  0  0  0  0  0999 V2000
  -89.0456   30.7985   -1.7117 C   0  0  0  0  0  0  0  0  0  0  0  0
  -89.2961   32.1937   -1.7713 N   0  0  0  0  0  0  0  0  0  0  0  0
  -88.5684   33.3102   -1.4234 C   0  0  0  0  0  0  0  0  0  0  0  0
  -89.2408   34.1652   -0.7042 O   0  0  0  0  0  0  0  0  0  0  0  0
  -87.2152   33.7663   -1.6696 C   0  0  0  0  0  0  0  0  0  0  0  0
  -87.0519   35.1129   -2.1599 N   0  0  0  0  0  0  0  0  0  0  0  0
  -87.8588   36.0944   -2.6839 C   0  0  0  0  0  0  0  0  0  0  0  0
  -88.1188   37.0724   -1.8457 O   0  0  0  0  0  0  0  0  0  0  0  0
  -88.5141   36.3278   -3.9794 C   0  0  0  0  0  0  0  0  0  0  0  0
  -87.8815   35.7658   -5.1453 N   0  0  0  0  0  0  0  0  0  0  0  0
  -88.4729   35.1677   -6.2714 C   0  0  0  0  0  0  0  0  0  0  0  0
  -88.2219   35.6659   -7.4307 O   0  0  0  0  0  0  0  0  0  0  0  0
  -89.3844   33.9869   -6.2856 C   0  0  0  0  0  0  0  0  0  0  0  0
  -89.0129   33.0291   -5.3064 N   0  0  0  0  0  0  0  0  0  0  0  0
  -89.2731   31.6776   -5.1151 C   0  0  0  0  0  0  0  0  0  0  0  0
  -88.2738   30.8549   -5.1030 O   0  0  0  0  0  0  0  0  0  0  0  0
  -90.5515   30.9924   -4.9138 C   0  0  0  0  0  0  0  0  0  0  0  0
  -91.7605   31.8415   -4.7986 C   0  0  0  0  0  0  0  0  0  0  0  0
  -92.7620   30.8905   -4.1692 C   0  0  0  0  0  0  0  0  0  0  0  0
  -91.9728   29.6131   -3.9532 C   0  0  0  0  0  0  0  0  0  0  0  0
  -90.6139   30.1558   -3.7292 N   0  0  0  0  0  0  0  0  0  0  0  0
  -89.6497   29.9401   -2.7350 C   0  0  0  0  0  0  0  0  0  0  0  0
  -89.1810   28.7224   -2.6979 O   0  0  0  0  0  0  0  0  0  0  0  0
  -90.2719   32.4120   -2.1674 H   0  0  0  0  0  0  0  0  0  0  0  0
  -86.0070   35.4131   -2.0529 H   0  0  0  0  0  0  0  0  0  0  0  0
  -86.8154   35.8396   -5.1456 H   0  0  0  0  0  0  0  0  0  0  0  0
  -88.3856   33.4669   -4.5497 H   0  0  0  0  0  0  0  0  0  0  0  0
  -89.5402   30.4118   -0.3025 C   0  0  0  0  0  0  0  0  0  0  0  0
  -89.4602   28.9673    0.0062 C   0  0  0  0  0  0  0  0  0  0  0  0
  -87.9993   28.7282    0.4499 C   0  0  0  0  0  0  0  0  0  0  0  0
  -87.3144   27.8257   -0.4157 N   0  0  0  0  0  0  0  0  0  0  0  0
  -86.5068   28.1721   -0.9749 H   0  0  0  0  0  0  0  0  0  0  0  0
  -87.6004   25.5312    0.5212 N   0  0  0  0  0  0  0  0  0  0  0  0
  -87.6843   26.4713   -0.5509 C   0  0  0  0  0  0  0  0  0  0  0  0
  -88.1273   25.9982   -1.6735 N   0  0  0  0  0  0  0  0  0  0  0  0
  -88.4691   25.0116    0.7638 H   0  0  0  0  0  0  0  0  0  0  0  0
  -86.7458   25.3420    1.0575 H   0  0  0  0  0  0  0  0  0  0  0  0
  -88.2173   26.6378   -2.5154 H   0  0  0  0  0  0  0  0  0  0  0  0
  -86.2755   32.8257   -2.3431 C   0  0  0  0  0  0  0  0  0  0  0  0
  -85.2554   32.2512   -1.4314 C   0  0  0  0  0  0  0  0  0  0  0  0
  -84.0116   32.8051   -1.2590 C   0  0  0  0  0  0  0  0  0  0  0  0
  -83.1204   32.2169   -0.3685 C   0  0  0  0  0  0  0  0  0  0  0  0
  -83.4525   31.0884    0.3490 C   0  0  0  0  0  0  0  0  0  0  0  0
  -82.5857   30.4833    1.2409 O   0  0  0  0  0  0  0  0  0  0  0  0
  -84.7018   30.5312    0.1766 C   0  0  0  0  0  0  0  0  0  0  0  0
  -85.5700   31.1276   -0.7091 C   0  0  0  0  0  0  0  0  0  0  0  0
  -82.8310   29.6553    1.7655 H   0  0  0  0  0  0  0  0  0  0  0  0
  -89.9999   36.2688   -4.0104 C   0  0  0  0  0  0  0  0  0  0  0  0
  -90.7096   37.5395   -4.1577 C   0  0  0  0  0  0  0  0  0  0  0  0
  -92.0057   37.8084   -3.8392 C   0  0  0  0  0  0  0  0  0  0  0  0
  -92.2698   39.1172   -4.1270 N   0  0  0  0  0  0  0  0  0  0  0  0
  -91.1308   39.6694   -4.6292 C   0  0  0  0  0  0  0  0  0  0  0  0
  -90.2016   38.7031   -4.6401 N   0  0  0  0  0  0  0  0  0  0  0  0
  -89.2408   38.8110   -4.9626 H   0  0  0  0  0  0  0  0  0  0  0  0
 33 34  1  0  0  0
 34 35  2  0  0  0
 34 31  1  0  0  0
 31 30  1  0  0  0
 30 29  1  0  0  0
 29 28  1  0  0  0
 28  1  1  0  0  0
  1  2  1  0  0  0
  2  3  1  0  0  0
  3  4  2  0  0  0
  3  5  1  0  0  0
  5 39  1  0  0  0
 39 40  1  0  0  0
 40 41  2  0  0  0
 41 42  1  0  0  0
 42 43  2  0  0  0
 43 44  1  0  0  0
 43 45  1  0  0  0
 45 46  2  0  0  0
  5  6  1  0  0  0
  6  7  1  0  0  0
  7  8  2  0  0  0
  7  9  1  0  0  0
  9 48  1  0  0  0
 48 49  1  0  0  0
 49 50  2  0  0  0
 50 51  1  0  0  0
 51 52  2  0  0  0
 52 53  1  0  0  0
  9 10  1  0  0  0
 10 11  1  0  0  0
 11 12  2  0  0  0
 11 13  1  0  0  0
 13 14  1  0  0  0
 14 15  1  0  0  0
 15 16  2  0  0  0
 15 17  1  0  0  0
 17 18  1  0  0  0
 18 19  1  0  0  0
 19 20  1  0  0  0
 20 21  1  0  0  0
 21 22  1  0  0  0
 22 23  2  0  0  0
 22  1  1  0  0  0
 46 40  1  0  0  0
 53 49  1  0  0  0
 21 17  1  0  0  0
 33 36  1  0  0  0
 33 37  1  0  0  0
 35 38  1  0  0  0
 31 32  1  0  0  0
  2 24  1  0  0  0
 44 47  1  0  0  0
  6 25  1  0  0  0
 53 54  1  0  0  0
 10 26  1  0  0  0
 14 27  1  0  0  0
M  END
> <minimizedAffinity>
-2.84066

> <CNNscore>
0.3951041996

> <CNNaffinity>
6.9747076035

> <CNN_VS>
2.7557363510

> <CNNaffinity_variance>
0.3458244205

$$$$
[H]N=C(N([H])[H])N([H])C([H])([H])C([H])([H])C([H])([H])[C@@]1([H])C(=O)N2C([H])([H])C([H])([H])C([H])([H])[C@@]2([H])C(=O)N([H])C([H])([H])C(=O)N([H])[C@@]([H])(C([H])([H])c2c([H])nc([H])n2[H])C(=O)N([H])[C@]([H])(C([H])([H])c2c([H])c([H])c(O[H])c([H])c2[H])C(=O)N1[H]


 54 57  0  0  0  0  0  0  0  0999 V2000
  -89.1097   30.7242   -1.7083 C   0  0  0  0  0  0  0  0  0  0  0  0
  -89.4204   30.0219   -0.5154 N   0  0  0  0  0  0  0  0  0  0  0  0
  -90.5861   29.5234    0.0231 C   0  0  0  0  0  0  0  0  0  0  0  0
  -90.7609   29.8482    1.2739 O   0  0  0  0  0  0  0  0  0  0  0  0
  -91.6788   28.7136   -0.4767 C   0  0  0  0  0  0  0  0  0  0  0  0
  -92.0709   27.5736    0.3152 N   0  0  0  0  0  0  0  0  0  0  0  0
  -91.5581   26.8639    1.3745 C   0  0  0  0  0  0  0  0  0  0  0  0
  -92.1585   27.1071    2.5177 O   0  0  0  0  0  0  0  0  0  0  0  0
  -90.4829   25.8758    1.5482 C   0  0  0  0  0  0  0  0  0  0  0  0
  -90.1623   25.0488    0.4130 N   0  0  0  0  0  0  0  0  0  0  0  0
  -88.9044   24.6111   -0.0361 C   0  0  0  0  0  0  0  0  0  0  0  0
  -88.6989   23.3453   -0.1398 O   0  0  0  0  0  0  0  0  0  0  0  0
  -87.7422   25.4638   -0.4203 C   0  0  0  0  0  0  0  0  0  0  0  0
  -88.1601   26.6500   -1.0779 N   0  0  0  0  0  0  0  0  0  0  0  0
  -87.5394   27.5773   -1.9058 C   0  0  0  0  0  0  0  0  0  0  0  0
  -88.0010   27.7374   -3.1044 O   0  0  0  0  0  0  0  0  0  0  0  0
  -86.3937   28.4490   -1.6373 C   0  0  0  0  0  0  0  0  0  0  0  0
  -85.8452   28.4362   -0.2608 C   0  0  0  0  0  0  0  0  0  0  0  0
  -85.0290   29.7155   -0.2284 C   0  0  0  0  0  0  0  0  0  0  0  0
  -85.2583   30.3343   -1.5944 C   0  0  0  0  0  0  0  0  0  0  0  0
  -86.6279   29.8585   -1.8931 N   0  0  0  0  0  0  0  0  0  0  0  0
  -87.7946   30.5082   -2.3189 C   0  0  0  0  0  0  0  0  0  0  0  0
  -87.7086   31.0399   -3.5079 O   0  0  0  0  0  0  0  0  0  0  0  0
  -88.5501   29.8581    0.0948 H   0  0  0  0  0  0  0  0  0  0  0  0
  -93.0460   27.2157   -0.0231 H   0  0  0  0  0  0  0  0  0  0  0  0
  -91.0125   24.7156   -0.1422 H   0  0  0  0  0  0  0  0  0  0  0  0
  -89.1964   26.8619   -0.8806 H   0  0  0  0  0  0  0  0  0  0  0  0
  -89.2972   32.2017   -1.3062 C   0  0  0  0  0  0  0  0  0  0  0  0
  -88.1641   32.7874   -0.5571 C   0  0  0  0  0  0  0  0  0  0  0  0
  -87.3777   33.6181   -1.5962 C   0  0  0  0  0  0  0  0  0  0  0  0
  -86.2452   34.2663   -1.0218 N   0  0  0  0  0  0  0  0  0  0  0  0
  -86.2750   35.2953   -0.8628 H   0  0  0  0  0  0  0  0  0  0  0  0
  -84.8632   33.0375    0.6529 N   0  0  0  0  0  0  0  0  0  0  0  0
  -85.0740   33.5709   -0.6552 C   0  0  0  0  0  0  0  0  0  0  0  0
  -84.1095   33.3751   -1.4989 N   0  0  0  0  0  0  0  0  0  0  0  0
  -84.6393   32.0232    0.7198 H   0  0  0  0  0  0  0  0  0  0  0  0
  -84.9194   33.5887    1.5171 H   0  0  0  0  0  0  0  0  0  0  0  0
  -84.1949   33.7428   -2.4906 H   0  0  0  0  0  0  0  0  0  0  0  0
  -91.7006   28.3965   -1.9328 C   0  0  0  0  0  0  0  0  0  0  0  0
  -92.5731   29.2989   -2.7241 C   0  0  0  0  0  0  0  0  0  0  0  0
  -92.1014   30.4111   -3.3755 C   0  0  0  0  0  0  0  0  0  0  0  0
  -92.9819   31.1934   -4.1143 C   0  0  0  0  0  0  0  0  0  0  0  0
  -94.3207   30.8822   -4.2113 C   0  0  0  0  0  0  0  0  0  0  0  0
  -95.2179   31.6426   -4.9391 O   0  0  0  0  0  0  0  0  0  0  0  0
  -94.7955   29.7651   -3.5573 C   0  0  0  0  0  0  0  0  0  0  0  0
  -93.9088   29.0032   -2.8311 C   0  0  0  0  0  0  0  0  0  0  0  0
  -96.1995   31.4128   -5.0082 H   0  0  0  0  0  0  0  0  0  0  0  0
  -89.2990   26.2921    2.3462 C   0  0  0  0  0  0  0  0  0  0  0  0
  -89.4072   26.1761    3.8005 C   0  0  0  0  0  0  0  0  0  0  0  0
  -89.1416   25.0838    4.5684 C   0  0  0  0  0  0  0  0  0  0  0  0
  -89.3643   25.3990    5.8786 N   0  0  0  0  0  0  0  0  0  0  0  0
  -89.7722   26.6973    5.9292 C   0  0  0  0  0  0  0  0  0  0  0  0
  -89.7920   27.1487    4.6670 N   0  0  0  0  0  0  0  0  0  0  0  0
  -90.0567   28.0903    4.3804 H   0  0  0  0  0  0  0  0  0  0  0  0
 33 34  1  0  0  0
 34 35  2  0  0  0
 34 31  1  0  0  0
 31 30  1  0  0  0
 30 29  1  0  0  0
 29 28  1  0  0  0
 28  1  1  0  0  0
  1  2  1  0  0  0
  2  3  1  0  0  0
  3  4  2  0  0  0
  3  5  1  0  0  0
  5 39  1  0  0  0
 39 40  1  0  0  0
 40 41  2  0  0  0
 41 42  1  0  0  0
 42 43  2  0  0  0
 43 44  1  0  0  0
 43 45  1  0  0  0
 45 46  2  0  0  0
  5  6  1  0  0  0
  6  7  1  0  0  0
  7  8  2  0  0  0
  7  9  1  0  0  0
  9 48  1  0  0  0
 48 49  1  0  0  0
 49 50  2  0  0  0
 50 51  1  0  0  0
 51 52  2  0  0  0
 52 53  1  0  0  0
  9 10  1  0  0  0
 10 11  1  0  0  0
 11 12  2  0  0  0
 11 13  1  0  0  0
 13 14  1  0  0  0
 14 15  1  0  0  0
 15 16  2  0  0  0
 15 17  1  0  0  0
 17 18  1  0  0  0
 18 19  1  0  0  0
 19 20  1  0  0  0
 20 21  1  0  0  0
 21 22  1  0  0  0
 22 23  2  0  0  0
 22  1  1  0  0  0
 46 40  1  0  0  0
 53 49  1  0  0  0
 21 17  1  0  0  0
 33 36  1  0  0  0
 33 37  1  0  0  0
 35 38  1  0  0  0
 31 32  1  0  0  0
  2 24  1  0  0  0
 44 47  1  0  0  0
  6 25  1  0  0  0
 53 54  1  0  0  0
 10 26  1  0  0  0
 14 27  1  0  0  0
M  END
> <minimizedAffinity>
-1.39747

> <CNNscore>
0.3815383315

> <CNNaffinity>
6.6057443619

> <CNN_VS>
2.5203447342

> <CNNaffinity_variance>
0.5284988880

$$$$
[H]N=C(N([H])[H])N([H])C([H])([H])C([H])([H])C([H])([H])[C@@]1([H])C(=O)N2C([H])([H])C([H])([H])C([H])([H])[C@@]2([H])C(=O)N([H])C([H])([H])C(=O)N([H])[C@@]([H])(C([H])([H])c2c([H])nc([H])n2[H])C(=O)N([H])[C@]([H])(C([H])([H])c2c([H])c([H])c(O[H])c([H])c2[H])C(=O)N1[H]


 54 57  0  0  0  0  0  0  0  0999 V2000
  -87.9071   29.0410   -2.8984 C   0  0  0  0  0  0  0  0  0  0  0  0
  -89.2961   28.7533   -2.9253 N   0  0  0  0  0  0  0  0  0  0  0  0
  -90.0442   27.7016   -3.4064 C   0  0  0  0  0  0  0  0  0  0  0  0
  -91.0567   28.0762   -4.1378 O   0  0  0  0  0  0  0  0  0  0  0  0
  -89.9723   26.2589   -3.2918 C   0  0  0  0  0  0  0  0  0  0  0  0
  -91.1803   25.5660   -2.9162 N   0  0  0  0  0  0  0  0  0  0  0  0
  -92.4135   25.9017   -2.4109 C   0  0  0  0  0  0  0  0  0  0  0  0
  -93.3810   25.8608   -3.2991 O   0  0  0  0  0  0  0  0  0  0  0  0
  -92.9299   26.3005   -1.0930 C   0  0  0  0  0  0  0  0  0  0  0  0
  -92.2228   25.8130    0.0636 N   0  0  0  0  0  0  0  0  0  0  0  0
  -91.9374   26.4746    1.2704 C   0  0  0  0  0  0  0  0  0  0  0  0
  -92.3551   25.9503    2.3685 O   0  0  0  0  0  0  0  0  0  0  0  0
  -91.1840   27.7512    1.4375 C   0  0  0  0  0  0  0  0  0  0  0  0
  -90.1159   27.8522    0.5085 N   0  0  0  0  0  0  0  0  0  0  0  0
  -88.9523   28.6085    0.4376 C   0  0  0  0  0  0  0  0  0  0  0  0
  -87.8164   27.9882    0.4157 O   0  0  0  0  0  0  0  0  0  0  0  0
  -88.7859   30.0622    0.3794 C   0  0  0  0  0  0  0  0  0  0  0  0
  -90.0191   30.8786    0.2876 C   0  0  0  0  0  0  0  0  0  0  0  0
  -89.4848   32.2142   -0.1963 C   0  0  0  0  0  0  0  0  0  0  0  0
  -87.9971   31.9749   -0.3720 C   0  0  0  0  0  0  0  0  0  0  0  0
  -87.9832   30.5391   -0.7321 N   0  0  0  0  0  0  0  0  0  0  0  0
  -87.3808   29.8199   -1.7735 C   0  0  0  0  0  0  0  0  0  0  0  0
  -86.0758   29.8382   -1.7529 O   0  0  0  0  0  0  0  0  0  0  0  0
  -89.8795   29.5384   -2.4781 H   0  0  0  0  0  0  0  0  0  0  0  0
  -91.0639   24.4990   -3.1194 H   0  0  0  0  0  0  0  0  0  0  0  0
  -91.8932   24.7996   -0.0175 H   0  0  0  0  0  0  0  0  0  0  0  0
  -90.2550   27.1817   -0.3214 H   0  0  0  0  0  0  0  0  0  0  0  0
  -87.6730   29.7730   -4.2359 C   0  0  0  0  0  0  0  0  0  0  0  0
  -87.7138   31.2492   -4.1485 C   0  0  0  0  0  0  0  0  0  0  0  0
  -88.8242   31.6827   -5.1319 C   0  0  0  0  0  0  0  0  0  0  0  0
  -89.3648   32.9606   -4.8044 N   0  0  0  0  0  0  0  0  0  0  0  0
  -90.3706   33.1515   -4.9971 H   0  0  0  0  0  0  0  0  0  0  0  0
  -88.8715   34.5412   -2.9382 N   0  0  0  0  0  0  0  0  0  0  0  0
  -88.5922   33.9890   -4.2255 C   0  0  0  0  0  0  0  0  0  0  0  0
  -87.5704   34.4973   -4.8401 N   0  0  0  0  0  0  0  0  0  0  0  0
  -88.0979   34.5328   -2.2418 H   0  0  0  0  0  0  0  0  0  0  0  0
  -89.7774   34.9394   -2.6650 H   0  0  0  0  0  0  0  0  0  0  0  0
  -87.3016   34.1371   -5.8014 H   0  0  0  0  0  0  0  0  0  0  0  0
  -88.7786   25.6729   -2.6186 C   0  0  0  0  0  0  0  0  0  0  0  0
  -89.1167   24.6838   -1.5656 C   0  0  0  0  0  0  0  0  0  0  0  0
  -89.6173   23.4369   -1.8456 C   0  0  0  0  0  0  0  0  0  0  0  0
  -89.8882   22.5603   -0.8010 C   0  0  0  0  0  0  0  0  0  0  0  0
  -89.6672   22.9097    0.5134 C   0  0  0  0  0  0  0  0  0  0  0  0
  -89.9277   22.0576    1.5713 O   0  0  0  0  0  0  0  0  0  0  0  0
  -89.1643   24.1621    0.7958 C   0  0  0  0  0  0  0  0  0  0  0  0
  -88.9024   25.0157   -0.2514 C   0  0  0  0  0  0  0  0  0  0  0  0
  -89.7655   22.3162    2.5345 H   0  0  0  0  0  0  0  0  0  0  0  0
  -93.4311   27.6936   -0.9521 C   0  0  0  0  0  0  0  0  0  0  0  0
  -93.9326   28.3422   -2.1637 C   0  0  0  0  0  0  0  0  0  0  0  0
  -95.1628   28.2051   -2.7305 C   0  0  0  0  0  0  0  0  0  0  0  0
  -95.2251   28.9880   -3.8480 N   0  0  0  0  0  0  0  0  0  0  0  0
  -94.0251   29.6182   -3.9801 C   0  0  0  0  0  0  0  0  0  0  0  0
  -93.2592   29.2162   -2.9558 N   0  0  0  0  0  0  0  0  0  0  0  0
  -92.3011   29.5165   -2.7811 H   0  0  0  0  0  0  0  0  0  0  0  0
 33 34  1  0  0  0
 34 35  2  0  0  0
 34 31  1  0  0  0
 31 30  1  0  0  0
 30 29  1  0  0  0
 29 28  1  0  0  0
 28  1  1  0  0  0
  1  2  1  0  0  0
  2  3  1  0  0  0
  3  4  2  0  0  0
  3  5  1  0  0  0
  5 39  1  0  0  0
 39 40  1  0  0  0
 40 41  2  0  0  0
 41 42  1  0  0  0
 42 43  2  0  0  0
 43 44  1  0  0  0
 43 45  1  0  0  0
 45 46  2  0  0  0
  5  6  1  0  0  0
  6  7  1  0  0  0
  7  8  2  0  0  0
  7  9  1  0  0  0
  9 48  1  0  0  0
 48 49  1  0  0  0
 49 50  2  0  0  0
 50 51  1  0  0  0
 51 52  2  0  0  0
 52 53  1  0  0  0
  9 10  1  0  0  0
 10 11  1  0  0  0
 11 12  2  0  0  0
 11 13  1  0  0  0
 13 14  1  0  0  0
 14 15  1  0  0  0
 15 16  2  0  0  0
 15 17  1  0  0  0
 17 18  1  0  0  0
 18 19  1  0  0  0
 19 20  1  0  0  0
 20 21  1  0  0  0
 21 22  1  0  0  0
 22 23  2  0  0  0
 22  1  1  0  0  0
 46 40  1  0  0  0
 53 49  1  0  0  0
 21 17  1  0  0  0
 33 36  1  0  0  0
 33 37  1  0  0  0
 35 38  1  0  0  0
 31 32  1  0  0  0
  2 24  1  0  0  0
 44 47  1  0  0  0
  6 25  1  0  0  0
 53 54  1  0  0  0
 10 26  1  0  0  0
 14 27  1  0  0  0
M  END
> <minimizedAffinity>
0.84267

> <CNNscore>
0.3810608685

> <CNNaffinity>
6.0708045959

> <CNN_VS>
2.3133461475

> <CNNaffinity_variance>
0.7283640504

$$$$
[H]N=C(N([H])[H])N([H])C([H])([H])C([H])([H])C([H])([H])[C@@]1([H])C(=O)N2C([H])([H])C([H])([H])C([H])([H])[C@@]2([H])C(=O)N([H])C([H])([H])C(=O)N([H])[C@@]([H])(C([H])([H])c2c([H])nc([H])n2[H])C(=O)N([H])[C@]([H])(C([H])([H])c2c([H])c([H])c(O[H])c([H])c2[H])C(=O)N1[H]


 54 57  0  0  0  0  0  0  0  0999 V2000
  -89.0787   27.9113   -1.9959 C   0  0  0  0  0  0  0  0  0  0  0  0
  -90.0163   27.0903   -2.6740 N   0  0  0  0  0  0  0  0  0  0  0  0
  -90.0464   25.7560   -3.0146 C   0  0  0  0  0  0  0  0  0  0  0  0
  -90.3665   25.5453   -4.2610 O   0  0  0  0  0  0  0  0  0  0  0  0
  -89.8033   24.5146   -2.3079 C   0  0  0  0  0  0  0  0  0  0  0  0
  -90.8010   23.4801   -2.4294 N   0  0  0  0  0  0  0  0  0  0  0  0
  -92.0932   23.3815   -2.8870 C   0  0  0  0  0  0  0  0  0  0  0  0
  -92.1999   22.7867   -4.0538 O   0  0  0  0  0  0  0  0  0  0  0  0
  -93.4147   23.7822   -2.3814 C   0  0  0  0  0  0  0  0  0  0  0  0
  -93.5771   23.8501   -0.9516 N   0  0  0  0  0  0  0  0  0  0  0  0
  -94.2914   24.7873   -0.1855 C   0  0  0  0  0  0  0  0  0  0  0  0
  -95.2249   24.3591    0.5894 O   0  0  0  0  0  0  0  0  0  0  0  0
  -94.0910   26.2654   -0.1604 C   0  0  0  0  0  0  0  0  0  0  0  0
  -92.7189   26.6080   -0.2785 N   0  0  0  0  0  0  0  0  0  0  0  0
  -91.9669   27.7395    0.0133 C   0  0  0  0  0  0  0  0  0  0  0  0
  -91.0129   27.6363    0.8821 O   0  0  0  0  0  0  0  0  0  0  0  0
  -92.0763   29.0973   -0.5240 C   0  0  0  0  0  0  0  0  0  0  0  0
  -93.0620   29.3154   -1.6088 C   0  0  0  0  0  0  0  0  0  0  0  0
  -92.6005   30.6342   -2.2016 C   0  0  0  0  0  0  0  0  0  0  0  0
  -91.3597   30.9842   -1.4021 C   0  0  0  0  0  0  0  0  0  0  0  0
  -90.8456   29.6353   -1.0745 N   0  0  0  0  0  0  0  0  0  0  0  0
  -89.5856   29.0347   -1.2022 C   0  0  0  0  0  0  0  0  0  0  0  0
  -88.6550   29.5796   -0.4666 O   0  0  0  0  0  0  0  0  0  0  0  0
  -90.8812   27.6442   -2.9930 H   0  0  0  0  0  0  0  0  0  0  0  0
  -90.3847   22.5325   -2.0801 H   0  0  0  0  0  0  0  0  0  0  0  0
  -93.0966   23.0595   -0.4166 H   0  0  0  0  0  0  0  0  0  0  0  0
  -92.1463   25.7934   -0.6864 H   0  0  0  0  0  0  0  0  0  0  0  0
  -88.1583   28.4062   -3.1307 C   0  0  0  0  0  0  0  0  0  0  0  0
  -87.8844   29.8598   -3.1154 C   0  0  0  0  0  0  0  0  0  0  0  0
  -88.8445   30.4640   -4.1647 C   0  0  0  0  0  0  0  0  0  0  0  0
  -89.0555   31.8593   -3.9614 N   0  0  0  0  0  0  0  0  0  0  0  0
  -89.9568   32.2862   -4.2621 H   0  0  0  0  0  0  0  0  0  0  0  0
  -88.3764   33.5468   -2.2539 N   0  0  0  0  0  0  0  0  0  0  0  0
  -88.0896   32.6969   -3.3654 C   0  0  0  0  0  0  0  0  0  0  0  0
  -86.8696   32.7419   -3.8011 N   0  0  0  0  0  0  0  0  0  0  0  0
  -87.7773   33.4397   -1.4095 H   0  0  0  0  0  0  0  0  0  0  0  0
  -89.1279   34.2460   -2.2406 H   0  0  0  0  0  0  0  0  0  0  0  0
  -86.5821   32.1377   -4.6247 H   0  0  0  0  0  0  0  0  0  0  0  0
  -89.2740   24.5977   -0.9171 C   0  0  0  0  0  0  0  0  0  0  0  0
  -89.8454   23.5786   -0.0025 C   0  0  0  0  0  0  0  0  0  0  0  0
  -90.7174   23.8899    1.0106 C   0  0  0  0  0  0  0  0  0  0  0  0
  -91.2248   22.8722    1.8106 C   0  0  0  0  0  0  0  0  0  0  0  0
  -90.8750   21.5539    1.6141 C   0  0  0  0  0  0  0  0  0  0  0  0
  -91.3646   20.5224    2.3947 O   0  0  0  0  0  0  0  0  0  0  0  0
  -89.9991   21.2402    0.5966 C   0  0  0  0  0  0  0  0  0  0  0  0
  -89.5077   22.2611   -0.1847 C   0  0  0  0  0  0  0  0  0  0  0  0
  -91.1062   19.5565    2.2492 H   0  0  0  0  0  0  0  0  0  0  0  0
  -94.1296   24.8554   -3.1224 C   0  0  0  0  0  0  0  0  0  0  0  0
  -94.1111   24.7761   -4.5831 C   0  0  0  0  0  0  0  0  0  0  0  0
  -93.5216   25.6406   -5.4541 C   0  0  0  0  0  0  0  0  0  0  0  0
  -93.7349   25.1988   -6.7288 N   0  0  0  0  0  0  0  0  0  0  0  0
  -94.4630   24.0505   -6.6533 C   0  0  0  0  0  0  0  0  0  0  0  0
  -94.6801   23.8119   -5.3520 N   0  0  0  0  0  0  0  0  0  0  0  0
  -95.1988   23.0197   -4.9752 H   0  0  0  0  0  0  0  0  0  0  0  0
 33 34  1  0  0  0
 34 35  2  0  0  0
 34 31  1  0  0  0
 31 30  1  0  0  0
 30 29  1  0  0  0
 29 28  1  0  0  0
 28  1  1  0  0  0
  1  2  1  0  0  0
  2  3  1  0  0  0
  3  4  2  0  0  0
  3  5  1  0  0  0
  5 39  1  0  0  0
 39 40  1  0  0  0
 40 41  2  0  0  0
 41 42  1  0  0  0
 42 43  2  0  0  0
 43 44  1  0  0  0
 43 45  1  0  0  0
 45 46  2  0  0  0
  5  6  1  0  0  0
  6  7  1  0  0  0
  7  8  2  0  0  0
  7  9  1  0  0  0
  9 48  1  0  0  0
 48 49  1  0  0  0
 49 50  2  0  0  0
 50 51  1  0  0  0
 51 52  2  0  0  0
 52 53  1  0  0  0
  9 10  1  0  0  0
 10 11  1  0  0  0
 11 12  2  0  0  0
 11 13  1  0  0  0
 13 14  1  0  0  0
 14 15  1  0  0  0
 15 16  2  0  0  0
 15 17  1  0  0  0
 17 18  1  0  0  0
 18 19  1  0  0  0
 19 20  1  0  0  0
 20 21  1  0  0  0
 21 22  1  0  0  0
 22 23  2  0  0  0
 22  1  1  0  0  0
 46 40  1  0  0  0
 53 49  1  0  0  0
 21 17  1  0  0  0
 33 36  1  0  0  0
 33 37  1  0  0  0
 35 38  1  0  0  0
 31 32  1  0  0  0
  2 24  1  0  0  0
 44 47  1  0  0  0
  6 25  1  0  0  0
 53 54  1  0  0  0
 10 26  1  0  0  0
 14 27  1  0  0  0
M  END
> <minimizedAffinity>
-1.35037

> <CNNscore>
0.3776574433

> <CNNaffinity>
5.9202070236

> <CNN_VS>
2.2358102798

> <CNNaffinity_variance>
0.6306569576

$$$$
[H]N=C(N([H])[H])N([H])C([H])([H])C([H])([H])C([H])([H])[C@@]1([H])C(=O)N2C([H])([H])C([H])([H])C([H])([H])[C@@]2([H])C(=O)N([H])C([H])([H])C(=O)N([H])[C@@]([H])(C([H])([H])c2c([H])nc([H])n2[H])C(=O)N([H])[C@]([H])(C([H])([H])c2c([H])c([H])c(O[H])c([H])c2[H])C(=O)N1[H]


 54 57  0  0  0  0  0  0  0  0999 V2000
  -87.5466   32.1925   -1.2837 C   0  0  0  0  0  0  0  0  0  0  0  0
  -88.3409   31.5681   -0.2877 N   0  0  0  0  0  0  0  0  0  0  0  0
  -89.6397   31.1113   -0.2498 C   0  0  0  0  0  0  0  0  0  0  0  0
  -90.3018   31.5146    0.7987 O   0  0  0  0  0  0  0  0  0  0  0  0
  -90.4562   30.2784   -1.1097 C   0  0  0  0  0  0  0  0  0  0  0  0
  -91.1738   29.1925   -0.4883 N   0  0  0  0  0  0  0  0  0  0  0  0
  -91.1628   28.5473    0.7252 C   0  0  0  0  0  0  0  0  0  0  0  0
  -92.1712   28.8651    1.5054 O   0  0  0  0  0  0  0  0  0  0  0  0
  -90.2848   27.5655    1.3792 C   0  0  0  0  0  0  0  0  0  0  0  0
  -89.5529   26.6672    0.5231 N   0  0  0  0  0  0  0  0  0  0  0  0
  -88.2357   26.1948    0.6556 C   0  0  0  0  0  0  0  0  0  0  0  0
  -88.0453   24.9238    0.7147 O   0  0  0  0  0  0  0  0  0  0  0  0
  -86.9923   27.0148    0.7373 C   0  0  0  0  0  0  0  0  0  0  0  0
  -87.0665   28.1600   -0.0975 N   0  0  0  0  0  0  0  0  0  0  0  0
  -86.1323   29.0300   -0.6462 C   0  0  0  0  0  0  0  0  0  0  0  0
  -86.0567   29.1177   -1.9354 O   0  0  0  0  0  0  0  0  0  0  0  0
  -85.1709   29.9099    0.0217 C   0  0  0  0  0  0  0  0  0  0  0  0
  -85.2357   29.9799    1.5004 C   0  0  0  0  0  0  0  0  0  0  0  0
  -84.4651   31.2537    1.7957 C   0  0  0  0  0  0  0  0  0  0  0  0
  -84.0948   31.7873    0.4247 C   0  0  0  0  0  0  0  0  0  0  0  0
  -85.2355   31.3020   -0.3842 N   0  0  0  0  0  0  0  0  0  0  0  0
  -86.1042   31.9309   -1.2868 C   0  0  0  0  0  0  0  0  0  0  0  0
  -85.5217   32.3867   -2.3624 O   0  0  0  0  0  0  0  0  0  0  0  0
  -87.8028   31.4374    0.6343 H   0  0  0  0  0  0  0  0  0  0  0  0
  -91.9351   28.8200   -1.1775 H   0  0  0  0  0  0  0  0  0  0  0  0
  -90.1106   26.3051   -0.3135 H   0  0  0  0  0  0  0  0  0  0  0  0
  -88.0855   28.3901   -0.3557 H   0  0  0  0  0  0  0  0  0  0  0  0
  -87.8363   33.6934   -1.0755 C   0  0  0  0  0  0  0  0  0  0  0  0
  -88.0704   34.4567   -2.3208 C   0  0  0  0  0  0  0  0  0  0  0  0
  -89.4120   33.9264   -2.8749 C   0  0  0  0  0  0  0  0  0  0  0  0
  -90.1392   34.9312   -3.5778 N   0  0  0  0  0  0  0  0  0  0  0  0
  -90.5290   35.7399   -3.0495 H   0  0  0  0  0  0  0  0  0  0  0  0
  -91.5208   34.2926   -5.5547 N   0  0  0  0  0  0  0  0  0  0  0  0
  -90.3572   34.8800   -4.9705 C   0  0  0  0  0  0  0  0  0  0  0  0
  -89.4997   35.3708   -5.8096 N   0  0  0  0  0  0  0  0  0  0  0  0
  -92.0772   34.8883   -6.2019 H   0  0  0  0  0  0  0  0  0  0  0  0
  -91.8345   33.3318   -5.3752 H   0  0  0  0  0  0  0  0  0  0  0  0
  -88.6104   35.8237   -5.4490 H   0  0  0  0  0  0  0  0  0  0  0  0
  -89.8889   29.8710   -2.4264 C   0  0  0  0  0  0  0  0  0  0  0  0
  -90.8987   29.7984   -3.5111 C   0  0  0  0  0  0  0  0  0  0  0  0
  -91.1772   30.8535   -4.3435 C   0  0  0  0  0  0  0  0  0  0  0  0
  -92.1232   30.6967   -5.3503 C   0  0  0  0  0  0  0  0  0  0  0  0
  -92.7920   29.5065   -5.5367 C   0  0  0  0  0  0  0  0  0  0  0  0
  -93.7371   29.3234   -6.5298 O   0  0  0  0  0  0  0  0  0  0  0  0
  -92.5129   28.4460   -4.7010 C   0  0  0  0  0  0  0  0  0  0  0  0
  -91.5735   28.6203   -3.7105 C   0  0  0  0  0  0  0  0  0  0  0  0
  -94.2269   28.4498   -6.6642 H   0  0  0  0  0  0  0  0  0  0  0  0
  -89.5198   28.0237    2.5694 C   0  0  0  0  0  0  0  0  0  0  0  0
  -89.6664   27.2364    3.7936 C   0  0  0  0  0  0  0  0  0  0  0  0
  -89.9869   27.6874    5.0375 C   0  0  0  0  0  0  0  0  0  0  0  0
  -90.0261   26.6263    5.8966 N   0  0  0  0  0  0  0  0  0  0  0  0
  -89.7276   25.5047    5.1842 C   0  0  0  0  0  0  0  0  0  0  0  0
  -89.5138   25.8926    3.9188 N   0  0  0  0  0  0  0  0  0  0  0  0
  -89.2699   25.2757    3.1451 H   0  0  0  0  0  0  0  0  0  0  0  0
 33 34  1  0  0  0
 34 35  2  0  0  0
 34 31  1  0  0  0
 31 30  1  0  0  0
 30 29  1  0  0  0
 29 28  1  0  0  0
 28  1  1  0  0  0
  1  2  1  0  0  0
  2  3  1  0  0  0
  3  4  2  0  0  0
  3  5  1  0  0  0
  5 39  1  0  0  0
 39 40  1  0  0  0
 40 41  2  0  0  0
 41 42  1  0  0  0
 42 43  2  0  0  0
 43 44  1  0  0  0
 43 45  1  0  0  0
 45 46  2  0  0  0
  5  6  1  0  0  0
  6  7  1  0  0  0
  7  8  2  0  0  0
  7  9  1  0  0  0
  9 48  1  0  0  0
 48 49  1  0  0  0
 49 50  2  0  0  0
 50 51  1  0  0  0
 51 52  2  0  0  0
 52 53  1  0  0  0
  9 10  1  0  0  0
 10 11  1  0  0  0
 11 12  2  0  0  0
 11 13  1  0  0  0
 13 14  1  0  0  0
 14 15  1  0  0  0
 15 16  2  0  0  0
 15 17  1  0  0  0
 17 18  1  0  0  0
 18 19  1  0  0  0
 19 20  1  0  0  0
 20 21  1  0  0  0
 21 22  1  0  0  0
 22 23  2  0  0  0
 22  1  1  0  0  0
 46 40  1  0  0  0
 53 49  1  0  0  0
 21 17  1  0  0  0
 33 36  1  0  0  0
 33 37  1  0  0  0
 35 38  1  0  0  0
 31 32  1  0  0  0
  2 24  1  0  0  0
 44 47  1  0  0  0
  6 25  1  0  0  0
 53 54  1  0  0  0
 10 26  1  0  0  0
 14 27  1  0  0  0
M  END
> <minimizedAffinity>
-4.88240

> <CNNscore>
0.3607452810

> <CNNaffinity>
6.8517975807

> <CNN_VS>
2.4717535973

> <CNNaffinity_variance>
0.4777764678

$$$$
[H]c1nc(N([H])[H])c2c(-c3sc4c(OC([H])([H])[H])c([H])c(C([H])([H])[H])c([H])c4c3[H])c(C([H])([H])N([H])C(=O)C([H])([H])[H])c([H])n2n1


 30 33  0  0  0  0  0  0  0  0999 V2000
  -86.6049   31.3937   -0.7433 C   0  0  0  0  0  0  0  0  0  0  0  0
  -87.2789   30.3472   -0.0679 C   0  0  0  0  0  0  0  0  0  0  0  0
  -86.3816   29.8735    0.8437 C   0  0  0  0  0  0  0  0  0  0  0  0
  -85.2394   30.5778    0.7403 N   0  0  0  0  0  0  0  0  0  0  0  0
  -84.1401   30.4541    1.4487 N   0  0  0  0  0  0  0  0  0  0  0  0
  -83.0836   31.2669    1.2385 C   0  0  0  0  0  0  0  0  0  0  0  0
  -83.1476   32.2253    0.2898 N   0  0  0  0  0  0  0  0  0  0  0  0
  -84.2695   32.3763   -0.4573 C   0  0  0  0  0  0  0  0  0  0  0  0
  -84.3415   33.4264   -1.3837 N   0  0  0  0  0  0  0  0  0  0  0  0
  -85.3288   31.5296   -0.2238 C   0  0  0  0  0  0  0  0  0  0  0  0
  -84.9000   34.2781   -1.1533 H   0  0  0  0  0  0  0  0  0  0  0  0
  -83.8616   33.4176   -2.3172 H   0  0  0  0  0  0  0  0  0  0  0  0
  -88.8869   35.3184   -3.6995 C   0  0  0  0  0  0  0  0  0  0  0  0
  -89.6181   35.2272   -4.8607 C   0  0  0  0  0  0  0  0  0  0  0  0
  -89.7994   33.9775   -5.4058 C   0  0  0  0  0  0  0  0  0  0  0  0
  -90.5943   33.8130   -6.6823 C   0  0  0  0  0  0  0  0  0  0  0  0
  -89.2655   32.8749   -4.8030 C   0  0  0  0  0  0  0  0  0  0  0  0
  -88.5077   32.9215   -3.6095 C   0  0  0  0  0  0  0  0  0  0  0  0
  -87.9255   31.8986   -2.9144 C   0  0  0  0  0  0  0  0  0  0  0  0
  -87.2398   32.1988   -1.7857 C   0  0  0  0  0  0  0  0  0  0  0  0
  -87.4124   33.8951   -1.6960 S   0  0  0  0  0  0  0  0  0  0  0  0
  -88.3447   34.1741   -3.0924 C   0  0  0  0  0  0  0  0  0  0  0  0
  -87.7851   37.4724   -3.6338 C   0  0  0  0  0  0  0  0  0  0  0  0
  -88.6324   36.5109   -3.0522 O   0  0  0  0  0  0  0  0  0  0  0  0
  -88.6663   29.9361   -0.3530 C   0  0  0  0  0  0  0  0  0  0  0  0
  -88.7962   28.4768   -0.2181 N   0  0  0  0  0  0  0  0  0  0  0  0
  -88.7537   27.6700   -1.3696 C   0  0  0  0  0  0  0  0  0  0  0  0
  -88.8813   26.2088   -1.2612 C   0  0  0  0  0  0  0  0  0  0  0  0
  -88.6072   28.1974   -2.4855 O   0  0  0  0  0  0  0  0  0  0  0  0
  -88.9177   28.0290    0.7014 H   0  0  0  0  0  0  0  0  0  0  0  0
 23 24  1  0  0  0
 24 13  1  0  0  0
 13 14  2  0  0  0
 14 15  1  0  0  0
 15 16  1  0  0  0
 15 17  2  0  0  0
 17 18  1  0  0  0
 18 19  1  0  0  0
 19 20  2  0  0  0
 20 21  1  0  0  0
 21 22  1  0  0  0
 20  1  1  0  0  0
  1  2  1  0  0  0
  2 25  1  0  0  0
 25 26  1  0  0  0
 26 27  1  0  0  0
 27 28  1  0  0  0
 27 29  2  0  0  0
  2  3  2  0  0  0
  3  4  1  0  0  0
  4  5  1  0  0  0
  5  6  2  0  0  0
  6  7  1  0  0  0
  7  8  2  0  0  0
  8  9  1  0  0  0
  8 10  1  0  0  0
 22 13  1  0  0  0
 10  1  2  0  0  0
 22 18  2  0  0  0
 10  4  1  0  0  0
 26 30  1  0  0  0
  9 11  1  0  0  0
  9 12  1  0  0  0
M  END
> <minimizedAffinity>
-7.15337

> <CNNscore>
0.6490249038

> <CNNaffinity>
6.8959503174

> <CNN_VS>
4.4756436348

> <CNNaffinity_variance>
0.2656498849

$$$$
[H]c1nc(N([H])[H])c2c(-c3sc4c(OC([H])([H])[H])c([H])c(C([H])([H])[H])c([H])c4c3[H])c(C([H])([H])N([H])C(=O)C([H])([H])[H])c([H])n2n1


 30 33  0  0  0  0  0  0  0  0999 V2000
  -86.3213   31.6413   -0.8099 C   0  0  0  0  0  0  0  0  0  0  0  0
  -86.2502   32.9569   -1.3294 C   0  0  0  0  0  0  0  0  0  0  0  0
  -85.0328   33.4309   -0.9374 C   0  0  0  0  0  0  0  0  0  0  0  0
  -84.3985   32.4771   -0.2308 N   0  0  0  0  0  0  0  0  0  0  0  0
  -83.1998   32.5226    0.3047 N   0  0  0  0  0  0  0  0  0  0  0  0
  -82.6924   31.4591    0.9623 C   0  0  0  0  0  0  0  0  0  0  0  0
  -83.4184   30.3265    1.0759 N   0  0  0  0  0  0  0  0  0  0  0  0
  -84.6592   30.2506    0.5335 C   0  0  0  0  0  0  0  0  0  0  0  0
  -85.3638   29.0400    0.5978 N   0  0  0  0  0  0  0  0  0  0  0  0
  -85.1522   31.3526   -0.1269 C   0  0  0  0  0  0  0  0  0  0  0  0
  -85.4255   28.4350   -0.2512 H   0  0  0  0  0  0  0  0  0  0  0  0
  -85.8468   28.6888    1.4610 H   0  0  0  0  0  0  0  0  0  0  0  0
  -90.8630   28.7110   -0.4405 C   0  0  0  0  0  0  0  0  0  0  0  0
  -91.3141   27.6901   -1.2441 C   0  0  0  0  0  0  0  0  0  0  0  0
  -90.5461   27.3454   -2.3317 C   0  0  0  0  0  0  0  0  0  0  0  0
  -90.9899   26.2305   -3.2530 C   0  0  0  0  0  0  0  0  0  0  0  0
  -89.3784   28.0035   -2.5916 C   0  0  0  0  0  0  0  0  0  0  0  0
  -88.8765   29.0580   -1.7936 C   0  0  0  0  0  0  0  0  0  0  0  0
  -87.7318   29.7892   -1.9468 C   0  0  0  0  0  0  0  0  0  0  0  0
  -87.4656   30.7611   -1.0421 C   0  0  0  0  0  0  0  0  0  0  0  0
  -88.8018   30.6495    0.0151 S   0  0  0  0  0  0  0  0  0  0  0  0
  -89.6596   29.3776   -0.7222 C   0  0  0  0  0  0  0  0  0  0  0  0
  -91.1869   28.6809    1.9579 C   0  0  0  0  0  0  0  0  0  0  0  0
  -91.5384   29.1530    0.6794 O   0  0  0  0  0  0  0  0  0  0  0  0
  -87.3165   33.5911   -2.1267 C   0  0  0  0  0  0  0  0  0  0  0  0
  -86.7250   34.4203   -3.1884 N   0  0  0  0  0  0  0  0  0  0  0  0
  -87.4810   35.4642   -3.7518 C   0  0  0  0  0  0  0  0  0  0  0  0
  -86.9123   36.3073   -4.8144 C   0  0  0  0  0  0  0  0  0  0  0  0
  -88.6375   35.6742   -3.3476 O   0  0  0  0  0  0  0  0  0  0  0  0
  -85.7677   34.2556   -3.5309 H   0  0  0  0  0  0  0  0  0  0  0  0
 23 24  1  0  0  0
 24 13  1  0  0  0
 13 14  2  0  0  0
 14 15  1  0  0  0
 15 16  1  0  0  0
 15 17  2  0  0  0
 17 18  1  0  0  0
 18 19  1  0  0  0
 19 20  2  0  0  0
 20 21  1  0  0  0
 21 22  1  0  0  0
 20  1  1  0  0  0
  1  2  1  0  0  0
  2 25  1  0  0  0
 25 26  1  0  0  0
 26 27  1  0  0  0
 27 28  1  0  0  0
 27 29  2  0  0  0
  2  3  2  0  0  0
  3  4  1  0  0  0
  4  5  1  0  0  0
  5  6  2  0  0  0
  6  7  1  0  0  0
  7  8  2  0  0  0
  8  9  1  0  0  0
  8 10  1  0  0  0
 22 13  1  0  0  0
 10  1  2  0  0  0
 22 18  2  0  0  0
 10  4  1  0  0  0
 26 30  1  0  0  0
  9 11  1  0  0  0
  9 12  1  0  0  0
M  END
> <minimizedAffinity>
-7.59784

> <CNNscore>
0.6346613169

> <CNNaffinity>
6.9903688431

> <CNN_VS>
4.4365167618

> <CNNaffinity_variance>
0.2330358922

$$$$
[H]c1nc(N([H])[H])c2c(-c3sc4c(OC([H])([H])[H])c([H])c(C([H])([H])[H])c([H])c4c3[H])c(C([H])([H])N([H])C(=O)C([H])([H])[H])c([H])n2n1


 30 33  0  0  0  0  0  0  0  0999 V2000
  -86.2509   31.0194   -0.2691 C   0  0  0  0  0  0  0  0  0  0  0  0
  -86.5461   29.8951    0.5400 C   0  0  0  0  0  0  0  0  0  0  0  0
  -85.3956   29.6353    1.2251 C   0  0  0  0  0  0  0  0  0  0  0  0
  -84.4606   30.5348    0.8673 N   0  0  0  0  0  0  0  0  0  0  0  0
  -83.2287   30.6476    1.3093 N   0  0  0  0  0  0  0  0  0  0  0  0
  -82.4200   31.6332    0.8671 C   0  0  0  0  0  0  0  0  0  0  0  0
  -82.8743   32.5223   -0.0417 N   0  0  0  0  0  0  0  0  0  0  0  0
  -84.1415   32.4303   -0.5163 C   0  0  0  0  0  0  0  0  0  0  0  0
  -84.6159   33.4088   -1.4015 N   0  0  0  0  0  0  0  0  0  0  0  0
  -84.9413   31.4120   -0.0507 C   0  0  0  0  0  0  0  0  0  0  0  0
  -85.2614   34.1508   -1.0501 H   0  0  0  0  0  0  0  0  0  0  0  0
  -84.3623   33.4503   -2.4192 H   0  0  0  0  0  0  0  0  0  0  0  0
  -89.8451   32.2120   -4.1432 C   0  0  0  0  0  0  0  0  0  0  0  0
  -90.3641   33.4314   -4.5106 C   0  0  0  0  0  0  0  0  0  0  0  0
  -89.9626   34.5379   -3.7993 C   0  0  0  0  0  0  0  0  0  0  0  0
  -90.4990   35.9067   -4.1559 C   0  0  0  0  0  0  0  0  0  0  0  0
  -89.0783   34.4139   -2.7663 C   0  0  0  0  0  0  0  0  0  0  0  0
  -88.5196   33.1815   -2.3542 C   0  0  0  0  0  0  0  0  0  0  0  0
  -87.6328   32.9284   -1.3453 C   0  0  0  0  0  0  0  0  0  0  0  0
  -87.2426   31.6478   -1.1405 C   0  0  0  0  0  0  0  0  0  0  0  0
  -88.1047   30.8072   -2.3511 S   0  0  0  0  0  0  0  0  0  0  0  0
  -88.9364   32.1021   -3.0782 C   0  0  0  0  0  0  0  0  0  0  0  0
  -91.4309   30.4385   -4.5881 C   0  0  0  0  0  0  0  0  0  0  0  0
  -90.1661   31.0270   -4.7744 O   0  0  0  0  0  0  0  0  0  0  0  0
  -87.8577   29.2215    0.5748 C   0  0  0  0  0  0  0  0  0  0  0  0
  -87.7375   27.8585    0.0341 N   0  0  0  0  0  0  0  0  0  0  0  0
  -88.8485   27.2620   -0.5891 C   0  0  0  0  0  0  0  0  0  0  0  0
  -88.7539   25.9005   -1.1376 C   0  0  0  0  0  0  0  0  0  0  0  0
  -89.9169   27.8913   -0.6761 O   0  0  0  0  0  0  0  0  0  0  0  0
  -86.8573   27.3279    0.1002 H   0  0  0  0  0  0  0  0  0  0  0  0
 23 24  1  0  0  0
 24 13  1  0  0  0
 13 14  2  0  0  0
 14 15  1  0  0  0
 15 16  1  0  0  0
 15 17  2  0  0  0
 17 18  1  0  0  0
 18 19  1  0  0  0
 19 20  2  0  0  0
 20 21  1  0  0  0
 21 22  1  0  0  0
 20  1  1  0  0  0
  1  2  1  0  0  0
  2 25  1  0  0  0
 25 26  1  0  0  0
 26 27  1  0  0  0
 27 28  1  0  0  0
 27 29  2  0  0  0
  2  3  2  0  0  0
  3  4  1  0  0  0
  4  5  1  0  0  0
  5  6  2  0  0  0
  6  7  1  0  0  0
  7  8  2  0  0  0
  8  9  1  0  0  0
  8 10  1  0  0  0
 22 13  1  0  0  0
 10  1  2  0  0  0
 22 18  2  0  0  0
 10  4  1  0  0  0
 26 30  1  0  0  0
  9 11  1  0  0  0
  9 12  1  0  0  0
M  END
> <minimizedAffinity>
-7.80865

> <CNNscore>
0.5435437560

> <CNNaffinity>
6.8821496964

> <CNN_VS>
3.7407495975

> <CNNaffinity_variance>
0.3500493765

$$$$
[H]c1nc(N([H])[H])c2c(-c3sc4c(OC([H])([H])[H])c([H])c(C([H])([H])[H])c([H])c4c3[H])c(C([H])([H])N([H])C(=O)C([H])([H])[H])c([H])n2n1


 30 33  0  0  0  0  0  0  0  0999 V2000
  -86.3473   28.8348    0.7005 C   0  0  0  0  0  0  0  0  0  0  0  0
  -87.0930   27.7327    1.1853 C   0  0  0  0  0  0  0  0  0  0  0  0
  -86.2321   27.0437    1.9883 C   0  0  0  0  0  0  0  0  0  0  0  0
  -85.0439   27.6758    2.0002 N   0  0  0  0  0  0  0  0  0  0  0  0
  -83.9570   27.3529    2.6637 N   0  0  0  0  0  0  0  0  0  0  0  0
  -82.8468   28.1164    2.5909 C   0  0  0  0  0  0  0  0  0  0  0  0
  -82.8429   29.2311    1.8291 N   0  0  0  0  0  0  0  0  0  0  0  0
  -83.9503   29.5891    1.1327 C   0  0  0  0  0  0  0  0  0  0  0  0
  -83.9481   30.7903    0.4094 N   0  0  0  0  0  0  0  0  0  0  0  0
  -85.0658   28.7885    1.2225 C   0  0  0  0  0  0  0  0  0  0  0  0
  -84.4471   31.6232    0.7939 H   0  0  0  0  0  0  0  0  0  0  0  0
  -83.4682   30.9160   -0.5156 H   0  0  0  0  0  0  0  0  0  0  0  0
  -88.6760   31.5930   -3.3392 C   0  0  0  0  0  0  0  0  0  0  0  0
  -88.6992   32.9477   -3.5750 C   0  0  0  0  0  0  0  0  0  0  0  0
  -88.0765   33.7665   -2.6621 C   0  0  0  0  0  0  0  0  0  0  0  0
  -88.0684   35.2654   -2.8667 C   0  0  0  0  0  0  0  0  0  0  0  0
  -87.4607   33.2376   -1.5642 C   0  0  0  0  0  0  0  0  0  0  0  0
  -87.4122   31.8524   -1.2818 C   0  0  0  0  0  0  0  0  0  0  0  0
  -86.8326   31.2048   -0.2268 C   0  0  0  0  0  0  0  0  0  0  0  0
  -86.9233   29.8545   -0.1749 C   0  0  0  0  0  0  0  0  0  0  0  0
  -87.8068   29.4949   -1.5910 S   0  0  0  0  0  0  0  0  0  0  0  0
  -88.0382   31.0655   -2.2049 C   0  0  0  0  0  0  0  0  0  0  0  0
  -90.6550   30.4619   -4.1529 C   0  0  0  0  0  0  0  0  0  0  0  0
  -89.2625   30.6648   -4.1759 O   0  0  0  0  0  0  0  0  0  0  0  0
  -88.5048   27.4745    0.8460 C   0  0  0  0  0  0  0  0  0  0  0  0
  -89.3738   27.8937    1.9567 N   0  0  0  0  0  0  0  0  0  0  0  0
  -89.8312   26.9328    2.8765 C   0  0  0  0  0  0  0  0  0  0  0  0
  -90.7009   27.3265    3.9955 C   0  0  0  0  0  0  0  0  0  0  0  0
  -89.4972   25.7433    2.7413 O   0  0  0  0  0  0  0  0  0  0  0  0
  -89.6567   28.8764    2.0788 H   0  0  0  0  0  0  0  0  0  0  0  0
 23 24  1  0  0  0
 24 13  1  0  0  0
 13 14  2  0  0  0
 14 15  1  0  0  0
 15 16  1  0  0  0
 15 17  2  0  0  0
 17 18  1  0  0  0
 18 19  1  0  0  0
 19 20  2  0  0  0
 20 21  1  0  0  0
 21 22  1  0  0  0
 20  1  1  0  0  0
  1  2  1  0  0  0
  2 25  1  0  0  0
 25 26  1  0  0  0
 26 27  1  0  0  0
 27 28  1  0  0  0
 27 29  2  0  0  0
  2  3  2  0  0  0
  3  4  1  0  0  0
  4  5  1  0  0  0
  5  6  2  0  0  0
  6  7  1  0  0  0
  7  8  2  0  0  0
  8  9  1  0  0  0
  8 10  1  0  0  0
 22 13  1  0  0  0
 10  1  2  0  0  0
 22 18  2  0  0  0
 10  4  1  0  0  0
 26 30  1  0  0  0
  9 11  1  0  0  0
  9 12  1  0  0  0
M  END
> <minimizedAffinity>
-8.72801

> <CNNscore>
0.3092221618

> <CNNaffinity>
6.7697052956

> <CNN_VS>
2.0933430195

> <CNNaffinity_variance>
0.1303288192

$$$$
[H]c1nc(N([H])[H])c2c(-c3sc4c(OC([H])([H])[H])c([H])c(C([H])([H])[H])c([H])c4c3[H])c(C([H])([H])N([H])C(=O)C([H])([H])[H])c([H])n2n1


 30 33  0  0  0  0  0  0  0  0999 V2000
  -86.5018   28.8440    0.4955 C   0  0  0  0  0  0  0  0  0  0  0  0
  -86.9538   27.7498    1.2729 C   0  0  0  0  0  0  0  0  0  0  0  0
  -85.9071   27.4336    2.0883 C   0  0  0  0  0  0  0  0  0  0  0  0
  -84.8858   28.2726    1.8347 N   0  0  0  0  0  0  0  0  0  0  0  0
  -83.7084   28.3203    2.4154 N   0  0  0  0  0  0  0  0  0  0  0  0
  -82.7976   29.2514    2.0627 C   0  0  0  0  0  0  0  0  0  0  0  0
  -83.0912   30.1526    1.1013 N   0  0  0  0  0  0  0  0  0  0  0  0
  -84.2985   30.1274    0.4840 C   0  0  0  0  0  0  0  0  0  0  0  0
  -84.6096   31.1193   -0.4570 N   0  0  0  0  0  0  0  0  0  0  0  0
  -85.2052   29.1634    0.8611 C   0  0  0  0  0  0  0  0  0  0  0  0
  -85.2464   31.9020   -0.1879 H   0  0  0  0  0  0  0  0  0  0  0  0
  -84.2385   31.1320   -1.4388 H   0  0  0  0  0  0  0  0  0  0  0  0
  -89.4165   32.3794   -2.3949 C   0  0  0  0  0  0  0  0  0  0  0  0
  -90.3568   32.1475   -3.3714 C   0  0  0  0  0  0  0  0  0  0  0  0
  -90.6077   30.8410   -3.7202 C   0  0  0  0  0  0  0  0  0  0  0  0
  -91.6309   30.5223   -4.7879 C   0  0  0  0  0  0  0  0  0  0  0  0
  -89.9382   29.8201   -3.1088 C   0  0  0  0  0  0  0  0  0  0  0  0
  -88.9645   30.0116   -2.1009 C   0  0  0  0  0  0  0  0  0  0  0  0
  -88.2318   29.0811   -1.4184 C   0  0  0  0  0  0  0  0  0  0  0  0
  -87.3480   29.5165   -0.4892 C   0  0  0  0  0  0  0  0  0  0  0  0
  -87.5441   31.2108   -0.5667 S   0  0  0  0  0  0  0  0  0  0  0  0
  -88.7370   31.3177   -1.7761 C   0  0  0  0  0  0  0  0  0  0  0  0
  -88.9099   34.6979   -2.8699 C   0  0  0  0  0  0  0  0  0  0  0  0
  -89.0725   33.6416   -1.9542 O   0  0  0  0  0  0  0  0  0  0  0  0
  -88.2980   27.1535    1.1605 C   0  0  0  0  0  0  0  0  0  0  0  0
  -89.1572   27.6409    2.2509 N   0  0  0  0  0  0  0  0  0  0  0  0
  -90.3976   28.2286    1.9431 C   0  0  0  0  0  0  0  0  0  0  0  0
  -91.2746   28.7235    3.0152 C   0  0  0  0  0  0  0  0  0  0  0  0
  -90.7534   28.3294    0.7565 O   0  0  0  0  0  0  0  0  0  0  0  0
  -88.8728   27.5623    3.2376 H   0  0  0  0  0  0  0  0  0  0  0  0
 23 24  1  0  0  0
 24 13  1  0  0  0
 13 14  2  0  0  0
 14 15  1  0  0  0
 15 16  1  0  0  0
 15 17  2  0  0  0
 17 18  1  0  0  0
 18 19  1  0  0  0
 19 20  2  0  0  0
 20 21  1  0  0  0
 21 22  1  0  0  0
 20  1  1  0  0  0
  1  2  1  0  0  0
  2 25  1  0  0  0
 25 26  1  0  0  0
 26 27  1  0  0  0
 27 28  1  0  0  0
 27 29  2  0  0  0
  2  3  2  0  0  0
  3  4  1  0  0  0
  4  5  1  0  0  0
  5  6  2  0  0  0
  6  7  1  0  0  0
  7  8  2  0  0  0
  8  9  1  0  0  0
  8 10  1  0  0  0
 22 13  1  0  0  0
 10  1  2  0  0  0
 22 18  2  0  0  0
 10  4  1  0  0  0
 26 30  1  0  0  0
  9 11  1  0  0  0
  9 12  1  0  0  0
M  END
> <minimizedAffinity>
-7.31203

> <CNNscore>
0.2094323635

> <CNNaffinity>
6.5435791016

> <CNN_VS>
1.3704372644

> <CNNaffinity_variance>
0.2928458452

$$$$
[H]c1nc(N([H])[H])c2c(-c3sc4c(OC([H])([H])[H])c([H])c(C([H])([H])[H])c([H])c4c3[H])c(C([H])([H])N([H])C(=O)C([H])([H])[H])c([H])n2n1


 30 33  0  0  0  0  0  0  0  0999 V2000
  -86.8388   28.9785    0.3871 C   0  0  0  0  0  0  0  0  0  0  0  0
  -86.5508   27.7414    1.0134 C   0  0  0  0  0  0  0  0  0  0  0  0
  -85.4202   27.9645    1.7432 C   0  0  0  0  0  0  0  0  0  0  0  0
  -85.0405   29.2456    1.5813 N   0  0  0  0  0  0  0  0  0  0  0  0
  -84.0198   29.8669    2.1269 N   0  0  0  0  0  0  0  0  0  0  0  0
  -83.7923   31.1745    1.8835 C   0  0  0  0  0  0  0  0  0  0  0  0
  -84.6205   31.8638    1.0700 N   0  0  0  0  0  0  0  0  0  0  0  0
  -85.6822   31.2485    0.4923 C   0  0  0  0  0  0  0  0  0  0  0  0
  -86.5716   32.0016   -0.2874 N   0  0  0  0  0  0  0  0  0  0  0  0
  -85.8861   29.9132    0.7551 C   0  0  0  0  0  0  0  0  0  0  0  0
  -87.4970   32.2778    0.1100 H   0  0  0  0  0  0  0  0  0  0  0  0
  -86.3687   32.3160   -1.2681 H   0  0  0  0  0  0  0  0  0  0  0  0
  -90.2977   30.2450   -3.5856 C   0  0  0  0  0  0  0  0  0  0  0  0
  -91.6707   30.3191   -3.5604 C   0  0  0  0  0  0  0  0  0  0  0  0
  -92.3066   30.0064   -2.3817 C   0  0  0  0  0  0  0  0  0  0  0  0
  -93.8154   30.0690   -2.2919 C   0  0  0  0  0  0  0  0  0  0  0  0
  -91.5856   29.6368   -1.2826 C   0  0  0  0  0  0  0  0  0  0  0  0
  -90.1741   29.5471   -1.2628 C   0  0  0  0  0  0  0  0  0  0  0  0
  -89.3445   29.1927   -0.2359 C   0  0  0  0  0  0  0  0  0  0  0  0
  -88.0098   29.1787   -0.4654 C   0  0  0  0  0  0  0  0  0  0  0  0
  -87.9169   29.6613   -2.1005 S   0  0  0  0  0  0  0  0  0  0  0  0
  -89.5714   29.8631   -2.4460 C   0  0  0  0  0  0  0  0  0  0  0  0
  -89.0917   31.8443   -4.9441 C   0  0  0  0  0  0  0  0  0  0  0  0
  -89.5405   30.5323   -4.7035 O   0  0  0  0  0  0  0  0  0  0  0  0
  -87.3689   26.5242    0.8577 C   0  0  0  0  0  0  0  0  0  0  0  0
  -87.7151   25.9785    2.1795 N   0  0  0  0  0  0  0  0  0  0  0  0
  -89.0323   26.1059    2.6561 C   0  0  0  0  0  0  0  0  0  0  0  0
  -89.4035   25.5687    3.9741 C   0  0  0  0  0  0  0  0  0  0  0  0
  -89.8872   26.6765    1.9573 O   0  0  0  0  0  0  0  0  0  0  0  0
  -87.0150   25.5035    2.7669 H   0  0  0  0  0  0  0  0  0  0  0  0
 23 24  1  0  0  0
 24 13  1  0  0  0
 13 14  2  0  0  0
 14 15  1  0  0  0
 15 16  1  0  0  0
 15 17  2  0  0  0
 17 18  1  0  0  0
 18 19  1  0  0  0
 19 20  2  0  0  0
 20 21  1  0  0  0
 21 22  1  0  0  0
 20  1  1  0  0  0
  1  2  1  0  0  0
  2 25  1  0  0  0
 25 26  1  0  0  0
 26 27  1  0  0  0
 27 28  1  0  0  0
 27 29  2  0  0  0
  2  3  2  0  0  0
  3  4  1  0  0  0
  4  5  1  0  0  0
  5  6  2  0  0  0
  6  7  1  0  0  0
  7  8  2  0  0  0
  8  9  1  0  0  0
  8 10  1  0  0  0
 22 13  1  0  0  0
 10  1  2  0  0  0
 22 18  2  0  0  0
 10  4  1  0  0  0
 26 30  1  0  0  0
  9 11  1  0  0  0
  9 12  1  0  0  0
M  END
> <minimizedAffinity>
-7.63648

> <CNNscore>
0.1107121184

> <CNNaffinity>
6.3369870186

> <CNN_VS>
0.7015812397

> <CNNaffinity_variance>
0.2848753929

$$$$
[H]c1nc(N([H])[H])c2c(-c3sc4c(OC([H])([H])[H])c([H])c(C([H])([H])[H])c([H])c4c3[H])c(C([H])([H])N([H])C(=O)C([H])([H])[H])c([H])n2n1


 30 33  0  0  0  0  0  0  0  0999 V2000
  -86.6782   28.1020    0.5427 C   0  0  0  0  0  0  0  0  0  0  0  0
  -87.1378   26.8530    1.0267 C   0  0  0  0  0  0  0  0  0  0  0  0
  -86.1665   26.4211    1.8815 C   0  0  0  0  0  0  0  0  0  0  0  0
  -85.1818   27.3377    1.9239 N   0  0  0  0  0  0  0  0  0  0  0  0
  -84.0798   27.3155    2.6386 N   0  0  0  0  0  0  0  0  0  0  0  0
  -83.2001   28.3376    2.5898 C   0  0  0  0  0  0  0  0  0  0  0  0
  -83.4474   29.4038    1.7993 N   0  0  0  0  0  0  0  0  0  0  0  0
  -84.5767   29.4541    1.0499 C   0  0  0  0  0  0  0  0  0  0  0  0
  -84.8496   30.6040    0.2954 N   0  0  0  0  0  0  0  0  0  0  0  0
  -85.4527   28.3950    1.1165 C   0  0  0  0  0  0  0  0  0  0  0  0
  -85.5623   31.2865    0.6374 H   0  0  0  0  0  0  0  0  0  0  0  0
  -84.3764   30.8344   -0.6127 H   0  0  0  0  0  0  0  0  0  0  0  0
  -90.5750   30.5669   -2.3013 C   0  0  0  0  0  0  0  0  0  0  0  0
  -90.4861   31.2764   -3.4761 C   0  0  0  0  0  0  0  0  0  0  0  0
  -89.2393   31.4347   -4.0348 C   0  0  0  0  0  0  0  0  0  0  0  0
  -89.0773   32.2055   -5.3264 C   0  0  0  0  0  0  0  0  0  0  0  0
  -88.1372   30.8999   -3.4318 C   0  0  0  0  0  0  0  0  0  0  0  0
  -88.1815   30.1639   -2.2247 C   0  0  0  0  0  0  0  0  0  0  0  0
  -87.1589   29.5831   -1.5280 C   0  0  0  0  0  0  0  0  0  0  0  0
  -87.4559   28.9256   -0.3819 C   0  0  0  0  0  0  0  0  0  0  0  0
  -89.1500   29.1144   -0.2831 S   0  0  0  0  0  0  0  0  0  0  0  0
  -89.4313   30.0234   -1.6943 C   0  0  0  0  0  0  0  0  0  0  0  0
  -92.5154   29.1761   -1.9033 C   0  0  0  0  0  0  0  0  0  0  0  0
  -91.7645   30.3368   -1.6396 O   0  0  0  0  0  0  0  0  0  0  0  0
  -88.4194   26.2351    0.6383 C   0  0  0  0  0  0  0  0  0  0  0  0
  -88.9025   25.3587    1.7168 N   0  0  0  0  0  0  0  0  0  0  0  0
  -90.2844   25.1411    1.8634 C   0  0  0  0  0  0  0  0  0  0  0  0
  -90.7925   24.2693    2.9336 C   0  0  0  0  0  0  0  0  0  0  0  0
  -91.0803   25.6901    1.0823 O   0  0  0  0  0  0  0  0  0  0  0  0
  -88.2523   24.8985    2.3696 H   0  0  0  0  0  0  0  0  0  0  0  0
 23 24  1  0  0  0
 24 13  1  0  0  0
 13 14  2  0  0  0
 14 15  1  0  0  0
 15 16  1  0  0  0
 15 17  2  0  0  0
 17 18  1  0  0  0
 18 19  1  0  0  0
 19 20  2  0  0  0
 20 21  1  0  0  0
 21 22  1  0  0  0
 20  1  1  0  0  0
  1  2  1  0  0  0
  2 25  1  0  0  0
 25 26  1  0  0  0
 26 27  1  0  0  0
 27 28  1  0  0  0
 27 29  2  0  0  0
  2  3  2  0  0  0
  3  4  1  0  0  0
  4  5  1  0  0  0
  5  6  2  0  0  0
  6  7  1  0  0  0
  7  8  2  0  0  0
  8  9  1  0  0  0
  8 10  1  0  0  0
 22 13  1  0  0  0
 10  1  2  0  0  0
 22 18  2  0  0  0
 10  4  1  0  0  0
 26 30  1  0  0  0
  9 11  1  0  0  0
  9 12  1  0  0  0
M  END
> <minimizedAffinity>
-7.79321

> <CNNscore>
0.1074196324

> <CNNaffinity>
6.2916135788

> <CNN_VS>
0.6758428216

> <CNNaffinity_variance>
0.1782895625

$$$$
[H]c1nc(N([H])[H])c2c(-c3sc4c(OC([H])([H])[H])c([H])c(C([H])([H])[H])c([H])c4c3[H])c(C([H])([H])N([H])C(=O)C([H])([H])[H])c([H])n2n1


 30 33  0  0  0  0  0  0  0  0999 V2000
  -89.0064   28.5996   -0.7200 C   0  0  0  0  0  0  0  0  0  0  0  0
  -90.0841   29.5166   -0.6617 C   0  0  0  0  0  0  0  0  0  0  0  0
  -91.1713   28.8193   -1.1003 C   0  0  0  0  0  0  0  0  0  0  0  0
  -90.7928   27.5639   -1.4038 N   0  0  0  0  0  0  0  0  0  0  0  0
  -91.5370   26.5718   -1.8370 N   0  0  0  0  0  0  0  0  0  0  0  0
  -91.0043   25.3535   -2.0672 C   0  0  0  0  0  0  0  0  0  0  0  0
  -89.6888   25.1403   -1.8511 N   0  0  0  0  0  0  0  0  0  0  0  0
  -88.8958   26.1458   -1.4045 C   0  0  0  0  0  0  0  0  0  0  0  0
  -87.5495   25.8818   -1.1147 N   0  0  0  0  0  0  0  0  0  0  0  0
  -89.4660   27.3785   -1.1833 C   0  0  0  0  0  0  0  0  0  0  0  0
  -87.2476   25.7816   -0.1200 H   0  0  0  0  0  0  0  0  0  0  0  0
  -86.8034   25.7747   -1.8452 H   0  0  0  0  0  0  0  0  0  0  0  0
  -84.3115   29.1761    1.9209 C   0  0  0  0  0  0  0  0  0  0  0  0
  -83.2881   30.0686    1.7027 C   0  0  0  0  0  0  0  0  0  0  0  0
  -83.4178   30.9459    0.6515 C   0  0  0  0  0  0  0  0  0  0  0  0
  -82.3253   31.9511    0.3610 C   0  0  0  0  0  0  0  0  0  0  0  0
  -84.5305   30.9195   -0.1394 C   0  0  0  0  0  0  0  0  0  0  0  0
  -85.6061   30.0202    0.0477 C   0  0  0  0  0  0  0  0  0  0  0  0
  -86.7635   29.8954   -0.6687 C   0  0  0  0  0  0  0  0  0  0  0  0
  -87.6515   28.9447   -0.2921 C   0  0  0  0  0  0  0  0  0  0  0  0
  -86.8764   28.2361    1.0541 S   0  0  0  0  0  0  0  0  0  0  0  0
  -85.4491   29.1624    1.0978 C   0  0  0  0  0  0  0  0  0  0  0  0
  -83.2863   27.2766    3.0158 C   0  0  0  0  0  0  0  0  0  0  0  0
  -84.3048   28.2450    2.9400 O   0  0  0  0  0  0  0  0  0  0  0  0
  -89.9607   30.9111   -0.1978 C   0  0  0  0  0  0  0  0  0  0  0  0
  -90.0316   31.8306   -1.3442 N   0  0  0  0  0  0  0  0  0  0  0  0
  -89.0561   32.8339   -1.4865 C   0  0  0  0  0  0  0  0  0  0  0  0
  -89.1050   33.7654   -2.6237 C   0  0  0  0  0  0  0  0  0  0  0  0
  -88.1471   32.9324   -0.6445 O   0  0  0  0  0  0  0  0  0  0  0  0
  -90.7800   31.7581   -2.0481 H   0  0  0  0  0  0  0  0  0  0  0  0
 23 24  1  0  0  0
 24 13  1  0  0  0
 13 14  2  0  0  0
 14 15  1  0  0  0
 15 16  1  0  0  0
 15 17  2  0  0  0
 17 18  1  0  0  0
 18 19  1  0  0  0
 19 20  2  0  0  0
 20 21  1  0  0  0
 21 22  1  0  0  0
 20  1  1  0  0  0
  1  2  1  0  0  0
  2 25  1  0  0  0
 25 26  1  0  0  0
 26 27  1  0  0  0
 27 28  1  0  0  0
 27 29  2  0  0  0
  2  3  2  0  0  0
  3  4  1  0  0  0
  4  5  1  0  0  0
  5  6  2  0  0  0
  6  7  1  0  0  0
  7  8  2  0  0  0
  8  9  1  0  0  0
  8 10  1  0  0  0
 22 13  1  0  0  0
 10  1  2  0  0  0
 22 18  2  0  0  0
 10  4  1  0  0  0
 26 30  1  0  0  0
  9 11  1  0  0  0
  9 12  1  0  0  0
M  END
> <minimizedAffinity>
-8.58710

> <CNNscore>
0.1000612751

> <CNNaffinity>
5.9110937119

> <CNN_VS>
0.5914715528

> <CNNaffinity_variance>
0.4427079558

$$$$
[H]c1nc(N([H])[H])c2c(-c3sc4c(OC([H])([H])[H])c([H])c(C([H])([H])[H])c([H])c4c3[H])c(C([H])([H])N([H])C(=O)C([H])([H])[H])c([H])n2n1


 30 33  0  0  0  0  0  0  0  0999 V2000
  -87.0827   30.5263   -0.5560 C   0  0  0  0  0  0  0  0  0  0  0  0
  -87.0946   31.7470   -1.2739 C   0  0  0  0  0  0  0  0  0  0  0  0
  -86.1387   32.5194   -0.6821 C   0  0  0  0  0  0  0  0  0  0  0  0
  -85.5765   31.8252    0.3246 N   0  0  0  0  0  0  0  0  0  0  0  0
  -84.6053   32.1976    1.1269 N   0  0  0  0  0  0  0  0  0  0  0  0
  -84.1300   31.3635    2.0753 C   0  0  0  0  0  0  0  0  0  0  0  0
  -84.6524   30.1258    2.2090 N   0  0  0  0  0  0  0  0  0  0  0  0
  -85.6561   29.7140    1.3951 C   0  0  0  0  0  0  0  0  0  0  0  0
  -86.1309   28.3990    1.5017 N   0  0  0  0  0  0  0  0  0  0  0  0
  -86.1236   30.5880    0.4405 C   0  0  0  0  0  0  0  0  0  0  0  0
  -85.8444   27.6895    0.7909 H   0  0  0  0  0  0  0  0  0  0  0  0
  -86.7709   28.0675    2.2648 H   0  0  0  0  0  0  0  0  0  0  0  0
  -91.2243   27.1411   -1.4145 C   0  0  0  0  0  0  0  0  0  0  0  0
  -91.2135   25.7856   -1.6471 C   0  0  0  0  0  0  0  0  0  0  0  0
  -89.9918   25.1569   -1.7081 C   0  0  0  0  0  0  0  0  0  0  0  0
  -89.9150   23.6675   -1.9614 C   0  0  0  0  0  0  0  0  0  0  0  0
  -88.8380   25.8677   -1.5413 C   0  0  0  0  0  0  0  0  0  0  0  0
  -88.8015   27.2611   -1.3003 C   0  0  0  0  0  0  0  0  0  0  0  0
  -87.7217   28.0791   -1.1179 C   0  0  0  0  0  0  0  0  0  0  0  0
  -87.9450   29.3975   -0.9027 C   0  0  0  0  0  0  0  0  0  0  0  0
  -89.6493   29.4901   -0.9506 S   0  0  0  0  0  0  0  0  0  0  0  0
  -90.0283   27.8571   -1.2452 C   0  0  0  0  0  0  0  0  0  0  0  0
  -93.2863   27.9283   -2.4077 C   0  0  0  0  0  0  0  0  0  0  0  0
  -92.3812   27.8895   -1.3307 O   0  0  0  0  0  0  0  0  0  0  0  0
  -87.9837   32.0268   -2.4168 C   0  0  0  0  0  0  0  0  0  0  0  0
  -88.4558   33.4191   -2.3576 N   0  0  0  0  0  0  0  0  0  0  0  0
  -88.1180   34.3078   -3.3942 C   0  0  0  0  0  0  0  0  0  0  0  0
  -88.5777   35.7045   -3.3583 C   0  0  0  0  0  0  0  0  0  0  0  0
  -87.4261   33.9084   -4.3464 O   0  0  0  0  0  0  0  0  0  0  0  0
  -89.0298   33.7609   -1.5738 H   0  0  0  0  0  0  0  0  0  0  0  0
 23 24  1  0  0  0
 24 13  1  0  0  0
 13 14  2  0  0  0
 14 15  1  0  0  0
 15 16  1  0  0  0
 15 17  2  0  0  0
 17 18  1  0  0  0
 18 19  1  0  0  0
 19 20  2  0  0  0
 20 21  1  0  0  0
 21 22  1  0  0  0
 20  1  1  0  0  0
  1  2  1  0  0  0
  2 25  1  0  0  0
 25 26  1  0  0  0
 26 27  1  0  0  0
 27 28  1  0  0  0
 27 29  2  0  0  0
  2  3  2  0  0  0
  3  4  1  0  0  0
  4  5  1  0  0  0
  5  6  2  0  0  0
  6  7  1  0  0  0
  7  8  2  0  0  0
  8  9  1  0  0  0
  8 10  1  0  0  0
 22 13  1  0  0  0
 10  1  2  0  0  0
 22 18  2  0  0  0
 10  4  1  0  0  0
 26 30  1  0  0  0
  9 11  1  0  0  0
  9 12  1  0  0  0
M  END
> <minimizedAffinity>
-7.15629

> <CNNscore>
0.0881297812

> <CNNaffinity>
6.2285957336

> <CNN_VS>
0.5489248037

> <CNNaffinity_variance>
0.6598046422

$$$$
[H]N=C(N([H])[H])N([H])C([H])([H])C([H])([H])C([H])([H])[C@@]([H])(C(=O)N1C([H])([H])C([H])([H])C([H])([H])[C@@]1([H])C(=O)N([H])C([H])([H])C(=O)N([H])[C@]([H])(C(=O)N([H])[C@]([H])(C(=O)N([H])[C@]([H])(C(=O)N([H])[H])C([H])([H])c1c([H])n([H])c2c([H])c([H])c([H])c([H])c12)C([H])([H])C([H])(C([H])([H])[H])C([H])([H])[H])C([H])([H])c1c([H])n([H])c2c([H])c([H])c([H])c([H])c12)N([H])[H]


 73 77  0  0  0  0  0  0  0  0999 V2000
  -90.1113   30.0607   -2.6443 C   0  0  0  0  0  0  0  0  0  0  0  0
  -91.2796   29.2019   -2.7392 N   0  0  0  0  0  0  0  0  0  0  0  0
  -91.1201   27.8317   -3.1245 C   0  0  0  0  0  0  0  0  0  0  0  0
  -89.9952   27.3698   -3.3496 O   0  0  0  0  0  0  0  0  0  0  0  0
  -92.2020   29.6011   -2.5026 H   0  0  0  0  0  0  0  0  0  0  0  0
  -92.3208   26.9638   -3.2588 C   0  0  0  0  0  0  0  0  0  0  0  0
  -91.9464   25.5581   -3.0639 N   0  0  0  0  0  0  0  0  0  0  0  0
  -92.8533   24.4999   -3.3083 C   0  0  0  0  0  0  0  0  0  0  0  0
  -94.0078   24.8094   -3.7332 O   0  0  0  0  0  0  0  0  0  0  0  0
  -90.9919   25.3173   -2.7310 H   0  0  0  0  0  0  0  0  0  0  0  0
  -92.6006   23.0658   -3.1214 C   0  0  0  0  0  0  0  0  0  0  0  0
  -93.7464   22.1673   -3.3845 C   0  0  0  0  0  0  0  0  0  0  0  0
  -94.3611   21.7919   -2.0789 C   0  0  0  0  0  0  0  0  0  0  0  0
  -93.4974   22.5843   -1.0807 C   0  0  0  0  0  0  0  0  0  0  0  0
  -92.2359   22.7519   -1.7213 N   0  0  0  0  0  0  0  0  0  0  0  0
  -90.9232   22.7115   -1.2981 C   0  0  0  0  0  0  0  0  0  0  0  0
  -89.9364   22.9704   -2.1063 O   0  0  0  0  0  0  0  0  0  0  0  0
  -90.3906   22.3874    0.0928 C   0  0  0  0  0  0  0  0  0  0  0  0
  -88.9553   22.2196   -0.0240 N   0  0  0  0  0  0  0  0  0  0  0  0
  -88.5910   21.2841    0.0672 H   0  0  0  0  0  0  0  0  0  0  0  0
  -88.4566   22.9446   -0.5213 H   0  0  0  0  0  0  0  0  0  0  0  0
  -90.6836   23.5367    0.9966 C   0  0  0  0  0  0  0  0  0  0  0  0
  -90.2982   23.5842    2.3882 C   0  0  0  0  0  0  0  0  0  0  0  0
  -90.5234   22.5474    3.3852 C   0  0  0  0  0  0  0  0  0  0  0  0
  -89.4244   21.6515    3.6224 N   0  0  0  0  0  0  0  0  0  0  0  0
  -88.6408   21.9723    4.2585 H   0  0  0  0  0  0  0  0  0  0  0  0
  -89.3380   20.3745    2.9902 C   0  0  0  0  0  0  0  0  0  0  0  0
  -90.4299   19.4743    3.1047 N   0  0  0  0  0  0  0  0  0  0  0  0
  -88.2788   20.0639    2.3276 N   0  0  0  0  0  0  0  0  0  0  0  0
  -90.5187   18.6653    2.4471 H   0  0  0  0  0  0  0  0  0  0  0  0
  -91.1409   19.6248    3.8509 H   0  0  0  0  0  0  0  0  0  0  0  0
  -87.5079   20.7615    2.2731 H   0  0  0  0  0  0  0  0  0  0  0  0
  -88.8438   28.8391   -0.8213 N   0  0  0  0  0  0  0  0  0  0  0  0
  -89.5503   29.9903   -1.2769 C   0  0  0  0  0  0  0  0  0  0  0  0
  -89.7114   30.9586   -0.5119 O   0  0  0  0  0  0  0  0  0  0  0  0
  -88.7351   28.0720   -1.5334 H   0  0  0  0  0  0  0  0  0  0  0  0
  -88.2748   28.6299    0.4606 C   0  0  0  0  0  0  0  0  0  0  0  0
  -86.8046   28.7073    0.5191 C   0  0  0  0  0  0  0  0  0  0  0  0
  -86.1513   28.6963   -0.5531 O   0  0  0  0  0  0  0  0  0  0  0  0
  -86.0236   28.7952    1.7113 N   0  0  0  0  0  0  0  0  0  0  0  0
  -86.5192   28.7738    2.6042 H   0  0  0  0  0  0  0  0  0  0  0  0
  -84.6156   28.8778    1.6678 C   0  0  0  0  0  0  0  0  0  0  0  0
  -83.8883   27.7774    2.3516 C   0  0  0  0  0  0  0  0  0  0  0  0
  -82.4936   27.8404    2.6368 N   0  0  0  0  0  0  0  0  0  0  0  0
  -84.4979   26.7562    2.6931 O   0  0  0  0  0  0  0  0  0  0  0  0
  -81.7686   27.2051    2.2614 H   0  0  0  0  0  0  0  0  0  0  0  0
  -82.1685   28.5898    3.2770 H   0  0  0  0  0  0  0  0  0  0  0  0
  -84.0653   30.1810    2.1673 C   0  0  0  0  0  0  0  0  0  0  0  0
  -83.7498   31.1865    1.1342 C   0  0  0  0  0  0  0  0  0  0  0  0
  -82.4691   31.6053    0.8008 C   0  0  0  0  0  0  0  0  0  0  0  0
  -82.5777   32.5469   -0.1332 N   0  0  0  0  0  0  0  0  0  0  0  0
  -83.8691   32.7727   -0.4360 C   0  0  0  0  0  0  0  0  0  0  0  0
  -84.5107   33.6109   -1.3341 C   0  0  0  0  0  0  0  0  0  0  0  0
  -85.8715   33.6094   -1.4514 C   0  0  0  0  0  0  0  0  0  0  0  0
  -86.6724   32.7676   -0.6739 C   0  0  0  0  0  0  0  0  0  0  0  0
  -86.0113   31.9508    0.2053 C   0  0  0  0  0  0  0  0  0  0  0  0
  -84.6433   31.9229    0.3525 C   0  0  0  0  0  0  0  0  0  0  0  0
  -81.7568   33.0494   -0.5766 H   0  0  0  0  0  0  0  0  0  0  0  0
  -88.9041   27.5592    1.2750 C   0  0  0  0  0  0  0  0  0  0  0  0
  -91.3107   27.1008    0.8743 C   0  0  0  0  0  0  0  0  0  0  0  0
  -90.2367   27.6602    1.8282 C   0  0  0  0  0  0  0  0  0  0  0  0
  -90.5527   27.1782    3.1892 C   0  0  0  0  0  0  0  0  0  0  0  0
  -90.3672   31.4148   -3.1746 C   0  0  0  0  0  0  0  0  0  0  0  0
  -89.2522   32.1968   -3.7186 C   0  0  0  0  0  0  0  0  0  0  0  0
  -88.0674   31.6931   -4.2851 C   0  0  0  0  0  0  0  0  0  0  0  0
  -87.2532   32.6657   -4.6639 N   0  0  0  0  0  0  0  0  0  0  0  0
  -87.8599   33.8366   -4.3684 C   0  0  0  0  0  0  0  0  0  0  0  0
  -87.3903   35.1137   -4.6030 C   0  0  0  0  0  0  0  0  0  0  0  0
  -88.2020   36.1594   -4.2328 C   0  0  0  0  0  0  0  0  0  0  0  0
  -89.4321   35.9281   -3.6530 C   0  0  0  0  0  0  0  0  0  0  0  0
  -89.8846   34.6455   -3.4267 C   0  0  0  0  0  0  0  0  0  0  0  0
  -89.0947   33.5689   -3.7851 C   0  0  0  0  0  0  0  0  0  0  0  0
  -86.2928   32.5736   -5.1181 H   0  0  0  0  0  0  0  0  0  0  0  0
 60 61  1  0  0  0
 61 62  1  0  0  0
 61 59  1  0  0  0
 59 37  1  0  0  0
 37 33  1  0  0  0
 33 34  1  0  0  0
 34 35  2  0  0  0
 34  1  1  0  0  0
  1 63  1  0  0  0
 63 64  1  0  0  0
 64 65  2  0  0  0
 65 66  1  0  0  0
 66 67  1  0  0  0
 67 68  2  0  0  0
 68 69  1  0  0  0
 69 70  2  0  0  0
 70 71  1  0  0  0
 71 72  2  0  0  0
  1  2  1  0  0  0
  2  3  1  0  0  0
  3  4  2  0  0  0
  3  6  1  0  0  0
  6  7  1  0  0  0
  7  8  1  0  0  0
  8  9  2  0  0  0
  8 11  1  0  0  0
 11 12  1  0  0  0
 12 13  1  0  0  0
 13 14  1  0  0  0
 14 15  1  0  0  0
 15 16  1  0  0  0
 16 17  2  0  0  0
 16 18  1  0  0  0
 18 19  1  0  0  0
 18 22  1  0  0  0
 22 23  1  0  0  0
 23 24  1  0  0  0
 24 25  1  0  0  0
 25 27  1  0  0  0
 27 28  1  0  0  0
 27 29  2  0  0  0
 37 38  1  0  0  0
 38 39  2  0  0  0
 38 40  1  0  0  0
 40 42  1  0  0  0
 42 48  1  0  0  0
 48 49  1  0  0  0
 49 50  2  0  0  0
 50 51  1  0  0  0
 51 52  1  0  0  0
 52 53  2  0  0  0
 53 54  1  0  0  0
 54 55  2  0  0  0
 55 56  1  0  0  0
 56 57  2  0  0  0
 42 43  1  0  0  0
 43 44  1  0  0  0
 43 45  2  0  0  0
 72 64  1  0  0  0
 15 11  1  0  0  0
 57 49  1  0  0  0
 72 67  1  0  0  0
 57 52  1  0  0  0
 33 36  1  0  0  0
 66 73  1  0  0  0
  2  5  1  0  0  0
  7 10  1  0  0  0
 19 20  1  0  0  0
 19 21  1  0  0  0
 25 26  1  0  0  0
 28 30  1  0  0  0
 28 31  1  0  0  0
 29 32  1  0  0  0
 40 41  1  0  0  0
 51 58  1  0  0  0
 44 46  1  0  0  0
 44 47  1  0  0  0
M  END
> <minimizedAffinity>
-9.54392

> <CNNscore>
0.3112357259

> <CNNaffinity>
8.1697216034

> <CNN_VS>
2.5427093506

> <CNNaffinity_variance>
0.6273049116

$$$$
[H]N=C(N([H])[H])N([H])C([H])([H])C([H])([H])C([H])([H])[C@@]([H])(C(=O)N1C([H])([H])C([H])([H])C([H])([H])[C@@]1([H])C(=O)N([H])C([H])([H])C(=O)N([H])[C@]([H])(C(=O)N([H])[C@]([H])(C(=O)N([H])[C@]([H])(C(=O)N([H])[H])C([H])([H])c1c([H])n([H])c2c([H])c([H])c([H])c([H])c12)C([H])([H])C([H])(C([H])([H])[H])C([H])([H])[H])C([H])([H])c1c([H])n([H])c2c([H])c([H])c([H])c([H])c12)N([H])[H]


 73 77  0  0  0  0  0  0  0  0999 V2000
  -88.6767   26.7402    0.2045 C   0  0  0  0  0  0  0  0  0  0  0  0
  -89.6496   27.8174    0.1372 N   0  0  0  0  0  0  0  0  0  0  0  0
  -90.4221   27.9985   -1.0553 C   0  0  0  0  0  0  0  0  0  0  0  0
  -90.2858   27.2296   -2.0143 O   0  0  0  0  0  0  0  0  0  0  0  0
  -89.7752   28.4172    0.9681 H   0  0  0  0  0  0  0  0  0  0  0  0
  -91.3900   29.1252   -1.1373 C   0  0  0  0  0  0  0  0  0  0  0  0
  -91.6982   29.4188   -2.5418 N   0  0  0  0  0  0  0  0  0  0  0  0
  -91.3248   30.6395   -3.1520 C   0  0  0  0  0  0  0  0  0  0  0  0
  -90.6822   31.4720   -2.4426 O   0  0  0  0  0  0  0  0  0  0  0  0
  -92.2109   28.7213   -3.1167 H   0  0  0  0  0  0  0  0  0  0  0  0
  -91.6034   31.0525   -4.5331 C   0  0  0  0  0  0  0  0  0  0  0  0
  -91.6830   32.5112   -4.7686 C   0  0  0  0  0  0  0  0  0  0  0  0
  -93.1206   32.9038   -4.8151 C   0  0  0  0  0  0  0  0  0  0  0  0
  -93.8261   31.5624   -4.5442 C   0  0  0  0  0  0  0  0  0  0  0  0
  -92.9204   30.5601   -4.9967 N   0  0  0  0  0  0  0  0  0  0  0  0
  -93.0597   29.3618   -5.6663 C   0  0  0  0  0  0  0  0  0  0  0  0
  -92.0393   28.5899   -5.9054 O   0  0  0  0  0  0  0  0  0  0  0  0
  -94.3334   28.7334   -6.2195 C   0  0  0  0  0  0  0  0  0  0  0  0
  -94.5869   29.3400   -7.5116 N   0  0  0  0  0  0  0  0  0  0  0  0
  -95.3638   29.9791   -7.5770 H   0  0  0  0  0  0  0  0  0  0  0  0
  -93.8066   29.3751   -8.1531 H   0  0  0  0  0  0  0  0  0  0  0  0
  -94.1071   27.2699   -6.3947 C   0  0  0  0  0  0  0  0  0  0  0  0
  -94.8076   26.2523   -5.6456 C   0  0  0  0  0  0  0  0  0  0  0  0
  -94.6684   24.8115   -5.8020 C   0  0  0  0  0  0  0  0  0  0  0  0
  -94.3509   24.3489   -7.1256 N   0  0  0  0  0  0  0  0  0  0  0  0
  -93.4437   24.6700   -7.5677 H   0  0  0  0  0  0  0  0  0  0  0  0
  -95.2401   23.5174   -7.8711 C   0  0  0  0  0  0  0  0  0  0  0  0
  -94.7414   22.3201   -8.4488 N   0  0  0  0  0  0  0  0  0  0  0  0
  -96.4730   23.8633   -8.0031 N   0  0  0  0  0  0  0  0  0  0  0  0
  -95.4003   21.5682   -8.7572 H   0  0  0  0  0  0  0  0  0  0  0  0
  -93.7136   22.1978   -8.5652 H   0  0  0  0  0  0  0  0  0  0  0  0
  -96.7877   24.7502   -7.5576 H   0  0  0  0  0  0  0  0  0  0  0  0
  -89.8484   25.4663    2.0556 N   0  0  0  0  0  0  0  0  0  0  0  0
  -88.6939   26.1362    1.5551 C   0  0  0  0  0  0  0  0  0  0  0  0
  -87.6766   26.2278    2.2662 O   0  0  0  0  0  0  0  0  0  0  0  0
  -90.6596   25.4163    1.3871 H   0  0  0  0  0  0  0  0  0  0  0  0
  -90.0093   24.8636    3.3290 C   0  0  0  0  0  0  0  0  0  0  0  0
  -90.4773   23.4666    3.3116 C   0  0  0  0  0  0  0  0  0  0  0  0
  -91.6506   23.2129    3.6800 O   0  0  0  0  0  0  0  0  0  0  0  0
  -89.7049   22.3362    2.9058 N   0  0  0  0  0  0  0  0  0  0  0  0
  -88.7350   22.5001    2.6305 H   0  0  0  0  0  0  0  0  0  0  0  0
  -90.2443   21.0322    2.9112 C   0  0  0  0  0  0  0  0  0  0  0  0
  -89.5310   20.0479    3.7654 C   0  0  0  0  0  0  0  0  0  0  0  0
  -89.7418   18.6428    3.6568 N   0  0  0  0  0  0  0  0  0  0  0  0
  -88.7199   20.4423    4.6124 O   0  0  0  0  0  0  0  0  0  0  0  0
  -90.1190   18.0272    4.3976 H   0  0  0  0  0  0  0  0  0  0  0  0
  -89.4984   18.1898    2.7554 H   0  0  0  0  0  0  0  0  0  0  0  0
  -90.4057   20.4332    1.5452 C   0  0  0  0  0  0  0  0  0  0  0  0
  -91.3799   21.0997    0.6594 C   0  0  0  0  0  0  0  0  0  0  0  0
  -92.7361   20.8085    0.6116 C   0  0  0  0  0  0  0  0  0  0  0  0
  -93.2846   21.5718   -0.3304 N   0  0  0  0  0  0  0  0  0  0  0  0
  -92.3573   22.3561   -0.9096 C   0  0  0  0  0  0  0  0  0  0  0  0
  -92.4039   23.3240   -1.9005 C   0  0  0  0  0  0  0  0  0  0  0  0
  -91.2791   24.0000   -2.2792 C   0  0  0  0  0  0  0  0  0  0  0  0
  -90.0381   23.7456   -1.6879 C   0  0  0  0  0  0  0  0  0  0  0  0
  -90.0219   22.7838   -0.7122 C   0  0  0  0  0  0  0  0  0  0  0  0
  -91.1325   22.0817   -0.3030 C   0  0  0  0  0  0  0  0  0  0  0  0
  -94.3125   21.5615   -0.5876 H   0  0  0  0  0  0  0  0  0  0  0  0
  -90.5932   25.7335    4.3816 C   0  0  0  0  0  0  0  0  0  0  0  0
  -90.3065   28.1971    4.4846 C   0  0  0  0  0  0  0  0  0  0  0  0
  -89.8689   26.8159    5.0108 C   0  0  0  0  0  0  0  0  0  0  0  0
  -89.7421   26.9167    6.4799 C   0  0  0  0  0  0  0  0  0  0  0  0
  -87.3540   27.1473   -0.3103 C   0  0  0  0  0  0  0  0  0  0  0  0
  -86.9234   28.5416   -0.1644 C   0  0  0  0  0  0  0  0  0  0  0  0
  -87.2199   29.6097   -1.0302 C   0  0  0  0  0  0  0  0  0  0  0  0
  -86.6623   30.7394   -0.6236 N   0  0  0  0  0  0  0  0  0  0  0  0
  -85.9848   30.4674    0.5136 C   0  0  0  0  0  0  0  0  0  0  0  0
  -85.2659   31.3466    1.2990 C   0  0  0  0  0  0  0  0  0  0  0  0
  -84.6757   30.8387    2.4318 C   0  0  0  0  0  0  0  0  0  0  0  0
  -84.8051   29.5048    2.7586 C   0  0  0  0  0  0  0  0  0  0  0  0
  -85.5273   28.6417    1.9621 C   0  0  0  0  0  0  0  0  0  0  0  0
  -86.1340   29.1168    0.8142 C   0  0  0  0  0  0  0  0  0  0  0  0
  -86.7182   31.6986   -1.0861 H   0  0  0  0  0  0  0  0  0  0  0  0
 60 61  1  0  0  0
 61 62  1  0  0  0
 61 59  1  0  0  0
 59 37  1  0  0  0
 37 33  1  0  0  0
 33 34  1  0  0  0
 34 35  2  0  0  0
 34  1  1  0  0  0
  1 63  1  0  0  0
 63 64  1  0  0  0
 64 65  2  0  0  0
 65 66  1  0  0  0
 66 67  1  0  0  0
 67 68  2  0  0  0
 68 69  1  0  0  0
 69 70  2  0  0  0
 70 71  1  0  0  0
 71 72  2  0  0  0
  1  2  1  0  0  0
  2  3  1  0  0  0
  3  4  2  0  0  0
  3  6  1  0  0  0
  6  7  1  0  0  0
  7  8  1  0  0  0
  8  9  2  0  0  0
  8 11  1  0  0  0
 11 12  1  0  0  0
 12 13  1  0  0  0
 13 14  1  0  0  0
 14 15  1  0  0  0
 15 16  1  0  0  0
 16 17  2  0  0  0
 16 18  1  0  0  0
 18 19  1  0  0  0
 18 22  1  0  0  0
 22 23  1  0  0  0
 23 24  1  0  0  0
 24 25  1  0  0  0
 25 27  1  0  0  0
 27 28  1  0  0  0
 27 29  2  0  0  0
 37 38  1  0  0  0
 38 39  2  0  0  0
 38 40  1  0  0  0
 40 42  1  0  0  0
 42 48  1  0  0  0
 48 49  1  0  0  0
 49 50  2  0  0  0
 50 51  1  0  0  0
 51 52  1  0  0  0
 52 53  2  0  0  0
 53 54  1  0  0  0
 54 55  2  0  0  0
 55 56  1  0  0  0
 56 57  2  0  0  0
 42 43  1  0  0  0
 43 44  1  0  0  0
 43 45  2  0  0  0
 72 64  1  0  0  0
 15 11  1  0  0  0
 57 49  1  0  0  0
 72 67  1  0  0  0
 57 52  1  0  0  0
 33 36  1  0  0  0
 66 73  1  0  0  0
  2  5  1  0  0  0
  7 10  1  0  0  0
 19 20  1  0  0  0
 19 21  1  0  0  0
 25 26  1  0  0  0
 28 30  1  0  0  0
 28 31  1  0  0  0
 29 32  1  0  0  0
 40 41  1  0  0  0
 51 58  1  0  0  0
 44 46  1  0  0  0
 44 47  1  0  0  0
M  END
> <minimizedAffinity>
-9.20117

> <CNNscore>
0.1698072404

> <CNNaffinity>
7.0375275612

> <CNN_VS>
1.1950231791

> <CNNaffinity_variance>
1.2253587246

$$$$
[H]N=C(N([H])[H])N([H])C([H])([H])C([H])([H])C([H])([H])[C@@]([H])(C(=O)N1C([H])([H])C([H])([H])C([H])([H])[C@@]1([H])C(=O)N([H])C([H])([H])C(=O)N([H])[C@]([H])(C(=O)N([H])[C@]([H])(C(=O)N([H])[C@]([H])(C(=O)N([H])[H])C([H])([H])c1c([H])n([H])c2c([H])c([H])c([H])c([H])c12)C([H])([H])C([H])(C([H])([H])[H])C([H])([H])[H])C([H])([H])c1c([H])n([H])c2c([H])c([H])c([H])c([H])c12)N([H])[H]


 73 77  0  0  0  0  0  0  0  0999 V2000
  -86.7968   32.5191   -1.7223 C   0  0  0  0  0  0  0  0  0  0  0  0
  -87.4711   33.4890   -2.5685 N   0  0  0  0  0  0  0  0  0  0  0  0
  -87.7470   33.1632   -3.9357 C   0  0  0  0  0  0  0  0  0  0  0  0
  -87.4402   32.0551   -4.3911 O   0  0  0  0  0  0  0  0  0  0  0  0
  -87.7563   34.3894   -2.1512 H   0  0  0  0  0  0  0  0  0  0  0  0
  -88.4025   34.1714   -4.8113 C   0  0  0  0  0  0  0  0  0  0  0  0
  -87.5114   35.3216   -5.0041 N   0  0  0  0  0  0  0  0  0  0  0  0
  -87.6752   36.2246   -6.0810 C   0  0  0  0  0  0  0  0  0  0  0  0
  -88.6474   36.0197   -6.8696 O   0  0  0  0  0  0  0  0  0  0  0  0
  -86.7285   35.4875   -4.3413 H   0  0  0  0  0  0  0  0  0  0  0  0
  -86.8323   37.3867   -6.3887 C   0  0  0  0  0  0  0  0  0  0  0  0
  -85.8383   37.7564   -5.3567 C   0  0  0  0  0  0  0  0  0  0  0  0
  -86.3810   38.8986   -4.5668 C   0  0  0  0  0  0  0  0  0  0  0  0
  -87.7647   39.1022   -5.2105 C   0  0  0  0  0  0  0  0  0  0  0  0
  -87.6361   38.6201   -6.5449 N   0  0  0  0  0  0  0  0  0  0  0  0
  -88.1046   39.0379   -7.7736 C   0  0  0  0  0  0  0  0  0  0  0  0
  -87.8817   38.3542   -8.8585 O   0  0  0  0  0  0  0  0  0  0  0  0
  -88.9209   40.2838   -8.0975 C   0  0  0  0  0  0  0  0  0  0  0  0
  -88.9405   40.4227   -9.5405 N   0  0  0  0  0  0  0  0  0  0  0  0
  -88.3998   41.1744   -9.9391 H   0  0  0  0  0  0  0  0  0  0  0  0
  -89.1830   39.5959  -10.0688 H   0  0  0  0  0  0  0  0  0  0  0  0
  -90.3124   40.0862   -7.5994 C   0  0  0  0  0  0  0  0  0  0  0  0
  -91.4799   40.0932   -8.4504 C   0  0  0  0  0  0  0  0  0  0  0  0
  -92.4147   38.9944   -8.6476 C   0  0  0  0  0  0  0  0  0  0  0  0
  -92.1438   38.1289   -9.7629 N   0  0  0  0  0  0  0  0  0  0  0  0
  -92.9113   37.9688  -10.4750 H   0  0  0  0  0  0  0  0  0  0  0  0
  -90.8979   37.4473   -9.9078 C   0  0  0  0  0  0  0  0  0  0  0  0
  -90.0514   37.7839  -10.9969 N   0  0  0  0  0  0  0  0  0  0  0  0
  -90.5630   36.5465   -9.0512 N   0  0  0  0  0  0  0  0  0  0  0  0
  -89.0405   37.5147  -10.9830 H   0  0  0  0  0  0  0  0  0  0  0  0
  -90.4463   38.2995  -11.8113 H   0  0  0  0  0  0  0  0  0  0  0  0
  -91.2194   36.3394   -8.2700 H   0  0  0  0  0  0  0  0  0  0  0  0
  -87.4645   30.0769   -1.6118 N   0  0  0  0  0  0  0  0  0  0  0  0
  -87.7432   31.4481   -1.3393 C   0  0  0  0  0  0  0  0  0  0  0  0
  -88.8074   31.7615   -0.7753 O   0  0  0  0  0  0  0  0  0  0  0  0
  -86.5370   29.8939   -2.0742 H   0  0  0  0  0  0  0  0  0  0  0  0
  -88.2846   28.9575   -1.3202 C   0  0  0  0  0  0  0  0  0  0  0  0
  -89.4120   28.7432   -2.2443 C   0  0  0  0  0  0  0  0  0  0  0  0
  -89.2885   27.9055   -3.1715 O   0  0  0  0  0  0  0  0  0  0  0  0
  -90.6708   29.4151   -2.1897 N   0  0  0  0  0  0  0  0  0  0  0  0
  -90.7961   30.1272   -1.4683 H   0  0  0  0  0  0  0  0  0  0  0  0
  -91.6992   29.1338   -3.1141 C   0  0  0  0  0  0  0  0  0  0  0  0
  -92.3334   30.3193   -3.7466 C   0  0  0  0  0  0  0  0  0  0  0  0
  -92.6330   31.5081   -3.0203 N   0  0  0  0  0  0  0  0  0  0  0  0
  -92.6232   30.2935   -4.9492 O   0  0  0  0  0  0  0  0  0  0  0  0
  -93.5766   31.9032   -2.8668 H   0  0  0  0  0  0  0  0  0  0  0  0
  -91.8377   32.0288   -2.6038 H   0  0  0  0  0  0  0  0  0  0  0  0
  -92.7884   28.2589   -2.5674 C   0  0  0  0  0  0  0  0  0  0  0  0
  -92.7363   26.8388   -2.9657 C   0  0  0  0  0  0  0  0  0  0  0  0
  -93.4264   26.2908   -4.0380 C   0  0  0  0  0  0  0  0  0  0  0  0
  -93.1734   24.9845   -4.0616 N   0  0  0  0  0  0  0  0  0  0  0  0
  -92.3480   24.6396   -3.0565 C   0  0  0  0  0  0  0  0  0  0  0  0
  -91.7712   23.4444   -2.6571 C   0  0  0  0  0  0  0  0  0  0  0  0
  -90.9259   23.3929   -1.5855 C   0  0  0  0  0  0  0  0  0  0  0  0
  -90.6084   24.5373   -0.8478 C   0  0  0  0  0  0  0  0  0  0  0  0
  -91.1933   25.7039   -1.2649 C   0  0  0  0  0  0  0  0  0  0  0  0
  -92.0491   25.7966   -2.3386 C   0  0  0  0  0  0  0  0  0  0  0  0
  -93.5696   24.3096   -4.7761 H   0  0  0  0  0  0  0  0  0  0  0  0
  -88.5688   28.7276    0.1191 C   0  0  0  0  0  0  0  0  0  0  0  0
  -87.4588   26.5109   -0.0093 C   0  0  0  0  0  0  0  0  0  0  0  0
  -88.4104   27.4436    0.7658 C   0  0  0  0  0  0  0  0  0  0  0  0
  -88.0757   27.3313    2.2010 C   0  0  0  0  0  0  0  0  0  0  0  0
  -86.0558   33.1595   -0.6172 C   0  0  0  0  0  0  0  0  0  0  0  0
  -84.7993   32.5627   -0.1529 C   0  0  0  0  0  0  0  0  0  0  0  0
  -83.4977   33.0217   -0.4244 C   0  0  0  0  0  0  0  0  0  0  0  0
  -82.5790   32.2454    0.1285 N   0  0  0  0  0  0  0  0  0  0  0  0
  -83.2279   31.2556    0.7809 C   0  0  0  0  0  0  0  0  0  0  0  0
  -82.6759   30.2264    1.5177 C   0  0  0  0  0  0  0  0  0  0  0  0
  -83.5452   29.3444    2.1142 C   0  0  0  0  0  0  0  0  0  0  0  0
  -84.9094   29.4935    1.9749 C   0  0  0  0  0  0  0  0  0  0  0  0
  -85.4425   30.5278    1.2353 C   0  0  0  0  0  0  0  0  0  0  0  0
  -84.5987   31.4338    0.6200 C   0  0  0  0  0  0  0  0  0  0  0  0
  -81.5192   32.3543    0.0837 H   0  0  0  0  0  0  0  0  0  0  0  0
 60 61  1  0  0  0
 61 62  1  0  0  0
 61 59  1  0  0  0
 59 37  1  0  0  0
 37 33  1  0  0  0
 33 34  1  0  0  0
 34 35  2  0  0  0
 34  1  1  0  0  0
  1 63  1  0  0  0
 63 64  1  0  0  0
 64 65  2  0  0  0
 65 66  1  0  0  0
 66 67  1  0  0  0
 67 68  2  0  0  0
 68 69  1  0  0  0
 69 70  2  0  0  0
 70 71  1  0  0  0
 71 72  2  0  0  0
  1  2  1  0  0  0
  2  3  1  0  0  0
  3  4  2  0  0  0
  3  6  1  0  0  0
  6  7  1  0  0  0
  7  8  1  0  0  0
  8  9  2  0  0  0
  8 11  1  0  0  0
 11 12  1  0  0  0
 12 13  1  0  0  0
 13 14  1  0  0  0
 14 15  1  0  0  0
 15 16  1  0  0  0
 16 17  2  0  0  0
 16 18  1  0  0  0
 18 19  1  0  0  0
 18 22  1  0  0  0
 22 23  1  0  0  0
 23 24  1  0  0  0
 24 25  1  0  0  0
 25 27  1  0  0  0
 27 28  1  0  0  0
 27 29  2  0  0  0
 37 38  1  0  0  0
 38 39  2  0  0  0
 38 40  1  0  0  0
 40 42  1  0  0  0
 42 48  1  0  0  0
 48 49  1  0  0  0
 49 50  2  0  0  0
 50 51  1  0  0  0
 51 52  1  0  0  0
 52 53  2  0  0  0
 53 54  1  0  0  0
 54 55  2  0  0  0
 55 56  1  0  0  0
 56 57  2  0  0  0
 42 43  1  0  0  0
 43 44  1  0  0  0
 43 45  2  0  0  0
 72 64  1  0  0  0
 15 11  1  0  0  0
 57 49  1  0  0  0
 72 67  1  0  0  0
 57 52  1  0  0  0
 33 36  1  0  0  0
 66 73  1  0  0  0
  2  5  1  0  0  0
  7 10  1  0  0  0
 19 20  1  0  0  0
 19 21  1  0  0  0
 25 26  1  0  0  0
 28 30  1  0  0  0
 28 31  1  0  0  0
 29 32  1  0  0  0
 40 41  1  0  0  0
 51 58  1  0  0  0
 44 46  1  0  0  0
 44 47  1  0  0  0
M  END
> <minimizedAffinity>
-8.07735

> <CNNscore>
0.1534174234

> <CNNaffinity>
7.2123780251

> <CNN_VS>
1.1065044403

> <CNNaffinity_variance>
0.5328443050

$$$$
[H]N=C(N([H])[H])N([H])C([H])([H])C([H])([H])C([H])([H])[C@@]([H])(C(=O)N1C([H])([H])C([H])([H])C([H])([H])[C@@]1([H])C(=O)N([H])C([H])([H])C(=O)N([H])[C@]([H])(C(=O)N([H])[C@]([H])(C(=O)N([H])[C@]([H])(C(=O)N([H])[H])C([H])([H])c1c([H])n([H])c2c([H])c([H])c([H])c([H])c12)C([H])([H])C([H])(C([H])([H])[H])C([H])([H])[H])C([H])([H])c1c([H])n([H])c2c([H])c([H])c([H])c([H])c12)N([H])[H]


 73 77  0  0  0  0  0  0  0  0999 V2000
  -88.7147   31.1240   -1.5672 C   0  0  0  0  0  0  0  0  0  0  0  0
  -89.1260   31.7035   -2.8347 N   0  0  0  0  0  0  0  0  0  0  0  0
  -88.6036   31.1715   -4.0576 C   0  0  0  0  0  0  0  0  0  0  0  0
  -87.8286   30.2078   -4.0425 O   0  0  0  0  0  0  0  0  0  0  0  0
  -89.8084   32.4781   -2.8211 H   0  0  0  0  0  0  0  0  0  0  0  0
  -88.9952   31.7905   -5.3523 C   0  0  0  0  0  0  0  0  0  0  0  0
  -89.5279   33.1384   -5.1216 N   0  0  0  0  0  0  0  0  0  0  0  0
  -90.9144   33.4157   -5.1735 C   0  0  0  0  0  0  0  0  0  0  0  0
  -91.6944   32.4419   -5.4024 O   0  0  0  0  0  0  0  0  0  0  0  0
  -88.8791   33.9244   -4.9188 H   0  0  0  0  0  0  0  0  0  0  0  0
  -91.5561   34.7233   -4.9891 C   0  0  0  0  0  0  0  0  0  0  0  0
  -93.0288   34.7068   -4.8466 C   0  0  0  0  0  0  0  0  0  0  0  0
  -93.6339   35.0744   -6.1588 C   0  0  0  0  0  0  0  0  0  0  0  0
  -92.3880   35.2515   -7.0457 C   0  0  0  0  0  0  0  0  0  0  0  0
  -91.3364   35.6102   -6.1540 N   0  0  0  0  0  0  0  0  0  0  0  0
  -90.2796   36.4954   -6.2112 C   0  0  0  0  0  0  0  0  0  0  0  0
  -89.4061   36.5799   -5.2499 O   0  0  0  0  0  0  0  0  0  0  0  0
  -89.9330   37.4795   -7.3224 C   0  0  0  0  0  0  0  0  0  0  0  0
  -90.1327   38.8144   -6.7933 N   0  0  0  0  0  0  0  0  0  0  0  0
  -90.9231   39.3350   -7.1405 H   0  0  0  0  0  0  0  0  0  0  0  0
  -89.7131   39.0096   -5.8947 H   0  0  0  0  0  0  0  0  0  0  0  0
  -88.4987   37.3008   -7.6889 C   0  0  0  0  0  0  0  0  0  0  0  0
  -87.5611   38.3917   -7.8238 C   0  0  0  0  0  0  0  0  0  0  0  0
  -87.0811   39.2584   -6.7568 C   0  0  0  0  0  0  0  0  0  0  0  0
  -87.0831   38.6918   -5.4356 N   0  0  0  0  0  0  0  0  0  0  0  0
  -87.8286   39.0074   -4.7528 H   0  0  0  0  0  0  0  0  0  0  0  0
  -86.0873   37.7623   -5.0085 C   0  0  0  0  0  0  0  0  0  0  0  0
  -84.7365   38.1911   -4.9235 N   0  0  0  0  0  0  0  0  0  0  0  0
  -86.4296   36.5588   -4.7057 N   0  0  0  0  0  0  0  0  0  0  0  0
  -84.0415   37.6404   -4.3681 H   0  0  0  0  0  0  0  0  0  0  0  0
  -84.4426   39.0577   -5.4211 H   0  0  0  0  0  0  0  0  0  0  0  0
  -87.4342   36.2966   -4.7833 H   0  0  0  0  0  0  0  0  0  0  0  0
  -90.9938   30.0338   -1.7665 N   0  0  0  0  0  0  0  0  0  0  0  0
  -89.8168   30.3084   -1.0107 C   0  0  0  0  0  0  0  0  0  0  0  0
  -89.7088   29.8642    0.1469 O   0  0  0  0  0  0  0  0  0  0  0  0
  -90.9998   30.4296   -2.7415 H   0  0  0  0  0  0  0  0  0  0  0  0
  -92.1276   29.2891   -1.3535 C   0  0  0  0  0  0  0  0  0  0  0  0
  -91.9361   27.8295   -1.2917 C   0  0  0  0  0  0  0  0  0  0  0  0
  -92.3389   27.1216   -2.2474 O   0  0  0  0  0  0  0  0  0  0  0  0
  -91.3194   27.1168   -0.2190 N   0  0  0  0  0  0  0  0  0  0  0  0
  -91.0085   27.6564    0.5906 H   0  0  0  0  0  0  0  0  0  0  0  0
  -91.1686   25.7141   -0.2541 C   0  0  0  0  0  0  0  0  0  0  0  0
  -91.3006   25.0232    1.0546 C   0  0  0  0  0  0  0  0  0  0  0  0
  -91.9744   23.7760    1.1992 N   0  0  0  0  0  0  0  0  0  0  0  0
  -90.8159   25.5345    2.0717 O   0  0  0  0  0  0  0  0  0  0  0  0
  -92.8235   23.6077    1.7657 H   0  0  0  0  0  0  0  0  0  0  0  0
  -91.5846   22.9588    0.6920 H   0  0  0  0  0  0  0  0  0  0  0  0
  -89.8942   25.2535   -0.8978 C   0  0  0  0  0  0  0  0  0  0  0  0
  -88.8805   26.2979   -1.1420 C   0  0  0  0  0  0  0  0  0  0  0  0
  -88.6745   26.9334   -2.3586 C   0  0  0  0  0  0  0  0  0  0  0  0
  -87.6548   27.7756   -2.2118 N   0  0  0  0  0  0  0  0  0  0  0  0
  -87.1744   27.7298   -0.9558 C   0  0  0  0  0  0  0  0  0  0  0  0
  -86.1624   28.4045   -0.2913 C   0  0  0  0  0  0  0  0  0  0  0  0
  -85.9077   28.1696    1.0299 C   0  0  0  0  0  0  0  0  0  0  0  0
  -86.6519   27.2423    1.7653 C   0  0  0  0  0  0  0  0  0  0  0  0
  -87.6449   26.5901    1.0828 C   0  0  0  0  0  0  0  0  0  0  0  0
  -87.9323   26.7991   -0.2467 C   0  0  0  0  0  0  0  0  0  0  0  0
  -87.2744   28.3969   -2.9814 H   0  0  0  0  0  0  0  0  0  0  0  0
  -93.4313   29.7532   -1.8926 C   0  0  0  0  0  0  0  0  0  0  0  0
  -93.7949   29.7208   -4.3480 C   0  0  0  0  0  0  0  0  0  0  0  0
  -93.5557   30.5669   -3.0819 C   0  0  0  0  0  0  0  0  0  0  0  0
  -94.4708   31.7261   -3.1393 C   0  0  0  0  0  0  0  0  0  0  0  0
  -88.1232   32.1266   -0.6587 C   0  0  0  0  0  0  0  0  0  0  0  0
  -86.7380   32.5596   -0.8694 C   0  0  0  0  0  0  0  0  0  0  0  0
  -86.2594   33.3749   -1.9109 C   0  0  0  0  0  0  0  0  0  0  0  0
  -84.9520   33.5633   -1.8245 N   0  0  0  0  0  0  0  0  0  0  0  0
  -84.5194   32.8902   -0.7354 C   0  0  0  0  0  0  0  0  0  0  0  0
  -83.2309   32.8178   -0.2442 C   0  0  0  0  0  0  0  0  0  0  0  0
  -83.0358   32.0841    0.9018 C   0  0  0  0  0  0  0  0  0  0  0  0
  -84.0921   31.4526    1.5249 C   0  0  0  0  0  0  0  0  0  0  0  0
  -85.3722   31.5364    1.0198 C   0  0  0  0  0  0  0  0  0  0  0  0
  -85.6062   32.2648   -0.1318 C   0  0  0  0  0  0  0  0  0  0  0  0
  -84.3298   34.1325   -2.4771 H   0  0  0  0  0  0  0  0  0  0  0  0
 60 61  1  0  0  0
 61 62  1  0  0  0
 61 59  1  0  0  0
 59 37  1  0  0  0
 37 33  1  0  0  0
 33 34  1  0  0  0
 34 35  2  0  0  0
 34  1  1  0  0  0
  1 63  1  0  0  0
 63 64  1  0  0  0
 64 65  2  0  0  0
 65 66  1  0  0  0
 66 67  1  0  0  0
 67 68  2  0  0  0
 68 69  1  0  0  0
 69 70  2  0  0  0
 70 71  1  0  0  0
 71 72  2  0  0  0
  1  2  1  0  0  0
  2  3  1  0  0  0
  3  4  2  0  0  0
  3  6  1  0  0  0
  6  7  1  0  0  0
  7  8  1  0  0  0
  8  9  2  0  0  0
  8 11  1  0  0  0
 11 12  1  0  0  0
 12 13  1  0  0  0
 13 14  1  0  0  0
 14 15  1  0  0  0
 15 16  1  0  0  0
 16 17  2  0  0  0
 16 18  1  0  0  0
 18 19  1  0  0  0
 18 22  1  0  0  0
 22 23  1  0  0  0
 23 24  1  0  0  0
 24 25  1  0  0  0
 25 27  1  0  0  0
 27 28  1  0  0  0
 27 29  2  0  0  0
 37 38  1  0  0  0
 38 39  2  0  0  0
 38 40  1  0  0  0
 40 42  1  0  0  0
 42 48  1  0  0  0
 48 49  1  0  0  0
 49 50  2  0  0  0
 50 51  1  0  0  0
 51 52  1  0  0  0
 52 53  2  0  0  0
 53 54  1  0  0  0
 54 55  2  0  0  0
 55 56  1  0  0  0
 56 57  2  0  0  0
 42 43  1  0  0  0
 43 44  1  0  0  0
 43 45  2  0  0  0
 72 64  1  0  0  0
 15 11  1  0  0  0
 57 49  1  0  0  0
 72 67  1  0  0  0
 57 52  1  0  0  0
 33 36  1  0  0  0
 66 73  1  0  0  0
  2  5  1  0  0  0
  7 10  1  0  0  0
 19 20  1  0  0  0
 19 21  1  0  0  0
 25 26  1  0  0  0
 28 30  1  0  0  0
 28 31  1  0  0  0
 29 32  1  0  0  0
 40 41  1  0  0  0
 51 58  1  0  0  0
 44 46  1  0  0  0
 44 47  1  0  0  0
M  END
> <minimizedAffinity>
-8.03376

> <CNNscore>
0.1402897239

> <CNNaffinity>
7.4239220619

> <CNN_VS>
1.0414999723

> <CNNaffinity_variance>
1.0210816860

$$$$
[H]N=C(N([H])[H])N([H])C([H])([H])C([H])([H])C([H])([H])[C@@]([H])(C(=O)N1C([H])([H])C([H])([H])C([H])([H])[C@@]1([H])C(=O)N([H])C([H])([H])C(=O)N([H])[C@]([H])(C(=O)N([H])[C@]([H])(C(=O)N([H])[C@]([H])(C(=O)N([H])[H])C([H])([H])c1c([H])n([H])c2c([H])c([H])c([H])c([H])c12)C([H])([H])C([H])(C([H])([H])[H])C([H])([H])[H])C([H])([H])c1c([H])n([H])c2c([H])c([H])c([H])c([H])c12)N([H])[H]


 73 77  0  0  0  0  0  0  0  0999 V2000
  -88.2870   30.8340   -1.7004 C   0  0  0  0  0  0  0  0  0  0  0  0
  -88.6467   31.8310   -2.6944 N   0  0  0  0  0  0  0  0  0  0  0  0
  -88.3246   31.6044   -4.0714 C   0  0  0  0  0  0  0  0  0  0  0  0
  -87.7685   30.5567   -4.4218 O   0  0  0  0  0  0  0  0  0  0  0  0
  -89.1501   32.6763   -2.3810 H   0  0  0  0  0  0  0  0  0  0  0  0
  -88.6586   32.6430   -5.0826 C   0  0  0  0  0  0  0  0  0  0  0  0
  -88.8441   33.9413   -4.4239 N   0  0  0  0  0  0  0  0  0  0  0  0
  -90.0483   34.6753   -4.5394 C   0  0  0  0  0  0  0  0  0  0  0  0
  -90.9846   34.1542   -5.2182 O   0  0  0  0  0  0  0  0  0  0  0  0
  -88.0748   34.3496   -3.8571 H   0  0  0  0  0  0  0  0  0  0  0  0
  -90.3353   35.9899   -3.9521 C   0  0  0  0  0  0  0  0  0  0  0  0
  -91.7250   36.4758   -4.1016 C   0  0  0  0  0  0  0  0  0  0  0  0
  -91.7658   37.4483   -5.2310 C   0  0  0  0  0  0  0  0  0  0  0  0
  -90.3062   37.4293   -5.7207 C   0  0  0  0  0  0  0  0  0  0  0  0
  -89.5305   37.0597   -4.5844 N   0  0  0  0  0  0  0  0  0  0  0  0
  -88.3104   37.4555   -4.0759 C   0  0  0  0  0  0  0  0  0  0  0  0
  -87.7929   36.8908   -3.0235 O   0  0  0  0  0  0  0  0  0  0  0  0
  -87.3805   38.5450   -4.5969 C   0  0  0  0  0  0  0  0  0  0  0  0
  -86.9263   39.3080   -3.4509 N   0  0  0  0  0  0  0  0  0  0  0  0
  -87.2902   40.2421   -3.3448 H   0  0  0  0  0  0  0  0  0  0  0  0
  -86.5744   38.7758   -2.6669 H   0  0  0  0  0  0  0  0  0  0  0  0
  -86.2103   37.8988   -5.2577 C   0  0  0  0  0  0  0  0  0  0  0  0
  -85.4766   38.4908   -6.3525 C   0  0  0  0  0  0  0  0  0  0  0  0
  -84.2721   39.3023   -6.2495 C   0  0  0  0  0  0  0  0  0  0  0  0
  -83.0461   38.5853   -6.0274 N   0  0  0  0  0  0  0  0  0  0  0  0
  -82.8604   37.7144   -6.6007 H   0  0  0  0  0  0  0  0  0  0  0  0
  -82.1054   38.9838   -5.0303 C   0  0  0  0  0  0  0  0  0  0  0  0
  -80.9557   38.1808   -4.8083 N   0  0  0  0  0  0  0  0  0  0  0  0
  -82.3125   40.0603   -4.3555 N   0  0  0  0  0  0  0  0  0  0  0  0
  -80.1296   38.5707   -4.2982 H   0  0  0  0  0  0  0  0  0  0  0  0
  -80.9427   37.1989   -5.1557 H   0  0  0  0  0  0  0  0  0  0  0  0
  -83.1704   40.6139   -4.5593 H   0  0  0  0  0  0  0  0  0  0  0  0
  -90.0498   29.3009   -2.6825 N   0  0  0  0  0  0  0  0  0  0  0  0
  -89.3904   29.8599   -1.5490 C   0  0  0  0  0  0  0  0  0  0  0  0
  -89.7499   29.5341   -0.4029 O   0  0  0  0  0  0  0  0  0  0  0  0
  -89.6753   29.6133   -3.6150 H   0  0  0  0  0  0  0  0  0  0  0  0
  -91.1272   28.3790   -2.6835 C   0  0  0  0  0  0  0  0  0  0  0  0
  -90.7630   26.9821   -2.3886 C   0  0  0  0  0  0  0  0  0  0  0  0
  -90.3794   26.2417   -3.3273 O   0  0  0  0  0  0  0  0  0  0  0  0
  -90.8052   26.3662   -1.1009 N   0  0  0  0  0  0  0  0  0  0  0  0
  -91.1435   26.9287   -0.3184 H   0  0  0  0  0  0  0  0  0  0  0  0
  -90.4243   25.0206   -0.9127 C   0  0  0  0  0  0  0  0  0  0  0  0
  -91.5038   24.1076   -0.4558 C   0  0  0  0  0  0  0  0  0  0  0  0
  -91.4289   22.6931   -0.6103 N   0  0  0  0  0  0  0  0  0  0  0  0
  -92.5172   24.5732    0.0801 O   0  0  0  0  0  0  0  0  0  0  0  0
  -92.0719   22.1097   -1.1727 H   0  0  0  0  0  0  0  0  0  0  0  0
  -90.6616   22.1970   -0.1181 H   0  0  0  0  0  0  0  0  0  0  0  0
  -89.2461   24.8418   -0.0014 C   0  0  0  0  0  0  0  0  0  0  0  0
  -89.0173   25.9227    0.9771 C   0  0  0  0  0  0  0  0  0  0  0  0
  -88.1430   26.9851    0.7944 C   0  0  0  0  0  0  0  0  0  0  0  0
  -88.1672   27.7281    1.8981 N   0  0  0  0  0  0  0  0  0  0  0  0
  -89.0162   27.2100    2.8042 C   0  0  0  0  0  0  0  0  0  0  0  0
  -89.4181   27.5977    4.0727 C   0  0  0  0  0  0  0  0  0  0  0  0
  -90.3429   26.8747    4.7710 C   0  0  0  0  0  0  0  0  0  0  0  0
  -90.9204   25.7175    4.2401 C   0  0  0  0  0  0  0  0  0  0  0  0
  -90.5040   25.3580    2.9853 C   0  0  0  0  0  0  0  0  0  0  0  0
  -89.5757   26.0595    2.2504 C   0  0  0  0  0  0  0  0  0  0  0  0
  -87.5944   28.6081    2.0414 H   0  0  0  0  0  0  0  0  0  0  0  0
  -92.1401   28.5769   -3.7513 C   0  0  0  0  0  0  0  0  0  0  0  0
  -93.4025   30.3272   -2.5244 C   0  0  0  0  0  0  0  0  0  0  0  0
  -92.9284   29.7822   -3.8861 C   0  0  0  0  0  0  0  0  0  0  0  0
  -92.4614   30.9314   -4.6897 C   0  0  0  0  0  0  0  0  0  0  0  0
  -87.7800   31.4430   -0.4544 C   0  0  0  0  0  0  0  0  0  0  0  0
  -86.3828   31.8830   -0.3855 C   0  0  0  0  0  0  0  0  0  0  0  0
  -85.8317   33.0334   -0.9780 C   0  0  0  0  0  0  0  0  0  0  0  0
  -84.5330   33.1325   -0.7413 N   0  0  0  0  0  0  0  0  0  0  0  0
  -84.1782   32.0660    0.0090 C   0  0  0  0  0  0  0  0  0  0  0  0
  -82.9269   31.7642    0.5091 C   0  0  0  0  0  0  0  0  0  0  0  0
  -82.8130   30.6265    1.2720 C   0  0  0  0  0  0  0  0  0  0  0  0
  -83.9111   29.8294    1.5204 C   0  0  0  0  0  0  0  0  0  0  0  0
  -85.1530   30.1469    1.0128 C   0  0  0  0  0  0  0  0  0  0  0  0
  -85.3054   31.2832    0.2401 C   0  0  0  0  0  0  0  0  0  0  0  0
  -83.8661   33.8973   -1.0689 H   0  0  0  0  0  0  0  0  0  0  0  0
 60 61  1  0  0  0
 61 62  1  0  0  0
 61 59  1  0  0  0
 59 37  1  0  0  0
 37 33  1  0  0  0
 33 34  1  0  0  0
 34 35  2  0  0  0
 34  1  1  0  0  0
  1 63  1  0  0  0
 63 64  1  0  0  0
 64 65  2  0  0  0
 65 66  1  0  0  0
 66 67  1  0  0  0
 67 68  2  0  0  0
 68 69  1  0  0  0
 69 70  2  0  0  0
 70 71  1  0  0  0
 71 72  2  0  0  0
  1  2  1  0  0  0
  2  3  1  0  0  0
  3  4  2  0  0  0
  3  6  1  0  0  0
  6  7  1  0  0  0
  7  8  1  0  0  0
  8  9  2  0  0  0
  8 11  1  0  0  0
 11 12  1  0  0  0
 12 13  1  0  0  0
 13 14  1  0  0  0
 14 15  1  0  0  0
 15 16  1  0  0  0
 16 17  2  0  0  0
 16 18  1  0  0  0
 18 19  1  0  0  0
 18 22  1  0  0  0
 22 23  1  0  0  0
 23 24  1  0  0  0
 24 25  1  0  0  0
 25 27  1  0  0  0
 27 28  1  0  0  0
 27 29  2  0  0  0
 37 38  1  0  0  0
 38 39  2  0  0  0
 38 40  1  0  0  0
 40 42  1  0  0  0
 42 48  1  0  0  0
 48 49  1  0  0  0
 49 50  2  0  0  0
 50 51  1  0  0  0
 51 52  1  0  0  0
 52 53  2  0  0  0
 53 54  1  0  0  0
 54 55  2  0  0  0
 55 56  1  0  0  0
 56 57  2  0  0  0
 42 43  1  0  0  0
 43 44  1  0  0  0
 43 45  2  0  0  0
 72 64  1  0  0  0
 15 11  1  0  0  0
 57 49  1  0  0  0
 72 67  1  0  0  0
 57 52  1  0  0  0
 33 36  1  0  0  0
 66 73  1  0  0  0
  2  5  1  0  0  0
  7 10  1  0  0  0
 19 20  1  0  0  0
 19 21  1  0  0  0
 25 26  1  0  0  0
 28 30  1  0  0  0
 28 31  1  0  0  0
 29 32  1  0  0  0
 40 41  1  0  0  0
 51 58  1  0  0  0
 44 46  1  0  0  0
 44 47  1  0  0  0
M  END
> <minimizedAffinity>
-8.86109

> <CNNscore>
0.1196990609

> <CNNaffinity>
7.3873734474

> <CNN_VS>
0.8842616677

> <CNNaffinity_variance>
0.8648651242

$$$$
[H]N=C(N([H])[H])N([H])C([H])([H])C([H])([H])C([H])([H])[C@@]([H])(C(=O)N1C([H])([H])C([H])([H])C([H])([H])[C@@]1([H])C(=O)N([H])C([H])([H])C(=O)N([H])[C@]([H])(C(=O)N([H])[C@]([H])(C(=O)N([H])[C@]([H])(C(=O)N([H])[H])C([H])([H])c1c([H])n([H])c2c([H])c([H])c([H])c([H])c12)C([H])([H])C([H])(C([H])([H])[H])C([H])([H])[H])C([H])([H])c1c([H])n([H])c2c([H])c([H])c([H])c([H])c12)N([H])[H]


 73 77  0  0  0  0  0  0  0  0999 V2000
  -88.5655   31.6002   -1.4830 C   0  0  0  0  0  0  0  0  0  0  0  0
  -87.8567   30.3323   -1.5201 N   0  0  0  0  0  0  0  0  0  0  0  0
  -88.1762   29.3158   -0.5630 C   0  0  0  0  0  0  0  0  0  0  0  0
  -89.0673   29.5001    0.2746 O   0  0  0  0  0  0  0  0  0  0  0  0
  -87.1486   30.1878   -2.2575 H   0  0  0  0  0  0  0  0  0  0  0  0
  -87.4232   28.0330   -0.5775 C   0  0  0  0  0  0  0  0  0  0  0  0
  -88.3569   26.9059   -0.6863 N   0  0  0  0  0  0  0  0  0  0  0  0
  -89.2333   26.7621   -1.7877 C   0  0  0  0  0  0  0  0  0  0  0  0
  -89.1653   27.6370   -2.7037 O   0  0  0  0  0  0  0  0  0  0  0  0
  -88.3911   26.1870    0.0632 H   0  0  0  0  0  0  0  0  0  0  0  0
  -90.2247   25.6978   -1.9882 C   0  0  0  0  0  0  0  0  0  0  0  0
  -91.2019   25.9207   -3.0767 C   0  0  0  0  0  0  0  0  0  0  0  0
  -92.4767   26.4055   -2.4742 C   0  0  0  0  0  0  0  0  0  0  0  0
  -92.1161   26.4753   -0.9791 C   0  0  0  0  0  0  0  0  0  0  0  0
  -91.0805   25.5146   -0.7941 N   0  0  0  0  0  0  0  0  0  0  0  0
  -90.7731   24.6018    0.1938 C   0  0  0  0  0  0  0  0  0  0  0  0
  -89.6992   23.8686    0.1367 O   0  0  0  0  0  0  0  0  0  0  0  0
  -91.5571   24.2854    1.4621 C   0  0  0  0  0  0  0  0  0  0  0  0
  -92.2325   23.0208    1.2469 N   0  0  0  0  0  0  0  0  0  0  0  0
  -93.2331   23.0466    1.1270 H   0  0  0  0  0  0  0  0  0  0  0  0
  -91.6672   22.2645    0.8865 H   0  0  0  0  0  0  0  0  0  0  0  0
  -90.5975   24.1485    2.5953 C   0  0  0  0  0  0  0  0  0  0  0  0
  -90.8143   24.7164    3.9060 C   0  0  0  0  0  0  0  0  0  0  0  0
  -90.1683   25.9001    4.4548 C   0  0  0  0  0  0  0  0  0  0  0  0
  -90.9423   27.1112    4.4258 N   0  0  0  0  0  0  0  0  0  0  0  0
  -91.6018   27.3074    5.2309 H   0  0  0  0  0  0  0  0  0  0  0  0
  -90.8830   28.0221    3.3282 C   0  0  0  0  0  0  0  0  0  0  0  0
  -90.0473   27.7143    2.2224 N   0  0  0  0  0  0  0  0  0  0  0  0
  -91.5871   29.0994    3.3578 N   0  0  0  0  0  0  0  0  0  0  0  0
  -90.1826   28.2014    1.3064 H   0  0  0  0  0  0  0  0  0  0  0  0
  -89.2964   27.0007    2.3317 H   0  0  0  0  0  0  0  0  0  0  0  0
  -92.1849   29.2761    4.1918 H   0  0  0  0  0  0  0  0  0  0  0  0
  -90.2245   32.5004   -3.1740 N   0  0  0  0  0  0  0  0  0  0  0  0
  -88.9229   32.0123   -2.8584 C   0  0  0  0  0  0  0  0  0  0  0  0
  -88.0646   31.9188   -3.7548 O   0  0  0  0  0  0  0  0  0  0  0  0
  -90.8860   32.5659   -2.3582 H   0  0  0  0  0  0  0  0  0  0  0  0
  -90.7063   32.9085   -4.4437 C   0  0  0  0  0  0  0  0  0  0  0  0
  -90.2450   34.2320   -4.8983 C   0  0  0  0  0  0  0  0  0  0  0  0
  -90.8178   34.7737   -5.8756 O   0  0  0  0  0  0  0  0  0  0  0  0
  -89.1770   34.9836   -4.3208 N   0  0  0  0  0  0  0  0  0  0  0  0
  -88.6664   34.5600   -3.5442 H   0  0  0  0  0  0  0  0  0  0  0  0
  -88.8133   36.2530   -4.8184 C   0  0  0  0  0  0  0  0  0  0  0  0
  -87.4758   36.3296   -5.4608 C   0  0  0  0  0  0  0  0  0  0  0  0
  -86.3125   36.7630   -4.7613 N   0  0  0  0  0  0  0  0  0  0  0  0
  -87.3452   36.0118   -6.6494 O   0  0  0  0  0  0  0  0  0  0  0  0
  -85.7442   37.5971   -4.9881 H   0  0  0  0  0  0  0  0  0  0  0  0
  -86.0024   36.1962   -3.9491 H   0  0  0  0  0  0  0  0  0  0  0  0
  -88.9075   37.3553   -3.8051 C   0  0  0  0  0  0  0  0  0  0  0  0
  -89.9667   38.3563   -4.0372 C   0  0  0  0  0  0  0  0  0  0  0  0
  -89.7422   39.6843   -4.3727 C   0  0  0  0  0  0  0  0  0  0  0  0
  -90.9243   40.2898   -4.4560 N   0  0  0  0  0  0  0  0  0  0  0  0
  -91.9225   39.4269   -4.1924 C   0  0  0  0  0  0  0  0  0  0  0  0
  -93.3039   39.5374   -4.1687 C   0  0  0  0  0  0  0  0  0  0  0  0
  -94.0929   38.4582   -3.8889 C   0  0  0  0  0  0  0  0  0  0  0  0
  -93.5443   37.2019   -3.6142 C   0  0  0  0  0  0  0  0  0  0  0  0
  -92.1768   37.1224   -3.6441 C   0  0  0  0  0  0  0  0  0  0  0  0
  -91.3485   38.1857   -3.9219 C   0  0  0  0  0  0  0  0  0  0  0  0
  -91.0585   41.3128   -4.6973 H   0  0  0  0  0  0  0  0  0  0  0  0
  -92.1267   32.5806   -4.7269 C   0  0  0  0  0  0  0  0  0  0  0  0
  -93.0748   30.5498   -3.6595 C   0  0  0  0  0  0  0  0  0  0  0  0
  -92.6013   31.2338   -4.9572 C   0  0  0  0  0  0  0  0  0  0  0  0
  -93.5912   30.9273   -6.0111 C   0  0  0  0  0  0  0  0  0  0  0  0
  -87.8663   32.6087   -0.6617 C   0  0  0  0  0  0  0  0  0  0  0  0
  -86.4129   32.7578   -0.7889 C   0  0  0  0  0  0  0  0  0  0  0  0
  -85.7259   33.5402   -1.7345 C   0  0  0  0  0  0  0  0  0  0  0  0
  -84.4136   33.4420   -1.5913 N   0  0  0  0  0  0  0  0  0  0  0  0
  -84.1832   32.6029   -0.5573 C   0  0  0  0  0  0  0  0  0  0  0  0
  -82.9631   32.2201   -0.0362 C   0  0  0  0  0  0  0  0  0  0  0  0
  -82.9800   31.3670    1.0415 C   0  0  0  0  0  0  0  0  0  0  0  0
  -84.1731   30.9205    1.5705 C   0  0  0  0  0  0  0  0  0  0  0  0
  -85.3821   31.3137    1.0369 C   0  0  0  0  0  0  0  0  0  0  0  0
  -85.4040   32.1704   -0.0481 C   0  0  0  0  0  0  0  0  0  0  0  0
  -83.6561   33.9215   -2.1686 H   0  0  0  0  0  0  0  0  0  0  0  0
 60 61  1  0  0  0
 61 62  1  0  0  0
 61 59  1  0  0  0
 59 37  1  0  0  0
 37 33  1  0  0  0
 33 34  1  0  0  0
 34 35  2  0  0  0
 34  1  1  0  0  0
  1 63  1  0  0  0
 63 64  1  0  0  0
 64 65  2  0  0  0
 65 66  1  0  0  0
 66 67  1  0  0  0
 67 68  2  0  0  0
 68 69  1  0  0  0
 69 70  2  0  0  0
 70 71  1  0  0  0
 71 72  2  0  0  0
  1  2  1  0  0  0
  2  3  1  0  0  0
  3  4  2  0  0  0
  3  6  1  0  0  0
  6  7  1  0  0  0
  7  8  1  0  0  0
  8  9  2  0  0  0
  8 11  1  0  0  0
 11 12  1  0  0  0
 12 13  1  0  0  0
 13 14  1  0  0  0
 14 15  1  0  0  0
 15 16  1  0  0  0
 16 17  2  0  0  0
 16 18  1  0  0  0
 18 19  1  0  0  0
 18 22  1  0  0  0
 22 23  1  0  0  0
 23 24  1  0  0  0
 24 25  1  0  0  0
 25 27  1  0  0  0
 27 28  1  0  0  0
 27 29  2  0  0  0
 37 38  1  0  0  0
 38 39  2  0  0  0
 38 40  1  0  0  0
 40 42  1  0  0  0
 42 48  1  0  0  0
 48 49  1  0  0  0
 49 50  2  0  0  0
 50 51  1  0  0  0
 51 52  1  0  0  0
 52 53  2  0  0  0
 53 54  1  0  0  0
 54 55  2  0  0  0
 55 56  1  0  0  0
 56 57  2  0  0  0
 42 43  1  0  0  0
 43 44  1  0  0  0
 43 45  2  0  0  0
 72 64  1  0  0  0
 15 11  1  0  0  0
 57 49  1  0  0  0
 72 67  1  0  0  0
 57 52  1  0  0  0
 33 36  1  0  0  0
 66 73  1  0  0  0
  2  5  1  0  0  0
  7 10  1  0  0  0
 19 20  1  0  0  0
 19 21  1  0  0  0
 25 26  1  0  0  0
 28 30  1  0  0  0
 28 31  1  0  0  0
 29 32  1  0  0  0
 40 41  1  0  0  0
 51 58  1  0  0  0
 44 46  1  0  0  0
 44 47  1  0  0  0
M  END
> <minimizedAffinity>
-9.09523

> <CNNscore>
0.1028932929

> <CNNaffinity>
7.2000908852

> <CNN_VS>
0.7408410311

> <CNNaffinity_variance>
1.1173511744

$$$$
[H]N=C(N([H])[H])N([H])C([H])([H])C([H])([H])C([H])([H])[C@@]([H])(C(=O)N1C([H])([H])C([H])([H])C([H])([H])[C@@]1([H])C(=O)N([H])C([H])([H])C(=O)N([H])[C@]([H])(C(=O)N([H])[C@]([H])(C(=O)N([H])[C@]([H])(C(=O)N([H])[H])C([H])([H])c1c([H])n([H])c2c([H])c([H])c([H])c([H])c12)C([H])([H])C([H])(C([H])([H])[H])C([H])([H])[H])C([H])([H])c1c([H])n([H])c2c([H])c([H])c([H])c([H])c12)N([H])[H]


 73 77  0  0  0  0  0  0  0  0999 V2000
  -87.8726   30.8392   -2.2640 C   0  0  0  0  0  0  0  0  0  0  0  0
  -88.7210   31.7796   -2.9763 N   0  0  0  0  0  0  0  0  0  0  0  0
  -88.4771   32.0412   -4.3632 C   0  0  0  0  0  0  0  0  0  0  0  0
  -87.5692   31.4531   -4.9626 O   0  0  0  0  0  0  0  0  0  0  0  0
  -89.4997   32.2230   -2.4634 H   0  0  0  0  0  0  0  0  0  0  0  0
  -89.3218   33.0330   -5.0813 C   0  0  0  0  0  0  0  0  0  0  0  0
  -88.5658   34.2727   -5.2948 N   0  0  0  0  0  0  0  0  0  0  0  0
  -88.4767   35.2768   -4.3019 C   0  0  0  0  0  0  0  0  0  0  0  0
  -89.0572   35.0549   -3.1961 O   0  0  0  0  0  0  0  0  0  0  0  0
  -88.0811   34.4349   -6.1995 H   0  0  0  0  0  0  0  0  0  0  0  0
  -87.7771   36.5627   -4.4136 C   0  0  0  0  0  0  0  0  0  0  0  0
  -87.8615   37.4499   -3.2323 C   0  0  0  0  0  0  0  0  0  0  0  0
  -88.9051   38.4827   -3.4915 C   0  0  0  0  0  0  0  0  0  0  0  0
  -89.4199   38.0730   -4.8835 C   0  0  0  0  0  0  0  0  0  0  0  0
  -88.3319   37.3950   -5.5050 N   0  0  0  0  0  0  0  0  0  0  0  0
  -87.8134   37.3665   -6.7834 C   0  0  0  0  0  0  0  0  0  0  0  0
  -86.8209   36.5867   -7.1010 O   0  0  0  0  0  0  0  0  0  0  0  0
  -88.2580   38.1710   -7.9993 C   0  0  0  0  0  0  0  0  0  0  0  0
  -87.1386   38.2147   -8.9196 N   0  0  0  0  0  0  0  0  0  0  0  0
  -86.6611   39.0963   -9.0241 H   0  0  0  0  0  0  0  0  0  0  0  0
  -86.6895   37.3325   -9.1238 H   0  0  0  0  0  0  0  0  0  0  0  0
  -89.4035   37.4679   -8.6449 C   0  0  0  0  0  0  0  0  0  0  0  0
  -90.0624   37.9353   -9.8427 C   0  0  0  0  0  0  0  0  0  0  0  0
  -91.2396   37.3500  -10.4684 C   0  0  0  0  0  0  0  0  0  0  0  0
  -91.0144   36.1645  -11.2496 N   0  0  0  0  0  0  0  0  0  0  0  0
  -90.6034   36.2706  -12.2199 H   0  0  0  0  0  0  0  0  0  0  0  0
  -91.3728   34.8661  -10.7767 C   0  0  0  0  0  0  0  0  0  0  0  0
  -92.3549   34.7513   -9.7578 N   0  0  0  0  0  0  0  0  0  0  0  0
  -90.8052   33.8268  -11.2817 N   0  0  0  0  0  0  0  0  0  0  0  0
  -92.8314   33.8362   -9.5842 H   0  0  0  0  0  0  0  0  0  0  0  0
  -92.5953   35.5858   -9.1827 H   0  0  0  0  0  0  0  0  0  0  0  0
  -90.0929   33.9666  -12.0282 H   0  0  0  0  0  0  0  0  0  0  0  0
  -89.5546   29.0268   -1.7083 N   0  0  0  0  0  0  0  0  0  0  0  0
  -88.4038   29.4675   -2.4248 C   0  0  0  0  0  0  0  0  0  0  0  0
  -87.8211   28.6855   -3.1981 O   0  0  0  0  0  0  0  0  0  0  0  0
  -89.9993   29.7525   -1.0895 H   0  0  0  0  0  0  0  0  0  0  0  0
  -90.1557   27.7432   -1.7508 C   0  0  0  0  0  0  0  0  0  0  0  0
  -90.8387   27.4074   -3.0125 C   0  0  0  0  0  0  0  0  0  0  0  0
  -90.2930   26.5996   -3.8039 O   0  0  0  0  0  0  0  0  0  0  0  0
  -92.0987   27.9262   -3.4392 N   0  0  0  0  0  0  0  0  0  0  0  0
  -92.5571   28.6113   -2.8359 H   0  0  0  0  0  0  0  0  0  0  0  0
  -92.6825   27.5356   -4.6631 C   0  0  0  0  0  0  0  0  0  0  0  0
  -92.8148   28.6098   -5.6809 C   0  0  0  0  0  0  0  0  0  0  0  0
  -93.6646   28.4886   -6.8183 N   0  0  0  0  0  0  0  0  0  0  0  0
  -92.1689   29.6578   -5.5567 O   0  0  0  0  0  0  0  0  0  0  0  0
  -93.3591   28.4925   -7.8066 H   0  0  0  0  0  0  0  0  0  0  0  0
  -94.6830   28.3853   -6.6471 H   0  0  0  0  0  0  0  0  0  0  0  0
  -94.0169   26.8659   -4.5162 C   0  0  0  0  0  0  0  0  0  0  0  0
  -94.2728   26.2156   -3.2164 C   0  0  0  0  0  0  0  0  0  0  0  0
  -95.1727   26.6743   -2.2643 C   0  0  0  0  0  0  0  0  0  0  0  0
  -95.1005   25.8646   -1.2108 N   0  0  0  0  0  0  0  0  0  0  0  0
  -94.1962   24.8901   -1.4184 C   0  0  0  0  0  0  0  0  0  0  0  0
  -93.7660   23.8062   -0.6694 C   0  0  0  0  0  0  0  0  0  0  0  0
  -92.8288   22.9401   -1.1564 C   0  0  0  0  0  0  0  0  0  0  0  0
  -92.2646   23.1091   -2.4244 C   0  0  0  0  0  0  0  0  0  0  0  0
  -92.7081   24.1888   -3.1417 C   0  0  0  0  0  0  0  0  0  0  0  0
  -93.6501   25.0829   -2.6864 C   0  0  0  0  0  0  0  0  0  0  0  0
  -95.6779   25.9746   -0.3291 H   0  0  0  0  0  0  0  0  0  0  0  0
  -90.8399   27.3134   -0.5048 C   0  0  0  0  0  0  0  0  0  0  0  0
  -89.6482   25.1386   -0.6159 C   0  0  0  0  0  0  0  0  0  0  0  0
  -90.8028   25.9567   -0.0047 C   0  0  0  0  0  0  0  0  0  0  0  0
  -90.8441   25.6597    1.4426 C   0  0  0  0  0  0  0  0  0  0  0  0
  -87.5955   31.2723   -0.8798 C   0  0  0  0  0  0  0  0  0  0  0  0
  -86.4821   30.6632   -0.1448 C   0  0  0  0  0  0  0  0  0  0  0  0
  -86.4847   29.4169    0.5071 C   0  0  0  0  0  0  0  0  0  0  0  0
  -85.3245   29.1685    1.0942 N   0  0  0  0  0  0  0  0  0  0  0  0
  -84.5180   30.2264    0.8556 C   0  0  0  0  0  0  0  0  0  0  0  0
  -83.2083   30.3974    1.2582 C   0  0  0  0  0  0  0  0  0  0  0  0
  -82.5790   31.5571    0.8730 C   0  0  0  0  0  0  0  0  0  0  0  0
  -83.2399   32.5015    0.1154 C   0  0  0  0  0  0  0  0  0  0  0  0
  -84.5479   32.3133   -0.2777 C   0  0  0  0  0  0  0  0  0  0  0  0
  -85.2133   31.1592    0.0921 C   0  0  0  0  0  0  0  0  0  0  0  0
  -85.0492   28.3059    1.6574 H   0  0  0  0  0  0  0  0  0  0  0  0
 60 61  1  0  0  0
 61 62  1  0  0  0
 61 59  1  0  0  0
 59 37  1  0  0  0
 37 33  1  0  0  0
 33 34  1  0  0  0
 34 35  2  0  0  0
 34  1  1  0  0  0
  1 63  1  0  0  0
 63 64  1  0  0  0
 64 65  2  0  0  0
 65 66  1  0  0  0
 66 67  1  0  0  0
 67 68  2  0  0  0
 68 69  1  0  0  0
 69 70  2  0  0  0
 70 71  1  0  0  0
 71 72  2  0  0  0
  1  2  1  0  0  0
  2  3  1  0  0  0
  3  4  2  0  0  0
  3  6  1  0  0  0
  6  7  1  0  0  0
  7  8  1  0  0  0
  8  9  2  0  0  0
  8 11  1  0  0  0
 11 12  1  0  0  0
 12 13  1  0  0  0
 13 14  1  0  0  0
 14 15  1  0  0  0
 15 16  1  0  0  0
 16 17  2  0  0  0
 16 18  1  0  0  0
 18 19  1  0  0  0
 18 22  1  0  0  0
 22 23  1  0  0  0
 23 24  1  0  0  0
 24 25  1  0  0  0
 25 27  1  0  0  0
 27 28  1  0  0  0
 27 29  2  0  0  0
 37 38  1  0  0  0
 38 39  2  0  0  0
 38 40  1  0  0  0
 40 42  1  0  0  0
 42 48  1  0  0  0
 48 49  1  0  0  0
 49 50  2  0  0  0
 50 51  1  0  0  0
 51 52  1  0  0  0
 52 53  2  0  0  0
 53 54  1  0  0  0
 54 55  2  0  0  0
 55 56  1  0  0  0
 56 57  2  0  0  0
 42 43  1  0  0  0
 43 44  1  0  0  0
 43 45  2  0  0  0
 72 64  1  0  0  0
 15 11  1  0  0  0
 57 49  1  0  0  0
 72 67  1  0  0  0
 57 52  1  0  0  0
 33 36  1  0  0  0
 66 73  1  0  0  0
  2  5  1  0  0  0
  7 10  1  0  0  0
 19 20  1  0  0  0
 19 21  1  0  0  0
 25 26  1  0  0  0
 28 30  1  0  0  0
 28 31  1  0  0  0
 29 32  1  0  0  0
 40 41  1  0  0  0
 51 58  1  0  0  0
 44 46  1  0  0  0
 44 47  1  0  0  0
M  END
> <minimizedAffinity>
-8.60804

> <CNNscore>
0.0983238518

> <CNNaffinity>
6.9685583115

> <CNN_VS>
0.6851754785

> <CNNaffinity_variance>
0.6213498116

$$$$
[H]N=C(N([H])[H])N([H])C([H])([H])C([H])([H])C([H])([H])[C@@]([H])(C(=O)N1C([H])([H])C([H])([H])C([H])([H])[C@@]1([H])C(=O)N([H])C([H])([H])C(=O)N([H])[C@]([H])(C(=O)N([H])[C@]([H])(C(=O)N([H])[C@]([H])(C(=O)N([H])[H])C([H])([H])c1c([H])n([H])c2c([H])c([H])c([H])c([H])c12)C([H])([H])C([H])(C([H])([H])[H])C([H])([H])[H])C([H])([H])c1c([H])n([H])c2c([H])c([H])c([H])c([H])c12)N([H])[H]


 73 77  0  0  0  0  0  0  0  0999 V2000
  -88.0649   31.6084   -1.9047 C   0  0  0  0  0  0  0  0  0  0  0  0
  -88.6707   32.5524   -2.8284 N   0  0  0  0  0  0  0  0  0  0  0  0
  -88.3416   32.4889   -4.2209 C   0  0  0  0  0  0  0  0  0  0  0  0
  -87.5688   31.6212   -4.6443 O   0  0  0  0  0  0  0  0  0  0  0  0
  -89.3467   33.2380   -2.4556 H   0  0  0  0  0  0  0  0  0  0  0  0
  -88.9324   33.4803   -5.1594 C   0  0  0  0  0  0  0  0  0  0  0  0
  -89.1307   34.7625   -4.4733 N   0  0  0  0  0  0  0  0  0  0  0  0
  -90.3829   35.4212   -4.4624 C   0  0  0  0  0  0  0  0  0  0  0  0
  -91.3484   34.8456   -5.0504 O   0  0  0  0  0  0  0  0  0  0  0  0
  -88.3354   35.2154   -3.9813 H   0  0  0  0  0  0  0  0  0  0  0  0
  -90.6901   36.7136   -3.8371 C   0  0  0  0  0  0  0  0  0  0  0  0
  -92.0859   37.1843   -3.9768 C   0  0  0  0  0  0  0  0  0  0  0  0
  -92.1370   38.1895   -5.0768 C   0  0  0  0  0  0  0  0  0  0  0  0
  -90.6759   38.2054   -5.5620 C   0  0  0  0  0  0  0  0  0  0  0  0
  -89.8984   37.8128   -4.4345 N   0  0  0  0  0  0  0  0  0  0  0  0
  -88.6855   38.2101   -3.9103 C   0  0  0  0  0  0  0  0  0  0  0  0
  -88.1633   37.6215   -2.8736 O   0  0  0  0  0  0  0  0  0  0  0  0
  -87.7694   39.3276   -4.3955 C   0  0  0  0  0  0  0  0  0  0  0  0
  -86.9006   39.6825   -3.2905 N   0  0  0  0  0  0  0  0  0  0  0  0
  -87.0641   40.5702   -2.8415 H   0  0  0  0  0  0  0  0  0  0  0  0
  -86.4389   38.9178   -2.8176 H   0  0  0  0  0  0  0  0  0  0  0  0
  -86.9466   38.8133   -5.5278 C   0  0  0  0  0  0  0  0  0  0  0  0
  -87.1204   39.2267   -6.9012 C   0  0  0  0  0  0  0  0  0  0  0  0
  -86.9082   38.4074   -8.0859 C   0  0  0  0  0  0  0  0  0  0  0  0
  -86.8782   39.1090   -9.3403 N   0  0  0  0  0  0  0  0  0  0  0  0
  -86.1652   39.8814   -9.4691 H   0  0  0  0  0  0  0  0  0  0  0  0
  -87.8072   38.8287  -10.3874 C   0  0  0  0  0  0  0  0  0  0  0  0
  -89.0808   38.2971  -10.0539 N   0  0  0  0  0  0  0  0  0  0  0  0
  -87.4776   39.0647  -11.6093 N   0  0  0  0  0  0  0  0  0  0  0  0
  -89.8666   38.3365  -10.7436 H   0  0  0  0  0  0  0  0  0  0  0  0
  -89.2255   37.8653   -9.1171 H   0  0  0  0  0  0  0  0  0  0  0  0
  -86.5318   39.4567  -11.7989 H   0  0  0  0  0  0  0  0  0  0  0  0
  -89.7382   29.8950   -2.7334 N   0  0  0  0  0  0  0  0  0  0  0  0
  -88.9898   30.4776   -1.6693 C   0  0  0  0  0  0  0  0  0  0  0  0
  -89.1173   30.0379   -0.5120 O   0  0  0  0  0  0  0  0  0  0  0  0
  -89.5606   30.3113   -3.6834 H   0  0  0  0  0  0  0  0  0  0  0  0
  -90.6686   28.8282   -2.6480 C   0  0  0  0  0  0  0  0  0  0  0  0
  -90.0800   27.4909   -2.4583 C   0  0  0  0  0  0  0  0  0  0  0  0
  -89.8710   26.7694   -3.4644 O   0  0  0  0  0  0  0  0  0  0  0  0
  -89.7128   26.9146   -1.2044 N   0  0  0  0  0  0  0  0  0  0  0  0
  -89.8984   27.4596   -0.3608 H   0  0  0  0  0  0  0  0  0  0  0  0
  -89.1421   25.6267   -1.1220 C   0  0  0  0  0  0  0  0  0  0  0  0
  -90.1092   24.5027   -1.0281 C   0  0  0  0  0  0  0  0  0  0  0  0
  -89.7236   23.1421   -1.2031 N   0  0  0  0  0  0  0  0  0  0  0  0
  -91.3012   24.7351   -0.7919 O   0  0  0  0  0  0  0  0  0  0  0  0
  -90.0607   22.5073   -1.9470 H   0  0  0  0  0  0  0  0  0  0  0  0
  -89.0422   22.7462   -0.5278 H   0  0  0  0  0  0  0  0  0  0  0  0
  -88.1401   25.4731   -0.0160 C   0  0  0  0  0  0  0  0  0  0  0  0
  -88.3701   26.3027    1.1827 C   0  0  0  0  0  0  0  0  0  0  0  0
  -87.7229   27.5003    1.4537 C   0  0  0  0  0  0  0  0  0  0  0  0
  -88.1497   27.9365    2.6362 N   0  0  0  0  0  0  0  0  0  0  0  0
  -89.0496   27.0859    3.1626 C   0  0  0  0  0  0  0  0  0  0  0  0
  -89.7971   27.0828    4.3297 C   0  0  0  0  0  0  0  0  0  0  0  0
  -90.6793   26.0755    4.5993 C   0  0  0  0  0  0  0  0  0  0  0  0
  -90.8648   25.0087    3.7150 C   0  0  0  0  0  0  0  0  0  0  0  0
  -90.1125   25.0377    2.5703 C   0  0  0  0  0  0  0  0  0  0  0  0
  -89.2143   26.0340    2.2629 C   0  0  0  0  0  0  0  0  0  0  0  0
  -87.8234   28.8325    3.0984 H   0  0  0  0  0  0  0  0  0  0  0  0
  -91.8219   28.9065   -3.5803 C   0  0  0  0  0  0  0  0  0  0  0  0
  -93.5211   29.8162   -2.0157 C   0  0  0  0  0  0  0  0  0  0  0  0
  -92.9046   29.8535   -3.4281 C   0  0  0  0  0  0  0  0  0  0  0  0
  -92.7571   31.2725   -3.8143 C   0  0  0  0  0  0  0  0  0  0  0  0
  -87.5260   32.2708   -0.7001 C   0  0  0  0  0  0  0  0  0  0  0  0
  -86.0738   32.3891   -0.5331 C   0  0  0  0  0  0  0  0  0  0  0  0
  -85.2401   33.3778   -1.0859 C   0  0  0  0  0  0  0  0  0  0  0  0
  -83.9715   33.1884   -0.7583 N   0  0  0  0  0  0  0  0  0  0  0  0
  -83.9165   32.0820    0.0157 C   0  0  0  0  0  0  0  0  0  0  0  0
  -82.8018   31.5168    0.6029 C   0  0  0  0  0  0  0  0  0  0  0  0
  -82.9979   30.3950    1.3726 C   0  0  0  0  0  0  0  0  0  0  0  0
  -84.2608   29.8671    1.5433 C   0  0  0  0  0  0  0  0  0  0  0  0
  -85.3625   30.4454    0.9493 C   0  0  0  0  0  0  0  0  0  0  0  0
  -85.2034   31.5743    0.1672 C   0  0  0  0  0  0  0  0  0  0  0  0
  -83.1295   33.7797   -1.0385 H   0  0  0  0  0  0  0  0  0  0  0  0
 60 61  1  0  0  0
 61 62  1  0  0  0
 61 59  1  0  0  0
 59 37  1  0  0  0
 37 33  1  0  0  0
 33 34  1  0  0  0
 34 35  2  0  0  0
 34  1  1  0  0  0
  1 63  1  0  0  0
 63 64  1  0  0  0
 64 65  2  0  0  0
 65 66  1  0  0  0
 66 67  1  0  0  0
 67 68  2  0  0  0
 68 69  1  0  0  0
 69 70  2  0  0  0
 70 71  1  0  0  0
 71 72  2  0  0  0
  1  2  1  0  0  0
  2  3  1  0  0  0
  3  4  2  0  0  0
  3  6  1  0  0  0
  6  7  1  0  0  0
  7  8  1  0  0  0
  8  9  2  0  0  0
  8 11  1  0  0  0
 11 12  1  0  0  0
 12 13  1  0  0  0
 13 14  1  0  0  0
 14 15  1  0  0  0
 15 16  1  0  0  0
 16 17  2  0  0  0
 16 18  1  0  0  0
 18 19  1  0  0  0
 18 22  1  0  0  0
 22 23  1  0  0  0
 23 24  1  0  0  0
 24 25  1  0  0  0
 25 27  1  0  0  0
 27 28  1  0  0  0
 27 29  2  0  0  0
 37 38  1  0  0  0
 38 39  2  0  0  0
 38 40  1  0  0  0
 40 42  1  0  0  0
 42 48  1  0  0  0
 48 49  1  0  0  0
 49 50  2  0  0  0
 50 51  1  0  0  0
 51 52  1  0  0  0
 52 53  2  0  0  0
 53 54  1  0  0  0
 54 55  2  0  0  0
 55 56  1  0  0  0
 56 57  2  0  0  0
 42 43  1  0  0  0
 43 44  1  0  0  0
 43 45  2  0  0  0
 72 64  1  0  0  0
 15 11  1  0  0  0
 57 49  1  0  0  0
 72 67  1  0  0  0
 57 52  1  0  0  0
 33 36  1  0  0  0
 66 73  1  0  0  0
  2  5  1  0  0  0
  7 10  1  0  0  0
 19 20  1  0  0  0
 19 21  1  0  0  0
 25 26  1  0  0  0
 28 30  1  0  0  0
 28 31  1  0  0  0
 29 32  1  0  0  0
 40 41  1  0  0  0
 51 58  1  0  0  0
 44 46  1  0  0  0
 44 47  1  0  0  0
M  END
> <minimizedAffinity>
-8.47503

> <CNNscore>
0.0941733941

> <CNNaffinity>
7.2790045738

> <CNN_VS>
0.6854885817

> <CNNaffinity_variance>
0.8338826299

$$$$
[H]N=C(N([H])[H])N([H])C([H])([H])C([H])([H])C([H])([H])[C@@]([H])(C(=O)N1C([H])([H])C([H])([H])C([H])([H])[C@@]1([H])C(=O)N([H])C([H])([H])C(=O)N([H])[C@]([H])(C(=O)N([H])[C@]([H])(C(=O)N([H])[C@]([H])(C(=O)N([H])[H])C([H])([H])c1c([H])n([H])c2c([H])c([H])c([H])c([H])c12)C([H])([H])C([H])(C([H])([H])[H])C([H])([H])[H])C([H])([H])c1c([H])n([H])c2c([H])c([H])c([H])c([H])c12)N([H])[H]


 73 77  0  0  0  0  0  0  0  0999 V2000
  -88.2781   31.4409   -1.6241 C   0  0  0  0  0  0  0  0  0  0  0  0
  -87.6936   30.1182   -1.4815 N   0  0  0  0  0  0  0  0  0  0  0  0
  -88.4805   29.0529   -0.9362 C   0  0  0  0  0  0  0  0  0  0  0  0
  -89.6586   29.2448   -0.6126 O   0  0  0  0  0  0  0  0  0  0  0  0
  -86.7223   29.9744   -1.8008 H   0  0  0  0  0  0  0  0  0  0  0  0
  -87.8690   27.7090   -0.7548 C   0  0  0  0  0  0  0  0  0  0  0  0
  -88.6144   26.7111   -1.5310 N   0  0  0  0  0  0  0  0  0  0  0  0
  -89.3026   25.6410   -0.9121 C   0  0  0  0  0  0  0  0  0  0  0  0
  -89.2760   25.5874    0.3550 O   0  0  0  0  0  0  0  0  0  0  0  0
  -88.6419   26.7759   -2.5678 H   0  0  0  0  0  0  0  0  0  0  0  0
  -90.0529   24.5732   -1.5846 C   0  0  0  0  0  0  0  0  0  0  0  0
  -91.0039   25.0107   -2.6305 C   0  0  0  0  0  0  0  0  0  0  0  0
  -92.3758   25.0199   -2.0467 C   0  0  0  0  0  0  0  0  0  0  0  0
  -92.1054   24.5980   -0.5909 C   0  0  0  0  0  0  0  0  0  0  0  0
  -90.9095   23.8251   -0.6367 N   0  0  0  0  0  0  0  0  0  0  0  0
  -90.4730   22.6800   -0.0026 C   0  0  0  0  0  0  0  0  0  0  0  0
  -89.2736   22.2103   -0.1894 O   0  0  0  0  0  0  0  0  0  0  0  0
  -91.2361   21.7950    0.9760 C   0  0  0  0  0  0  0  0  0  0  0  0
  -91.4807   20.5297    0.3118 N   0  0  0  0  0  0  0  0  0  0  0  0
  -92.4284   20.3314    0.0312 H   0  0  0  0  0  0  0  0  0  0  0  0
  -90.6854   20.0956   -0.1361 H   0  0  0  0  0  0  0  0  0  0  0  0
  -90.3843   21.5672    2.1785 C   0  0  0  0  0  0  0  0  0  0  0  0
  -90.2531   22.5136    3.2623 C   0  0  0  0  0  0  0  0  0  0  0  0
  -91.1152   23.6577    3.5223 C   0  0  0  0  0  0  0  0  0  0  0  0
  -90.7071   24.9021    2.9293 N   0  0  0  0  0  0  0  0  0  0  0  0
  -90.5080   24.9237    1.8893 H   0  0  0  0  0  0  0  0  0  0  0  0
  -90.5169   26.0849    3.7057 C   0  0  0  0  0  0  0  0  0  0  0  0
  -89.5552   27.0395    3.2817 N   0  0  0  0  0  0  0  0  0  0  0  0
  -91.2192   26.2666    4.7692 N   0  0  0  0  0  0  0  0  0  0  0  0
  -89.5800   28.0162    3.6560 H   0  0  0  0  0  0  0  0  0  0  0  0
  -88.8229   26.7582    2.5964 H   0  0  0  0  0  0  0  0  0  0  0  0
  -91.9122   25.5363    5.0343 H   0  0  0  0  0  0  0  0  0  0  0  0
  -88.8579   33.0655   -3.4806 N   0  0  0  0  0  0  0  0  0  0  0  0
  -88.3405   31.8068   -3.0564 C   0  0  0  0  0  0  0  0  0  0  0  0
  -87.9385   30.9877   -3.9028 O   0  0  0  0  0  0  0  0  0  0  0  0
  -89.1601   33.7079   -2.7037 H   0  0  0  0  0  0  0  0  0  0  0  0
  -88.9940   33.5359   -4.8114 C   0  0  0  0  0  0  0  0  0  0  0  0
  -88.5843   34.9339   -5.0318 C   0  0  0  0  0  0  0  0  0  0  0  0
  -87.5274   35.1654   -5.6688 O   0  0  0  0  0  0  0  0  0  0  0  0
  -89.2912   36.0887   -4.5779 N   0  0  0  0  0  0  0  0  0  0  0  0
  -90.1387   35.9387   -4.0279 H   0  0  0  0  0  0  0  0  0  0  0  0
  -88.8264   37.3933   -4.8484 C   0  0  0  0  0  0  0  0  0  0  0  0
  -88.2824   38.1340   -3.6810 C   0  0  0  0  0  0  0  0  0  0  0  0
  -88.1412   39.5519   -3.6700 N   0  0  0  0  0  0  0  0  0  0  0  0
  -87.9299   37.5147   -2.6695 O   0  0  0  0  0  0  0  0  0  0  0  0
  -87.2511   40.0720   -3.5840 H   0  0  0  0  0  0  0  0  0  0  0  0
  -89.0051   40.1205   -3.7571 H   0  0  0  0  0  0  0  0  0  0  0  0
  -89.8348   38.2713   -5.5287 C   0  0  0  0  0  0  0  0  0  0  0  0
  -89.8102   38.2588   -7.0042 C   0  0  0  0  0  0  0  0  0  0  0  0
  -89.2892   39.2722   -7.7968 C   0  0  0  0  0  0  0  0  0  0  0  0
  -89.4823   38.9352   -9.0695 N   0  0  0  0  0  0  0  0  0  0  0  0
  -90.1061   37.7463   -9.1596 C   0  0  0  0  0  0  0  0  0  0  0  0
  -90.5089   36.9533  -10.2224 C   0  0  0  0  0  0  0  0  0  0  0  0
  -91.1113   35.7455  -10.0123 C   0  0  0  0  0  0  0  0  0  0  0  0
  -91.3476   35.2598   -8.7228 C   0  0  0  0  0  0  0  0  0  0  0  0
  -90.9396   36.0649   -7.6920 C   0  0  0  0  0  0  0  0  0  0  0  0
  -90.3297   37.2867   -7.8626 C   0  0  0  0  0  0  0  0  0  0  0  0
  -89.1844   39.5249   -9.8980 H   0  0  0  0  0  0  0  0  0  0  0  0
  -90.2193   33.0954   -5.5255 C   0  0  0  0  0  0  0  0  0  0  0  0
  -92.4854   33.9797   -5.0307 C   0  0  0  0  0  0  0  0  0  0  0  0
  -91.4751   32.8281   -4.8596 C   0  0  0  0  0  0  0  0  0  0  0  0
  -92.2061   31.5589   -5.0577 C   0  0  0  0  0  0  0  0  0  0  0  0
  -87.6503   32.4303   -0.7257 C   0  0  0  0  0  0  0  0  0  0  0  0
  -86.1920   32.5854   -0.7333 C   0  0  0  0  0  0  0  0  0  0  0  0
  -85.4421   33.4599   -1.5403 C   0  0  0  0  0  0  0  0  0  0  0  0
  -84.1429   33.3413   -1.3157 N   0  0  0  0  0  0  0  0  0  0  0  0
  -83.9838   32.3969   -0.3622 C   0  0  0  0  0  0  0  0  0  0  0  0
  -82.8025   31.9559    0.2007 C   0  0  0  0  0  0  0  0  0  0  0  0
  -82.8932   30.9942    1.1786 C   0  0  0  0  0  0  0  0  0  0  0  0
  -84.1195   30.4999    1.5719 C   0  0  0  0  0  0  0  0  0  0  0  0
  -85.2888   30.9525    0.9986 C   0  0  0  0  0  0  0  0  0  0  0  0
  -85.2363   31.9187    0.0110 C   0  0  0  0  0  0  0  0  0  0  0  0
  -83.3478   33.8754   -1.7843 H   0  0  0  0  0  0  0  0  0  0  0  0
 60 61  1  0  0  0
 61 62  1  0  0  0
 61 59  1  0  0  0
 59 37  1  0  0  0
 37 33  1  0  0  0
 33 34  1  0  0  0
 34 35  2  0  0  0
 34  1  1  0  0  0
  1 63  1  0  0  0
 63 64  1  0  0  0
 64 65  2  0  0  0
 65 66  1  0  0  0
 66 67  1  0  0  0
 67 68  2  0  0  0
 68 69  1  0  0  0
 69 70  2  0  0  0
 70 71  1  0  0  0
 71 72  2  0  0  0
  1  2  1  0  0  0
  2  3  1  0  0  0
  3  4  2  0  0  0
  3  6  1  0  0  0
  6  7  1  0  0  0
  7  8  1  0  0  0
  8  9  2  0  0  0
  8 11  1  0  0  0
 11 12  1  0  0  0
 12 13  1  0  0  0
 13 14  1  0  0  0
 14 15  1  0  0  0
 15 16  1  0  0  0
 16 17  2  0  0  0
 16 18  1  0  0  0
 18 19  1  0  0  0
 18 22  1  0  0  0
 22 23  1  0  0  0
 23 24  1  0  0  0
 24 25  1  0  0  0
 25 27  1  0  0  0
 27 28  1  0  0  0
 27 29  2  0  0  0
 37 38  1  0  0  0
 38 39  2  0  0  0
 38 40  1  0  0  0
 40 42  1  0  0  0
 42 48  1  0  0  0
 48 49  1  0  0  0
 49 50  2  0  0  0
 50 51  1  0  0  0
 51 52  1  0  0  0
 52 53  2  0  0  0
 53 54  1  0  0  0
 54 55  2  0  0  0
 55 56  1  0  0  0
 56 57  2  0  0  0
 42 43  1  0  0  0
 43 44  1  0  0  0
 43 45  2  0  0  0
 72 64  1  0  0  0
 15 11  1  0  0  0
 57 49  1  0  0  0
 72 67  1  0  0  0
 57 52  1  0  0  0
 33 36  1  0  0  0
 66 73  1  0  0  0
  2  5  1  0  0  0
  7 10  1  0  0  0
 19 20  1  0  0  0
 19 21  1  0  0  0
 25 26  1  0  0  0
 28 30  1  0  0  0
 28 31  1  0  0  0
 29 32  1  0  0  0
 40 41  1  0  0  0
 51 58  1  0  0  0
 44 46  1  0  0  0
 44 47  1  0  0  0
M  END
> <minimizedAffinity>
-8.60844

> <CNNscore>
0.0869124457

> <CNNaffinity>
6.9510588646

> <CNN_VS>
0.6041335464

> <CNNaffinity_variance>
0.6474548578

$$$$
[H]Oc1c([H])c([H])c([C@@]2([H])Sc3c([H])c(O[H])c([H])c([H])c3O[C@]2([H])c2c([H])c([H])c(OC([H])([H])C([H])([H])N3C([H])([H])C([H])([H])C([H])([H])C([H])([H])C3([H])[H])c([H])c2[H])c([H])c1[H]


 35 39  0  0  0  0  0  0  0  0999 V2000
  -87.3890   32.4509   -2.5290 C   0  0  0  0  0  0  0  0  0  0  0  0
  -86.0431   33.5631   -2.0205 S   0  0  0  0  0  0  0  0  0  0  0  0
  -85.1892   32.6773   -0.7576 C   0  0  0  0  0  0  0  0  0  0  0  0
  -83.8602   32.7879   -0.5889 C   0  0  0  0  0  0  0  0  0  0  0  0
  -83.1704   32.0844    0.4114 C   0  0  0  0  0  0  0  0  0  0  0  0
  -81.7977   32.2074    0.5752 O   0  0  0  0  0  0  0  0  0  0  0  0
  -83.9112   31.2603    1.2320 C   0  0  0  0  0  0  0  0  0  0  0  0
  -85.2858   31.1310    1.0751 C   0  0  0  0  0  0  0  0  0  0  0  0
  -85.9258   31.8546    0.0616 C   0  0  0  0  0  0  0  0  0  0  0  0
  -87.2645   31.7818   -0.1557 O   0  0  0  0  0  0  0  0  0  0  0  0
  -88.0039   31.8747   -1.3068 C   0  0  0  0  0  0  0  0  0  0  0  0
  -81.2337   31.5387    0.0363 H   0  0  0  0  0  0  0  0  0  0  0  0
  -91.2267   35.1797   -5.6827 O   0  0  0  0  0  0  0  0  0  0  0  0
  -90.2709   34.4901   -4.9060 C   0  0  0  0  0  0  0  0  0  0  0  0
  -89.7162   33.3167   -5.3355 C   0  0  0  0  0  0  0  0  0  0  0  0
  -88.7841   32.6606   -4.5600 C   0  0  0  0  0  0  0  0  0  0  0  0
  -88.3806   33.1514   -3.3427 C   0  0  0  0  0  0  0  0  0  0  0  0
  -88.9390   34.3303   -2.9123 C   0  0  0  0  0  0  0  0  0  0  0  0
  -89.8875   35.0040   -3.6943 C   0  0  0  0  0  0  0  0  0  0  0  0
  -92.2192   34.9578   -5.5480 H   0  0  0  0  0  0  0  0  0  0  0  0
  -88.5723   30.5005   -1.5699 C   0  0  0  0  0  0  0  0  0  0  0  0
  -87.8448   29.5397   -2.2306 C   0  0  0  0  0  0  0  0  0  0  0  0
  -88.3766   28.2649   -2.4713 C   0  0  0  0  0  0  0  0  0  0  0  0
  -89.6460   27.9719   -2.0394 C   0  0  0  0  0  0  0  0  0  0  0  0
  -90.3863   28.9184   -1.3786 C   0  0  0  0  0  0  0  0  0  0  0  0
  -89.8523   30.1689   -1.1477 C   0  0  0  0  0  0  0  0  0  0  0  0
  -90.1800   26.7261   -2.2685 O   0  0  0  0  0  0  0  0  0  0  0  0
  -89.6804   25.5005   -1.8148 C   0  0  0  0  0  0  0  0  0  0  0  0
  -89.9401   25.4050   -0.3324 C   0  0  0  0  0  0  0  0  0  0  0  0
  -89.0988   26.2367    0.4700 N   0  0  0  0  0  0  0  0  0  0  0  0
  -89.3415   26.1231    1.8912 C   0  0  0  0  0  0  0  0  0  0  0  0
  -88.7312   27.3183    2.5875 C   0  0  0  0  0  0  0  0  0  0  0  0
  -87.6219   27.8603    1.7151 C   0  0  0  0  0  0  0  0  0  0  0  0
  -86.8218   26.7280    1.1120 C   0  0  0  0  0  0  0  0  0  0  0  0
  -87.7059   25.8994    0.2362 C   0  0  0  0  0  0  0  0  0  0  0  0
 13 14  1  0  0  0
 14 15  2  0  0  0
 15 16  1  0  0  0
 16 17  2  0  0  0
 17 18  1  0  0  0
 18 19  2  0  0  0
 17  1  1  0  0  0
  1  2  1  0  0  0
  2  3  1  0  0  0
  3  4  2  0  0  0
  4  5  1  0  0  0
  5  6  1  0  0  0
  5  7  2  0  0  0
  7  8  1  0  0  0
  8  9  2  0  0  0
  9 10  1  0  0  0
 10 11  1  0  0  0
 11 21  1  0  0  0
 21 22  2  0  0  0
 22 23  1  0  0  0
 23 24  2  0  0  0
 24 27  1  0  0  0
 27 28  1  0  0  0
 28 29  1  0  0  0
 29 30  1  0  0  0
 30 31  1  0  0  0
 31 32  1  0  0  0
 32 33  1  0  0  0
 33 34  1  0  0  0
 34 35  1  0  0  0
 24 25  1  0  0  0
 25 26  2  0  0  0
 19 14  1  0  0  0
 11  1  1  0  0  0
 26 21  1  0  0  0
  9  3  1  0  0  0
 35 30  1  0  0  0
 13 20  1  0  0  0
  6 12  1  0  0  0
M  END
> <minimizedAffinity>
-9.05527

> <CNNscore>
0.2562003434

> <CNNaffinity>
6.5304689407

> <CNN_VS>
1.6731083393

> <CNNaffinity_variance>
0.2675381303

$$$$
[H]Oc1c([H])c([H])c([C@@]2([H])Sc3c([H])c(O[H])c([H])c([H])c3O[C@]2([H])c2c([H])c([H])c(OC([H])([H])C([H])([H])N3C([H])([H])C([H])([H])C([H])([H])C([H])([H])C3([H])[H])c([H])c2[H])c([H])c1[H]


 35 39  0  0  0  0  0  0  0  0999 V2000
  -87.3301   32.5955   -2.6037 C   0  0  0  0  0  0  0  0  0  0  0  0
  -86.0299   33.6809   -1.9416 S   0  0  0  0  0  0  0  0  0  0  0  0
  -85.2212   32.7066   -0.7147 C   0  0  0  0  0  0  0  0  0  0  0  0
  -83.9039   32.8215   -0.4730 C   0  0  0  0  0  0  0  0  0  0  0  0
  -83.2498   32.0481    0.4993 C   0  0  0  0  0  0  0  0  0  0  0  0
  -81.8888   32.1765    0.7392 O   0  0  0  0  0  0  0  0  0  0  0  0
  -84.0138   31.1492    1.2132 C   0  0  0  0  0  0  0  0  0  0  0  0
  -85.3769   31.0141    0.9795 C   0  0  0  0  0  0  0  0  0  0  0  0
  -85.9809   31.8093   -0.0018 C   0  0  0  0  0  0  0  0  0  0  0  0
  -87.3064   31.7358   -0.2893 O   0  0  0  0  0  0  0  0  0  0  0  0
  -87.9918   31.9125   -1.4637 C   0  0  0  0  0  0  0  0  0  0  0  0
  -81.2881   31.5621    0.1759 H   0  0  0  0  0  0  0  0  0  0  0  0
  -91.0622   35.5197   -5.7086 O   0  0  0  0  0  0  0  0  0  0  0  0
  -90.1321   34.7822   -4.9448 C   0  0  0  0  0  0  0  0  0  0  0  0
  -89.5383   33.6546   -5.4399 C   0  0  0  0  0  0  0  0  0  0  0  0
  -88.6324   32.9502   -4.6756 C   0  0  0  0  0  0  0  0  0  0  0  0
  -88.2944   33.3464   -3.4051 C   0  0  0  0  0  0  0  0  0  0  0  0
  -88.8920   34.4793   -2.9089 C   0  0  0  0  0  0  0  0  0  0  0  0
  -89.8142   35.2015   -3.6789 C   0  0  0  0  0  0  0  0  0  0  0  0
  -92.0560   35.2747   -5.6396 H   0  0  0  0  0  0  0  0  0  0  0  0
  -88.5224   30.5566   -1.8650 C   0  0  0  0  0  0  0  0  0  0  0  0
  -89.8702   30.3295   -2.0087 C   0  0  0  0  0  0  0  0  0  0  0  0
  -90.3577   29.0693   -2.3826 C   0  0  0  0  0  0  0  0  0  0  0  0
  -89.4730   28.0447   -2.6089 C   0  0  0  0  0  0  0  0  0  0  0  0
  -88.1248   28.2532   -2.4702 C   0  0  0  0  0  0  0  0  0  0  0  0
  -87.6572   29.4975   -2.1019 C   0  0  0  0  0  0  0  0  0  0  0  0
  -89.9369   26.8039   -2.9761 O   0  0  0  0  0  0  0  0  0  0  0  0
  -90.2738   25.7460   -2.1245 C   0  0  0  0  0  0  0  0  0  0  0  0
  -91.7516   25.8262   -1.8349 C   0  0  0  0  0  0  0  0  0  0  0  0
  -92.5395   24.8380   -2.5027 N   0  0  0  0  0  0  0  0  0  0  0  0
  -92.9816   25.2308   -3.8225 C   0  0  0  0  0  0  0  0  0  0  0  0
  -94.1248   24.3343   -4.2410 C   0  0  0  0  0  0  0  0  0  0  0  0
  -94.0151   23.0362   -3.4740 C   0  0  0  0  0  0  0  0  0  0  0  0
  -92.5725   22.5911   -3.3906 C   0  0  0  0  0  0  0  0  0  0  0  0
  -91.7745   23.6120   -2.6450 C   0  0  0  0  0  0  0  0  0  0  0  0
 13 14  1  0  0  0
 14 15  2  0  0  0
 15 16  1  0  0  0
 16 17  2  0  0  0
 17 18  1  0  0  0
 18 19  2  0  0  0
 17  1  1  0  0  0
  1  2  1  0  0  0
  2  3  1  0  0  0
  3  4  2  0  0  0
  4  5  1  0  0  0
  5  6  1  0  0  0
  5  7  2  0  0  0
  7  8  1  0  0  0
  8  9  2  0  0  0
  9 10  1  0  0  0
 10 11  1  0  0  0
 11 21  1  0  0  0
 21 22  2  0  0  0
 22 23  1  0  0  0
 23 24  2  0  0  0
 24 27  1  0  0  0
 27 28  1  0  0  0
 28 29  1  0  0  0
 29 30  1  0  0  0
 30 31  1  0  0  0
 31 32  1  0  0  0
 32 33  1  0  0  0
 33 34  1  0  0  0
 34 35  1  0  0  0
 24 25  1  0  0  0
 25 26  2  0  0  0
 19 14  1  0  0  0
 11  1  1  0  0  0
 26 21  1  0  0  0
  9  3  1  0  0  0
 35 30  1  0  0  0
 13 20  1  0  0  0
  6 12  1  0  0  0
M  END
> <minimizedAffinity>
-8.51098

> <CNNscore>
0.2406649143

> <CNNaffinity>
6.0248670578

> <CNN_VS>
1.4499740601

> <CNNaffinity_variance>
0.2665854096

$$$$
[H]Oc1c([H])c([H])c([C@@]2([H])Sc3c([H])c(O[H])c([H])c([H])c3O[C@]2([H])c2c([H])c([H])c(OC([H])([H])C([H])([H])N3C([H])([H])C([H])([H])C([H])([H])C([H])([H])C3([H])[H])c([H])c2[H])c([H])c1[H]


 35 39  0  0  0  0  0  0  0  0999 V2000
  -87.3963   32.4679   -2.5505 C   0  0  0  0  0  0  0  0  0  0  0  0
  -86.0895   33.5888   -1.9651 S   0  0  0  0  0  0  0  0  0  0  0  0
  -85.2477   32.6739   -0.7149 C   0  0  0  0  0  0  0  0  0  0  0  0
  -83.9263   32.8069   -0.5074 C   0  0  0  0  0  0  0  0  0  0  0  0
  -83.2461   32.0806    0.4832 C   0  0  0  0  0  0  0  0  0  0  0  0
  -81.8811   32.2272    0.6873 O   0  0  0  0  0  0  0  0  0  0  0  0
  -83.9884   31.2094    1.2521 C   0  0  0  0  0  0  0  0  0  0  0  0
  -85.3553   31.0562    1.0545 C   0  0  0  0  0  0  0  0  0  0  0  0
  -85.9858   31.8042    0.0529 C   0  0  0  0  0  0  0  0  0  0  0  0
  -87.3166   31.7105   -0.2019 O   0  0  0  0  0  0  0  0  0  0  0  0
  -88.0285   31.8316   -1.3676 C   0  0  0  0  0  0  0  0  0  0  0  0
  -81.2886   31.5923    0.1383 H   0  0  0  0  0  0  0  0  0  0  0  0
  -91.2144   35.2316   -5.6976 O   0  0  0  0  0  0  0  0  0  0  0  0
  -90.2631   34.5337   -4.9228 C   0  0  0  0  0  0  0  0  0  0  0  0
  -89.6810   33.3828   -5.3763 C   0  0  0  0  0  0  0  0  0  0  0  0
  -88.7539   32.7179   -4.6022 C   0  0  0  0  0  0  0  0  0  0  0  0
  -88.3827   33.1774   -3.3626 C   0  0  0  0  0  0  0  0  0  0  0  0
  -88.9687   34.3336   -2.9082 C   0  0  0  0  0  0  0  0  0  0  0  0
  -89.9123   35.0161   -3.6885 C   0  0  0  0  0  0  0  0  0  0  0  0
  -92.2056   34.9903   -5.5899 H   0  0  0  0  0  0  0  0  0  0  0  0
  -88.5585   30.4564   -1.6976 C   0  0  0  0  0  0  0  0  0  0  0  0
  -89.8513   30.0974   -1.4000 C   0  0  0  0  0  0  0  0  0  0  0  0
  -90.3389   28.8199   -1.7096 C   0  0  0  0  0  0  0  0  0  0  0  0
  -89.5102   27.9122   -2.3204 C   0  0  0  0  0  0  0  0  0  0  0  0
  -88.2173   28.2532   -2.6246 C   0  0  0  0  0  0  0  0  0  0  0  0
  -87.7491   29.5131   -2.3152 C   0  0  0  0  0  0  0  0  0  0  0  0
  -89.9750   26.6560   -2.6296 O   0  0  0  0  0  0  0  0  0  0  0  0
  -90.6298   25.7664   -1.7708 C   0  0  0  0  0  0  0  0  0  0  0  0
  -89.5939   24.8673   -1.1441 C   0  0  0  0  0  0  0  0  0  0  0  0
  -90.1056   23.9829   -0.1444 N   0  0  0  0  0  0  0  0  0  0  0  0
  -91.5455   24.0128   -0.0130 C   0  0  0  0  0  0  0  0  0  0  0  0
  -91.9272   23.3978    1.3143 C   0  0  0  0  0  0  0  0  0  0  0  0
  -90.8167   22.4654    1.7420 C   0  0  0  0  0  0  0  0  0  0  0  0
  -90.3003   21.6793    0.5581 C   0  0  0  0  0  0  0  0  0  0  0  0
  -89.7233   22.6166   -0.4537 C   0  0  0  0  0  0  0  0  0  0  0  0
 13 14  1  0  0  0
 14 15  2  0  0  0
 15 16  1  0  0  0
 16 17  2  0  0  0
 17 18  1  0  0  0
 18 19  2  0  0  0
 17  1  1  0  0  0
  1  2  1  0  0  0
  2  3  1  0  0  0
  3  4  2  0  0  0
  4  5  1  0  0  0
  5  6  1  0  0  0
  5  7  2  0  0  0
  7  8  1  0  0  0
  8  9  2  0  0  0
  9 10  1  0  0  0
 10 11  1  0  0  0
 11 21  1  0  0  0
 21 22  2  0  0  0
 22 23  1  0  0  0
 23 24  2  0  0  0
 24 27  1  0  0  0
 27 28  1  0  0  0
 28 29  1  0  0  0
 29 30  1  0  0  0
 30 31  1  0  0  0
 31 32  1  0  0  0
 32 33  1  0  0  0
 33 34  1  0  0  0
 34 35  1  0  0  0
 24 25  1  0  0  0
 25 26  2  0  0  0
 19 14  1  0  0  0
 11  1  1  0  0  0
 26 21  1  0  0  0
  9  3  1  0  0  0
 35 30  1  0  0  0
 13 20  1  0  0  0
  6 12  1  0  0  0
M  END
> <minimizedAffinity>
-8.69395

> <CNNscore>
0.1906066537

> <CNNaffinity>
6.0780630112

> <CNN_VS>
1.1585192680

> <CNNaffinity_variance>
0.2492661029

$$$$
[H]Oc1c([H])c([H])c([C@@]2([H])Sc3c([H])c(O[H])c([H])c([H])c3O[C@]2([H])c2c([H])c([H])c(OC([H])([H])C([H])([H])N3C([H])([H])C([H])([H])C([H])([H])C([H])([H])C3([H])[H])c([H])c2[H])c([H])c1[H]


 35 39  0  0  0  0  0  0  0  0999 V2000
  -87.4266   32.6568   -2.6638 C   0  0  0  0  0  0  0  0  0  0  0  0
  -86.1199   33.7286   -1.9922 S   0  0  0  0  0  0  0  0  0  0  0  0
  -85.3111   32.7356   -0.7804 C   0  0  0  0  0  0  0  0  0  0  0  0
  -83.9926   32.8422   -0.5416 C   0  0  0  0  0  0  0  0  0  0  0  0
  -83.3385   32.0540    0.4188 C   0  0  0  0  0  0  0  0  0  0  0  0
  -81.9762   32.1738    0.6558 O   0  0  0  0  0  0  0  0  0  0  0  0
  -84.1039   31.1492    1.1237 C   0  0  0  0  0  0  0  0  0  0  0  0
  -85.4682   31.0225    0.8928 C   0  0  0  0  0  0  0  0  0  0  0  0
  -86.0722   31.8324   -0.0765 C   0  0  0  0  0  0  0  0  0  0  0  0
  -87.3988   31.7679   -0.3605 O   0  0  0  0  0  0  0  0  0  0  0  0
  -88.0873   31.9622   -1.5303 C   0  0  0  0  0  0  0  0  0  0  0  0
  -81.3798   31.5642    0.0828 H   0  0  0  0  0  0  0  0  0  0  0  0
  -91.1709   35.6107   -5.7256 O   0  0  0  0  0  0  0  0  0  0  0  0
  -90.2390   34.8842   -4.9535 C   0  0  0  0  0  0  0  0  0  0  0  0
  -89.9059   35.2740   -3.6861 C   0  0  0  0  0  0  0  0  0  0  0  0
  -88.9931   34.5485   -2.9503 C   0  0  0  0  0  0  0  0  0  0  0  0
  -88.3903   33.4217   -3.4525 C   0  0  0  0  0  0  0  0  0  0  0  0
  -88.7257   33.0315   -4.7261 C   0  0  0  0  0  0  0  0  0  0  0  0
  -89.6526   33.7631   -5.4814 C   0  0  0  0  0  0  0  0  0  0  0  0
  -90.8254   36.3687   -6.3241 H   0  0  0  0  0  0  0  0  0  0  0  0
  -88.6247   30.6136   -1.9469 C   0  0  0  0  0  0  0  0  0  0  0  0
  -89.9738   30.3942   -2.0906 C   0  0  0  0  0  0  0  0  0  0  0  0
  -90.4676   29.1407   -2.4787 C   0  0  0  0  0  0  0  0  0  0  0  0
  -89.5878   28.1150   -2.7193 C   0  0  0  0  0  0  0  0  0  0  0  0
  -88.2384   28.3160   -2.5809 C   0  0  0  0  0  0  0  0  0  0  0  0
  -87.7647   29.5536   -2.1985 C   0  0  0  0  0  0  0  0  0  0  0  0
  -90.0579   26.8808   -3.1006 O   0  0  0  0  0  0  0  0  0  0  0  0
  -91.0232   26.1091   -2.4446 C   0  0  0  0  0  0  0  0  0  0  0  0
  -92.1107   25.7736   -3.4340 C   0  0  0  0  0  0  0  0  0  0  0  0
  -92.4600   26.8443   -4.3143 N   0  0  0  0  0  0  0  0  0  0  0  0
  -92.9536   26.4102   -5.6025 C   0  0  0  0  0  0  0  0  0  0  0  0
  -92.8770   27.5692   -6.5702 C   0  0  0  0  0  0  0  0  0  0  0  0
  -92.9023   28.8543   -5.7744 C   0  0  0  0  0  0  0  0  0  0  0  0
  -93.9002   28.7564   -4.6427 C   0  0  0  0  0  0  0  0  0  0  0  0
  -93.4911   27.6658   -3.7055 C   0  0  0  0  0  0  0  0  0  0  0  0
 13 14  1  0  0  0
 14 15  2  0  0  0
 15 16  1  0  0  0
 16 17  2  0  0  0
 17 18  1  0  0  0
 18 19  2  0  0  0
 17  1  1  0  0  0
  1  2  1  0  0  0
  2  3  1  0  0  0
  3  4  2  0  0  0
  4  5  1  0  0  0
  5  6  1  0  0  0
  5  7  2  0  0  0
  7  8  1  0  0  0
  8  9  2  0  0  0
  9 10  1  0  0  0
 10 11  1  0  0  0
 11 21  1  0  0  0
 21 22  2  0  0  0
 22 23  1  0  0  0
 23 24  2  0  0  0
 24 27  1  0  0  0
 27 28  1  0  0  0
 28 29  1  0  0  0
 29 30  1  0  0  0
 30 31  1  0  0  0
 31 32  1  0  0  0
 32 33  1  0  0  0
 33 34  1  0  0  0
 34 35  1  0  0  0
 24 25  1  0  0  0
 25 26  2  0  0  0
 19 14  1  0  0  0
 11  1  1  0  0  0
 26 21  1  0  0  0
  9  3  1  0  0  0
 35 30  1  0  0  0
 13 20  1  0  0  0
  6 12  1  0  0  0
M  END
> <minimizedAffinity>
-8.59370

> <CNNscore>
0.1897152662

> <CNNaffinity>
5.9705648422

> <CNN_VS>
1.1327073574

> <CNNaffinity_variance>
0.4034148753

$$$$
[H]Oc1c([H])c([H])c([C@@]2([H])Sc3c([H])c(O[H])c([H])c([H])c3O[C@]2([H])c2c([H])c([H])c(OC([H])([H])C([H])([H])N3C([H])([H])C([H])([H])C([H])([H])C([H])([H])C3([H])[H])c([H])c2[H])c([H])c1[H]


 35 39  0  0  0  0  0  0  0  0999 V2000
  -90.4672   28.0890   -0.1577 C   0  0  0  0  0  0  0  0  0  0  0  0
  -91.8115   27.0637   -0.8275 S   0  0  0  0  0  0  0  0  0  0  0  0
  -92.0879   27.6986   -2.4489 C   0  0  0  0  0  0  0  0  0  0  0  0
  -92.4606   26.9044   -3.4673 C   0  0  0  0  0  0  0  0  0  0  0  0
  -92.6800   27.3996   -4.7627 C   0  0  0  0  0  0  0  0  0  0  0  0
  -93.0647   26.5687   -5.8057 O   0  0  0  0  0  0  0  0  0  0  0  0
  -92.4981   28.7515   -4.9634 C   0  0  0  0  0  0  0  0  0  0  0  0
  -92.1129   29.5906   -3.9250 C   0  0  0  0  0  0  0  0  0  0  0  0
  -91.9067   29.0465   -2.6515 C   0  0  0  0  0  0  0  0  0  0  0  0
  -91.5293   29.7999   -1.5863 O   0  0  0  0  0  0  0  0  0  0  0  0
  -90.7490   29.5064   -0.4975 C   0  0  0  0  0  0  0  0  0  0  0  0
  -92.2910   26.1566   -6.3416 H   0  0  0  0  0  0  0  0  0  0  0  0
  -89.9346   27.3810    5.4400 O   0  0  0  0  0  0  0  0  0  0  0  0
  -90.0571   27.5491    4.0439 C   0  0  0  0  0  0  0  0  0  0  0  0
  -89.2903   26.8301    3.1697 C   0  0  0  0  0  0  0  0  0  0  0  0
  -89.4273   27.0109    1.8098 C   0  0  0  0  0  0  0  0  0  0  0  0
  -90.3262   27.9068    1.2855 C   0  0  0  0  0  0  0  0  0  0  0  0
  -91.0956   28.6287    2.1650 C   0  0  0  0  0  0  0  0  0  0  0  0
  -90.9628   28.4514    3.5492 C   0  0  0  0  0  0  0  0  0  0  0  0
  -89.2618   27.9668    5.9464 H   0  0  0  0  0  0  0  0  0  0  0  0
  -89.4742   30.3017   -0.6499 C   0  0  0  0  0  0  0  0  0  0  0  0
  -89.4824   31.6760   -0.6382 C   0  0  0  0  0  0  0  0  0  0  0  0
  -88.2960   32.4098   -0.7787 C   0  0  0  0  0  0  0  0  0  0  0  0
  -87.1058   31.7435   -0.9306 C   0  0  0  0  0  0  0  0  0  0  0  0
  -87.0787   30.3725   -0.9446 C   0  0  0  0  0  0  0  0  0  0  0  0
  -88.2525   29.6616   -0.8054 C   0  0  0  0  0  0  0  0  0  0  0  0
  -85.9348   32.4501   -1.0694 O   0  0  0  0  0  0  0  0  0  0  0  0
  -85.1655   33.0126   -0.0450 C   0  0  0  0  0  0  0  0  0  0  0  0
  -83.9319   32.1647    0.1380 C   0  0  0  0  0  0  0  0  0  0  0  0
  -84.1147   31.0306    0.9889 N   0  0  0  0  0  0  0  0  0  0  0  0
  -82.8817   30.4694    1.4950 C   0  0  0  0  0  0  0  0  0  0  0  0
  -83.1537   29.0710    2.0011 C   0  0  0  0  0  0  0  0  0  0  0  0
  -84.6192   28.9725    2.3589 C   0  0  0  0  0  0  0  0  0  0  0  0
  -85.0797   30.2330    3.0554 C   0  0  0  0  0  0  0  0  0  0  0  0
  -84.9289   31.3999    2.1332 C   0  0  0  0  0  0  0  0  0  0  0  0
 13 14  1  0  0  0
 14 15  2  0  0  0
 15 16  1  0  0  0
 16 17  2  0  0  0
 17 18  1  0  0  0
 18 19  2  0  0  0
 17  1  1  0  0  0
  1  2  1  0  0  0
  2  3  1  0  0  0
  3  4  2  0  0  0
  4  5  1  0  0  0
  5  6  1  0  0  0
  5  7  2  0  0  0
  7  8  1  0  0  0
  8  9  2  0  0  0
  9 10  1  0  0  0
 10 11  1  0  0  0
 11 21  1  0  0  0
 21 22  2  0  0  0
 22 23  1  0  0  0
 23 24  2  0  0  0
 24 27  1  0  0  0
 27 28  1  0  0  0
 28 29  1  0  0  0
 29 30  1  0  0  0
 30 31  1  0  0  0
 31 32  1  0  0  0
 32 33  1  0  0  0
 33 34  1  0  0  0
 34 35  1  0  0  0
 24 25  1  0  0  0
 25 26  2  0  0  0
 19 14  1  0  0  0
 11  1  1  0  0  0
 26 21  1  0  0  0
  9  3  1  0  0  0
 35 30  1  0  0  0
 13 20  1  0  0  0
  6 12  1  0  0  0
M  END
> <minimizedAffinity>
-9.56398

> <CNNscore>
0.1478151530

> <CNNaffinity>
6.1022748947

> <CNN_VS>
0.9020087123

> <CNNaffinity_variance>
0.6548904181

$$$$
[H]Oc1c([H])c([H])c([C@@]2([H])Sc3c([H])c(O[H])c([H])c([H])c3O[C@]2([H])c2c([H])c([H])c(OC([H])([H])C([H])([H])N3C([H])([H])C([H])([H])C([H])([H])C([H])([H])C3([H])[H])c([H])c2[H])c([H])c1[H]


 35 39  0  0  0  0  0  0  0  0999 V2000
  -86.8957   31.9166   -0.7374 C   0  0  0  0  0  0  0  0  0  0  0  0
  -86.2952   33.5046   -1.3892 S   0  0  0  0  0  0  0  0  0  0  0  0
  -87.5347   34.0102   -2.5366 C   0  0  0  0  0  0  0  0  0  0  0  0
  -87.8394   35.3057   -2.7260 C   0  0  0  0  0  0  0  0  0  0  0  0
  -88.8269   35.7184   -3.6346 C   0  0  0  0  0  0  0  0  0  0  0  0
  -89.1320   37.0595   -3.8209 O   0  0  0  0  0  0  0  0  0  0  0  0
  -89.4882   34.7362   -4.3412 C   0  0  0  0  0  0  0  0  0  0  0  0
  -89.1893   33.3912   -4.1609 C   0  0  0  0  0  0  0  0  0  0  0  0
  -88.1957   33.0324   -3.2420 C   0  0  0  0  0  0  0  0  0  0  0  0
  -87.8466   31.7407   -3.0091 O   0  0  0  0  0  0  0  0  0  0  0  0
  -87.4060   31.1097   -1.8742 C   0  0  0  0  0  0  0  0  0  0  0  0
  -89.8684   37.4275   -3.2060 H   0  0  0  0  0  0  0  0  0  0  0  0
  -82.8186   29.1739    2.0864 O   0  0  0  0  0  0  0  0  0  0  0  0
  -83.8408   29.8456    1.3820 C   0  0  0  0  0  0  0  0  0  0  0  0
  -84.9931   29.2067    1.0172 C   0  0  0  0  0  0  0  0  0  0  0  0
  -85.9782   29.8833    0.3296 C   0  0  0  0  0  0  0  0  0  0  0  0
  -85.8445   31.2066   -0.0117 C   0  0  0  0  0  0  0  0  0  0  0  0
  -84.6860   31.8470    0.3552 C   0  0  0  0  0  0  0  0  0  0  0  0
  -83.6792   31.1670    1.0543 C   0  0  0  0  0  0  0  0  0  0  0  0
  -82.0840   28.7002    1.5496 H   0  0  0  0  0  0  0  0  0  0  0  0
  -88.5122   30.1786   -1.4378 C   0  0  0  0  0  0  0  0  0  0  0  0
  -88.6976   28.9566   -2.0387 C   0  0  0  0  0  0  0  0  0  0  0  0
  -89.7253   28.0953   -1.6291 C   0  0  0  0  0  0  0  0  0  0  0  0
  -90.5605   28.4797   -0.6100 C   0  0  0  0  0  0  0  0  0  0  0  0
  -90.3902   29.6955    0.0009 C   0  0  0  0  0  0  0  0  0  0  0  0
  -89.3756   30.5342   -0.4108 C   0  0  0  0  0  0  0  0  0  0  0  0
  -91.5722   27.6453   -0.1981 O   0  0  0  0  0  0  0  0  0  0  0  0
  -91.6761   26.2698   -0.4327 C   0  0  0  0  0  0  0  0  0  0  0  0
  -91.0476   25.5444    0.7304 C   0  0  0  0  0  0  0  0  0  0  0  0
  -90.0251   26.2818    1.4045 N   0  0  0  0  0  0  0  0  0  0  0  0
  -90.1412   26.2666    2.8459 C   0  0  0  0  0  0  0  0  0  0  0  0
  -89.3067   27.3918    3.4146 C   0  0  0  0  0  0  0  0  0  0  0  0
  -88.2238   27.7309    2.4158 C   0  0  0  0  0  0  0  0  0  0  0  0
  -87.6504   26.4704    1.8086 C   0  0  0  0  0  0  0  0  0  0  0  0
  -88.7217   25.7389    1.0653 C   0  0  0  0  0  0  0  0  0  0  0  0
 13 14  1  0  0  0
 14 15  2  0  0  0
 15 16  1  0  0  0
 16 17  2  0  0  0
 17 18  1  0  0  0
 18 19  2  0  0  0
 17  1  1  0  0  0
  1  2  1  0  0  0
  2  3  1  0  0  0
  3  4  2  0  0  0
  4  5  1  0  0  0
  5  6  1  0  0  0
  5  7  2  0  0  0
  7  8  1  0  0  0
  8  9  2  0  0  0
  9 10  1  0  0  0
 10 11  1  0  0  0
 11 21  1  0  0  0
 21 22  2  0  0  0
 22 23  1  0  0  0
 23 24  2  0  0  0
 24 27  1  0  0  0
 27 28  1  0  0  0
 28 29  1  0  0  0
 29 30  1  0  0  0
 30 31  1  0  0  0
 31 32  1  0  0  0
 32 33  1  0  0  0
 33 34  1  0  0  0
 34 35  1  0  0  0
 24 25  1  0  0  0
 25 26  2  0  0  0
 19 14  1  0  0  0
 11  1  1  0  0  0
 26 21  1  0  0  0
  9  3  1  0  0  0
 35 30  1  0  0  0
 13 20  1  0  0  0
  6 12  1  0  0  0
M  END
> <minimizedAffinity>
-8.93118

> <CNNscore>
0.1213590428

> <CNNaffinity>
6.5103249550

> <CNN_VS>
0.7900868058

> <CNNaffinity_variance>
0.1403691322

$$$$
[H]Oc1c([H])c([H])c([C@@]2([H])Sc3c([H])c(O[H])c([H])c([H])c3O[C@]2([H])c2c([H])c([H])c(OC([H])([H])C([H])([H])N3C([H])([H])C([H])([H])C([H])([H])C([H])([H])C3([H])[H])c([H])c2[H])c([H])c1[H]


 35 39  0  0  0  0  0  0  0  0999 V2000
  -90.6822   27.5618    0.2715 C   0  0  0  0  0  0  0  0  0  0  0  0
  -91.9330   26.4087   -0.3711 S   0  0  0  0  0  0  0  0  0  0  0  0
  -92.2890   26.9996   -1.9936 C   0  0  0  0  0  0  0  0  0  0  0  0
  -92.5989   26.1644   -3.0002 C   0  0  0  0  0  0  0  0  0  0  0  0
  -92.8807   26.6246   -4.2964 C   0  0  0  0  0  0  0  0  0  0  0  0
  -93.1994   25.7515   -5.3272 O   0  0  0  0  0  0  0  0  0  0  0  0
  -92.8292   27.9857   -4.5107 C   0  0  0  0  0  0  0  0  0  0  0  0
  -92.5109   28.8670   -3.4846 C   0  0  0  0  0  0  0  0  0  0  0  0
  -92.2379   28.3566   -2.2097 C   0  0  0  0  0  0  0  0  0  0  0  0
  -91.9189   29.1520   -1.1561 O   0  0  0  0  0  0  0  0  0  0  0  0
  -91.1003   28.9432   -0.0759 C   0  0  0  0  0  0  0  0  0  0  0  0
  -92.3975   25.4088   -5.8704 H   0  0  0  0  0  0  0  0  0  0  0  0
  -89.9841   26.9596    5.8634 O   0  0  0  0  0  0  0  0  0  0  0  0
  -90.1654   27.1203    4.4729 C   0  0  0  0  0  0  0  0  0  0  0  0
  -90.8273   28.2015    3.9609 C   0  0  0  0  0  0  0  0  0  0  0  0
  -90.9923   28.3377    2.5988 C   0  0  0  0  0  0  0  0  0  0  0  0
  -90.5058   27.4072    1.7140 C   0  0  0  0  0  0  0  0  0  0  0  0
  -89.8414   26.3213    2.2299 C   0  0  0  0  0  0  0  0  0  0  0  0
  -89.6691   26.1747    3.6133 C   0  0  0  0  0  0  0  0  0  0  0  0
  -90.6994   26.4514    6.3948 H   0  0  0  0  0  0  0  0  0  0  0  0
  -89.9079   29.8531   -0.2525 C   0  0  0  0  0  0  0  0  0  0  0  0
  -90.0586   31.2127   -0.3852 C   0  0  0  0  0  0  0  0  0  0  0  0
  -88.9483   32.0532   -0.5476 C   0  0  0  0  0  0  0  0  0  0  0  0
  -87.6889   31.5082   -0.5745 C   0  0  0  0  0  0  0  0  0  0  0  0
  -87.5197   30.1538   -0.4435 C   0  0  0  0  0  0  0  0  0  0  0  0
  -88.6197   29.3371   -0.2843 C   0  0  0  0  0  0  0  0  0  0  0  0
  -86.5913   32.3205   -0.7330 O   0  0  0  0  0  0  0  0  0  0  0  0
  -86.5616   33.5885   -1.3236 C   0  0  0  0  0  0  0  0  0  0  0  0
  -86.3505   33.4132   -2.8065 C   0  0  0  0  0  0  0  0  0  0  0  0
  -87.5497   33.1919   -3.5524 N   0  0  0  0  0  0  0  0  0  0  0  0
  -87.7743   34.1569   -4.6059 C   0  0  0  0  0  0  0  0  0  0  0  0
  -89.2260   34.0945   -5.0234 C   0  0  0  0  0  0  0  0  0  0  0  0
  -89.7622   32.7253   -4.6724 C   0  0  0  0  0  0  0  0  0  0  0  0
  -88.7393   31.6586   -4.9917 C   0  0  0  0  0  0  0  0  0  0  0  0
  -87.5124   31.8762   -4.1656 C   0  0  0  0  0  0  0  0  0  0  0  0
 13 14  1  0  0  0
 14 15  2  0  0  0
 15 16  1  0  0  0
 16 17  2  0  0  0
 17 18  1  0  0  0
 18 19  2  0  0  0
 17  1  1  0  0  0
  1  2  1  0  0  0
  2  3  1  0  0  0
  3  4  2  0  0  0
  4  5  1  0  0  0
  5  6  1  0  0  0
  5  7  2  0  0  0
  7  8  1  0  0  0
  8  9  2  0  0  0
  9 10  1  0  0  0
 10 11  1  0  0  0
 11 21  1  0  0  0
 21 22  2  0  0  0
 22 23  1  0  0  0
 23 24  2  0  0  0
 24 27  1  0  0  0
 27 28  1  0  0  0
 28 29  1  0  0  0
 29 30  1  0  0  0
 30 31  1  0  0  0
 31 32  1  0  0  0
 32 33  1  0  0  0
 33 34  1  0  0  0
 34 35  1  0  0  0
 24 25  1  0  0  0
 25 26  2  0  0  0
 19 14  1  0  0  0
 11  1  1  0  0  0
 26 21  1  0  0  0
  9  3  1  0  0  0
 35 30  1  0  0  0
 13 20  1  0  0  0
  6 12  1  0  0  0
M  END
> <minimizedAffinity>
-8.27209

> <CNNscore>
0.1094745621

> <CNNaffinity>
5.7030591965

> <CNN_VS>
0.6243398786

> <CNNaffinity_variance>
0.6252018213

$$$$
[H]Oc1c([H])c([H])c([C@@]2([H])Sc3c([H])c(O[H])c([H])c([H])c3O[C@]2([H])c2c([H])c([H])c(OC([H])([H])C([H])([H])N3C([H])([H])C([H])([H])C([H])([H])C([H])([H])C3([H])[H])c([H])c2[H])c([H])c1[H]


 35 39  0  0  0  0  0  0  0  0999 V2000
  -86.6232   29.1453   -0.0507 C   0  0  0  0  0  0  0  0  0  0  0  0
  -86.6307   27.6470    0.9798 S   0  0  0  0  0  0  0  0  0  0  0  0
  -88.2282   26.9443    0.7291 C   0  0  0  0  0  0  0  0  0  0  0  0
  -88.4265   25.6148    0.7330 C   0  0  0  0  0  0  0  0  0  0  0  0
  -89.6938   25.0452    0.5310 C   0  0  0  0  0  0  0  0  0  0  0  0
  -89.8852   23.6706    0.5374 O   0  0  0  0  0  0  0  0  0  0  0  0
  -90.7501   25.9071    0.3243 C   0  0  0  0  0  0  0  0  0  0  0  0
  -90.5676   27.2846    0.3162 C   0  0  0  0  0  0  0  0  0  0  0  0
  -89.2830   27.8018    0.5224 C   0  0  0  0  0  0  0  0  0  0  0  0
  -89.0233   29.1349    0.5284 O   0  0  0  0  0  0  0  0  0  0  0  0
  -87.9181   29.8464    0.1375 C   0  0  0  0  0  0  0  0  0  0  0  0
  -89.7867   23.2135   -0.3775 H   0  0  0  0  0  0  0  0  0  0  0  0
  -82.2602   32.5251    1.2380 O   0  0  0  0  0  0  0  0  0  0  0  0
  -83.3404   31.6731    0.9224 C   0  0  0  0  0  0  0  0  0  0  0  0
  -83.3601   30.3676    1.3278 C   0  0  0  0  0  0  0  0  0  0  0  0
  -84.4262   29.5538    1.0081 C   0  0  0  0  0  0  0  0  0  0  0  0
  -85.4957   30.0143    0.2804 C   0  0  0  0  0  0  0  0  0  0  0  0
  -85.4743   31.3260   -0.1266 C   0  0  0  0  0  0  0  0  0  0  0  0
  -84.3945   32.1605    0.1939 C   0  0  0  0  0  0  0  0  0  0  0  0
  -81.4707   32.5770    0.5850 H   0  0  0  0  0  0  0  0  0  0  0  0
  -88.3134   30.6176   -1.0995 C   0  0  0  0  0  0  0  0  0  0  0  0
  -88.0523   30.1330   -2.3587 C   0  0  0  0  0  0  0  0  0  0  0  0
  -88.4224   30.8523   -3.5039 C   0  0  0  0  0  0  0  0  0  0  0  0
  -89.0565   32.0615   -3.3644 C   0  0  0  0  0  0  0  0  0  0  0  0
  -89.3250   32.5604   -2.1156 C   0  0  0  0  0  0  0  0  0  0  0  0
  -88.9560   31.8435   -0.9965 C   0  0  0  0  0  0  0  0  0  0  0  0
  -89.4251   32.7774   -4.4785 O   0  0  0  0  0  0  0  0  0  0  0  0
  -90.2110   33.9345   -4.5127 C   0  0  0  0  0  0  0  0  0  0  0  0
  -89.6691   34.8409   -5.5892 C   0  0  0  0  0  0  0  0  0  0  0  0
  -90.3074   34.6969   -6.8601 N   0  0  0  0  0  0  0  0  0  0  0  0
  -91.7115   34.3601   -6.7790 C   0  0  0  0  0  0  0  0  0  0  0  0
  -92.1618   33.8200   -8.1173 C   0  0  0  0  0  0  0  0  0  0  0  0
  -91.2338   34.3577   -9.1827 C   0  0  0  0  0  0  0  0  0  0  0  0
  -90.9098   35.8107   -8.9179 C   0  0  0  0  0  0  0  0  0  0  0  0
  -90.1978   35.9359   -7.6093 C   0  0  0  0  0  0  0  0  0  0  0  0
 13 14  1  0  0  0
 14 15  2  0  0  0
 15 16  1  0  0  0
 16 17  2  0  0  0
 17 18  1  0  0  0
 18 19  2  0  0  0
 17  1  1  0  0  0
  1  2  1  0  0  0
  2  3  1  0  0  0
  3  4  2  0  0  0
  4  5  1  0  0  0
  5  6  1  0  0  0
  5  7  2  0  0  0
  7  8  1  0  0  0
  8  9  2  0  0  0
  9 10  1  0  0  0
 10 11  1  0  0  0
 11 21  1  0  0  0
 21 22  2  0  0  0
 22 23  1  0  0  0
 23 24  2  0  0  0
 24 27  1  0  0  0
 27 28  1  0  0  0
 28 29  1  0  0  0
 29 30  1  0  0  0
 30 31  1  0  0  0
 31 32  1  0  0  0
 32 33  1  0  0  0
 33 34  1  0  0  0
 34 35  1  0  0  0
 24 25  1  0  0  0
 25 26  2  0  0  0
 19 14  1  0  0  0
 11  1  1  0  0  0
 26 21  1  0  0  0
  9  3  1  0  0  0
 35 30  1  0  0  0
 13 20  1  0  0  0
  6 12  1  0  0  0
M  END
> <minimizedAffinity>
-8.74541

> <CNNscore>
0.0984689593

> <CNNaffinity>
6.0383176804

> <CNN_VS>
0.5945868492

> <CNNaffinity_variance>
0.1804247200

$$$$
[H]Oc1c([H])c([H])c([C@@]2([H])Sc3c([H])c(O[H])c([H])c([H])c3O[C@]2([H])c2c([H])c([H])c(OC([H])([H])C([H])([H])N3C([H])([H])C([H])([H])C([H])([H])C([H])([H])C3([H])[H])c([H])c2[H])c([H])c1[H]


 35 39  0  0  0  0  0  0  0  0999 V2000
  -90.1506   29.7722   -0.5709 C   0  0  0  0  0  0  0  0  0  0  0  0
  -91.4137   28.7366    0.2287 S   0  0  0  0  0  0  0  0  0  0  0  0
  -90.5645   27.9478    1.5573 C   0  0  0  0  0  0  0  0  0  0  0  0
  -91.1762   27.6626    2.7198 C   0  0  0  0  0  0  0  0  0  0  0  0
  -90.5080   27.0378    3.7849 C   0  0  0  0  0  0  0  0  0  0  0  0
  -91.1513   26.7486    4.9803 O   0  0  0  0  0  0  0  0  0  0  0  0
  -89.1794   26.7191    3.5997 C   0  0  0  0  0  0  0  0  0  0  0  0
  -88.5275   27.0050    2.4064 C   0  0  0  0  0  0  0  0  0  0  0  0
  -89.2393   27.6295    1.3751 C   0  0  0  0  0  0  0  0  0  0  0  0
  -88.6735   27.9419    0.1805 O   0  0  0  0  0  0  0  0  0  0  0  0
  -88.9031   28.9763   -0.6900 C   0  0  0  0  0  0  0  0  0  0  0  0
  -91.1068   27.4913    5.6889 H   0  0  0  0  0  0  0  0  0  0  0  0
  -91.8872   31.6336   -5.6343 O   0  0  0  0  0  0  0  0  0  0  0  0
  -91.4613   31.1587   -4.3752 C   0  0  0  0  0  0  0  0  0  0  0  0
  -91.7519   29.8900   -3.9567 C   0  0  0  0  0  0  0  0  0  0  0  0
  -91.3252   29.4476   -2.7225 C   0  0  0  0  0  0  0  0  0  0  0  0
  -90.6018   30.2509   -1.8759 C   0  0  0  0  0  0  0  0  0  0  0  0
  -90.3110   31.5254   -2.2975 C   0  0  0  0  0  0  0  0  0  0  0  0
  -90.7408   31.9836   -3.5507 C   0  0  0  0  0  0  0  0  0  0  0  0
  -92.8007   32.0955   -5.6999 H   0  0  0  0  0  0  0  0  0  0  0  0
  -87.6786   29.8593   -0.6477 C   0  0  0  0  0  0  0  0  0  0  0  0
  -86.4276   29.3616   -0.9235 C   0  0  0  0  0  0  0  0  0  0  0  0
  -85.2941   30.1858   -0.8841 C   0  0  0  0  0  0  0  0  0  0  0  0
  -85.4368   31.5129   -0.5643 C   0  0  0  0  0  0  0  0  0  0  0  0
  -86.6774   32.0266   -0.2862 C   0  0  0  0  0  0  0  0  0  0  0  0
  -87.7851   31.2058   -0.3282 C   0  0  0  0  0  0  0  0  0  0  0  0
  -84.3341   32.3326   -0.5220 O   0  0  0  0  0  0  0  0  0  0  0  0
  -83.0237   31.9635   -0.1992 C   0  0  0  0  0  0  0  0  0  0  0  0
  -82.9568   31.7131    1.2864 C   0  0  0  0  0  0  0  0  0  0  0  0
  -83.7003   30.5750    1.7283 N   0  0  0  0  0  0  0  0  0  0  0  0
  -82.8787   29.4749    2.1823 C   0  0  0  0  0  0  0  0  0  0  0  0
  -83.7175   28.2174    2.2077 C   0  0  0  0  0  0  0  0  0  0  0  0
  -85.1688   28.6178    2.3451 C   0  0  0  0  0  0  0  0  0  0  0  0
  -85.3128   29.7556    3.3304 C   0  0  0  0  0  0  0  0  0  0  0  0
  -84.5714   30.9524    2.8272 C   0  0  0  0  0  0  0  0  0  0  0  0
 13 14  1  0  0  0
 14 15  2  0  0  0
 15 16  1  0  0  0
 16 17  2  0  0  0
 17 18  1  0  0  0
 18 19  2  0  0  0
 17  1  1  0  0  0
  1  2  1  0  0  0
  2  3  1  0  0  0
  3  4  2  0  0  0
  4  5  1  0  0  0
  5  6  1  0  0  0
  5  7  2  0  0  0
  7  8  1  0  0  0
  8  9  2  0  0  0
  9 10  1  0  0  0
 10 11  1  0  0  0
 11 21  1  0  0  0
 21 22  2  0  0  0
 22 23  1  0  0  0
 23 24  2  0  0  0
 24 27  1  0  0  0
 27 28  1  0  0  0
 28 29  1  0  0  0
 29 30  1  0  0  0
 30 31  1  0  0  0
 31 32  1  0  0  0
 32 33  1  0  0  0
 33 34  1  0  0  0
 34 35  1  0  0  0
 24 25  1  0  0  0
 25 26  2  0  0  0
 19 14  1  0  0  0
 11  1  1  0  0  0
 26 21  1  0  0  0
  9  3  1  0  0  0
 35 30  1  0  0  0
 13 20  1  0  0  0
  6 12  1  0  0  0
M  END
> <minimizedAffinity>
-8.58379

> <CNNscore>
0.0966149792

> <CNNaffinity>
6.4291791916

> <CNN_VS>
0.6211550236

> <CNNaffinity_variance>
0.2641932964

$$$$
[H]O[C@@]1([H])C([H])([H])C([H])([H])[C@]2([H])[C@]1(C([H])([H])[H])C([H])([H])C([H])([H])[C@]1([H])[C@]3(C([H])([H])[H])C(=C([H])C(=O)C([H])([H])C3([H])[H])C([H])([H])C([H])([H])[C@@]21[H]


 22 25  0  0  0  0  0  0  0  0999 V2000
  -88.2268   32.5953   -0.5785 C   0  0  0  0  0  0  0  0  0  0  0  0
  -87.3058   31.8576   -1.5132 C   0  0  0  0  0  0  0  0  0  0  0  0
  -87.3927   30.3777   -1.3601 C   0  0  0  0  0  0  0  0  0  0  0  0
  -86.9087   30.0158    0.0221 C   0  0  0  0  0  0  0  0  0  0  0  0
  -85.4532   30.4073    0.1666 C   0  0  0  0  0  0  0  0  0  0  0  0
  -85.2515   31.9050   -0.0539 C   0  0  0  0  0  0  0  0  0  0  0  0
  -83.7550   32.1391   -0.2081 C   0  0  0  0  0  0  0  0  0  0  0  0
  -82.9581   31.6121    0.9310 C   0  0  0  0  0  0  0  0  0  0  0  0
  -83.4172   30.3158    1.4520 C   0  0  0  0  0  0  0  0  0  0  0  0
  -82.5020   29.4643    1.8845 C   0  0  0  0  0  0  0  0  0  0  0  0
  -82.8417   28.1609    2.4173 C   0  0  0  0  0  0  0  0  0  0  0  0
  -82.0166   27.2294    2.5173 O   0  0  0  0  0  0  0  0  0  0  0  0
  -84.2725   27.9823    2.8541 C   0  0  0  0  0  0  0  0  0  0  0  0
  -85.1205   28.5391    1.7285 C   0  0  0  0  0  0  0  0  0  0  0  0
  -84.8769   29.9961    1.4803 C   0  0  0  0  0  0  0  0  0  0  0  0
  -85.4893   30.7763    2.6258 C   0  0  0  0  0  0  0  0  0  0  0  0
  -85.8595   32.2674   -1.3456 C   0  0  0  0  0  0  0  0  0  0  0  0
  -85.9221   33.7135   -1.6710 C   0  0  0  0  0  0  0  0  0  0  0  0
  -86.8890   33.7332   -2.8576 C   0  0  0  0  0  0  0  0  0  0  0  0
  -87.4629   32.3323   -2.9425 C   0  0  0  0  0  0  0  0  0  0  0  0
  -88.7268   32.2766   -3.4229 O   0  0  0  0  0  0  0  0  0  0  0  0
  -89.4470   32.4993   -2.8101 H   0  0  0  0  0  0  0  0  0  0  0  0
  2  1  1  0  0  0
  2  3  1  0  0  0
  3  4  1  0  0  0
  4  5  1  0  0  0
  5  6  1  0  0  0
  6  7  1  0  0  0
  7  8  1  0  0  0
  8  9  1  0  0  0
  9 10  2  0  0  0
 10 11  1  0  0  0
 11 12  2  0  0  0
 11 13  1  0  0  0
 13 14  1  0  0  0
 14 15  1  0  0  0
 15 16  1  0  0  0
  6 17  1  0  0  0
 17 18  1  0  0  0
 18 19  1  0  0  0
 19 20  1  0  0  0
 20 21  1  0  0  0
 17  2  1  0  0  0
 20  2  1  0  0  0
 15  5  1  0  0  0
 15  9  1  0  0  0
 21 22  1  0  0  0
M  END
> <minimizedAffinity>
-10.69682

> <CNNscore>
0.8110411763

> <CNNaffinity>
6.6101217270

> <CNN_VS>
5.3610811234

> <CNNaffinity_variance>
0.1212032810

$$$$
[H]O[C@@]1([H])C([H])([H])C([H])([H])[C@]2([H])[C@]1(C([H])([H])[H])C([H])([H])C([H])([H])[C@]1([H])[C@]3(C([H])([H])[H])C(=C([H])C(=O)C([H])([H])C3([H])[H])C([H])([H])C([H])([H])[C@@]21[H]


 22 25  0  0  0  0  0  0  0  0999 V2000
  -89.7047   29.8674   -0.3739 C   0  0  0  0  0  0  0  0  0  0  0  0
  -88.5859   29.6246   -1.3512 C   0  0  0  0  0  0  0  0  0  0  0  0
  -87.9861   28.2671   -1.2161 C   0  0  0  0  0  0  0  0  0  0  0  0
  -87.3380   28.1693    0.1425 C   0  0  0  0  0  0  0  0  0  0  0  0
  -86.2141   29.1792    0.2404 C   0  0  0  0  0  0  0  0  0  0  0  0
  -86.7224   30.6045    0.0341 C   0  0  0  0  0  0  0  0  0  0  0  0
  -85.5021   31.4918   -0.1703 C   0  0  0  0  0  0  0  0  0  0  0  0
  -84.5099   31.3880    0.9320 C   0  0  0  0  0  0  0  0  0  0  0  0
  -84.3105   30.0264    1.4506 C   0  0  0  0  0  0  0  0  0  0  0  0
  -83.0928   29.6846    1.8379 C   0  0  0  0  0  0  0  0  0  0  0  0
  -82.7836   28.3710    2.3640 C   0  0  0  0  0  0  0  0  0  0  0  0
  -81.6226   27.9157    2.4212 O   0  0  0  0  0  0  0  0  0  0  0  0
  -83.9598   27.5640    2.8492 C   0  0  0  0  0  0  0  0  0  0  0  0
  -85.0105   27.6712    1.7627 C   0  0  0  0  0  0  0  0  0  0  0  0
  -85.4641   29.0791    1.5266 C   0  0  0  0  0  0  0  0  0  0  0  0
  -86.3193   29.5006    2.7043 C   0  0  0  0  0  0  0  0  0  0  0  0
  -87.4777   30.6469   -1.2298 C   0  0  0  0  0  0  0  0  0  0  0  0
  -88.2020   31.9058   -1.5322 C   0  0  0  0  0  0  0  0  0  0  0  0
  -89.1172   31.4803   -2.6830 C   0  0  0  0  0  0  0  0  0  0  0  0
  -88.9959   29.9712   -2.7672 C   0  0  0  0  0  0  0  0  0  0  0  0
  -90.1144   29.3462   -3.2027 O   0  0  0  0  0  0  0  0  0  0  0  0
  -90.8332   29.2200   -2.5615 H   0  0  0  0  0  0  0  0  0  0  0  0
  2  1  1  0  0  0
  2  3  1  0  0  0
  3  4  1  0  0  0
  4  5  1  0  0  0
  5  6  1  0  0  0
  6  7  1  0  0  0
  7  8  1  0  0  0
  8  9  1  0  0  0
  9 10  2  0  0  0
 10 11  1  0  0  0
 11 12  2  0  0  0
 11 13  1  0  0  0
 13 14  1  0  0  0
 14 15  1  0  0  0
 15 16  1  0  0  0
  6 17  1  0  0  0
 17 18  1  0  0  0
 18 19  1  0  0  0
 19 20  1  0  0  0
 20 21  1  0  0  0
 17  2  1  0  0  0
 20  2  1  0  0  0
 15  5  1  0  0  0
 15  9  1  0  0  0
 21 22  1  0  0  0
M  END
> <minimizedAffinity>
-8.79946

> <CNNscore>
0.4805673063

> <CNNaffinity>
6.0927424431

> <CNN_VS>
2.9279727936

> <CNNaffinity_variance>
0.1788759232

$$$$
[H]O[C@@]1([H])C([H])([H])C([H])([H])[C@]2([H])[C@]1(C([H])([H])[H])C([H])([H])C([H])([H])[C@]1([H])[C@]3(C([H])([H])[H])C(=C([H])C(=O)C([H])([H])C3([H])[H])C([H])([H])C([H])([H])[C@@]21[H]


 22 25  0  0  0  0  0  0  0  0999 V2000
  -87.3621   33.0536   -3.5027 C   0  0  0  0  0  0  0  0  0  0  0  0
  -88.3844   32.5110   -2.5401 C   0  0  0  0  0  0  0  0  0  0  0  0
  -88.2534   33.0890   -1.1728 C   0  0  0  0  0  0  0  0  0  0  0  0
  -86.9237   32.6608   -0.6035 C   0  0  0  0  0  0  0  0  0  0  0  0
  -86.8933   31.1529   -0.4691 C   0  0  0  0  0  0  0  0  0  0  0  0
  -87.1007   30.4661   -1.8173 C   0  0  0  0  0  0  0  0  0  0  0  0
  -87.3745   28.9952   -1.5351 C   0  0  0  0  0  0  0  0  0  0  0  0
  -86.3162   28.3480   -0.7157 C   0  0  0  0  0  0  0  0  0  0  0  0
  -85.7841   29.1852    0.3699 C   0  0  0  0  0  0  0  0  0  0  0  0
  -85.4459   28.5891    1.5012 C   0  0  0  0  0  0  0  0  0  0  0  0
  -84.9121   29.3162    2.6347 C   0  0  0  0  0  0  0  0  0  0  0  0
  -84.8993   28.8557    3.7949 O   0  0  0  0  0  0  0  0  0  0  0  0
  -84.3612   30.6863    2.3359 C   0  0  0  0  0  0  0  0  0  0  0  0
  -85.4012   31.3701    1.4717 C   0  0  0  0  0  0  0  0  0  0  0  0
  -85.6405   30.6601    0.1747 C   0  0  0  0  0  0  0  0  0  0  0  0
  -84.4329   30.8840   -0.7128 C   0  0  0  0  0  0  0  0  0  0  0  0
  -88.3300   31.0038   -2.4250 C   0  0  0  0  0  0  0  0  0  0  0  0
  -88.6209   30.5898   -3.8196 C   0  0  0  0  0  0  0  0  0  0  0  0
  -89.7221   31.5736   -4.2227 C   0  0  0  0  0  0  0  0  0  0  0  0
  -89.7862   32.5977   -3.1063 C   0  0  0  0  0  0  0  0  0  0  0  0
  -90.1605   33.8350   -3.5066 O   0  0  0  0  0  0  0  0  0  0  0  0
  -89.4857   34.3893   -3.9322 H   0  0  0  0  0  0  0  0  0  0  0  0
  2  1  1  0  0  0
  2  3  1  0  0  0
  3  4  1  0  0  0
  4  5  1  0  0  0
  5  6  1  0  0  0
  6  7  1  0  0  0
  7  8  1  0  0  0
  8  9  1  0  0  0
  9 10  2  0  0  0
 10 11  1  0  0  0
 11 12  2  0  0  0
 11 13  1  0  0  0
 13 14  1  0  0  0
 14 15  1  0  0  0
 15 16  1  0  0  0
  6 17  1  0  0  0
 17 18  1  0  0  0
 18 19  1  0  0  0
 19 20  1  0  0  0
 20 21  1  0  0  0
 17  2  1  0  0  0
 20  2  1  0  0  0
 15  5  1  0  0  0
 15  9  1  0  0  0
 21 22  1  0  0  0
M  END
> <minimizedAffinity>
-7.86151

> <CNNscore>
0.4472853839

> <CNNaffinity>
5.9215574265

> <CNN_VS>
2.6486260891

> <CNNaffinity_variance>
0.3483759165

$$$$
[H]O[C@@]1([H])C([H])([H])C([H])([H])[C@]2([H])[C@]1(C([H])([H])[H])C([H])([H])C([H])([H])[C@]1([H])[C@]3(C([H])([H])[H])C(=C([H])C(=O)C([H])([H])C3([H])[H])C([H])([H])C([H])([H])[C@@]21[H]


 22 25  0  0  0  0  0  0  0  0999 V2000
  -84.7281   30.9557    2.5793 C   0  0  0  0  0  0  0  0  0  0  0  0
  -84.4012   30.2054    1.3160 C   0  0  0  0  0  0  0  0  0  0  0  0
  -83.7426   31.0623    0.2899 C   0  0  0  0  0  0  0  0  0  0  0  0
  -84.7226   32.1265   -0.1375 C   0  0  0  0  0  0  0  0  0  0  0  0
  -85.9251   31.4748   -0.7871 C   0  0  0  0  0  0  0  0  0  0  0  0
  -86.6244   30.5108    0.1689 C   0  0  0  0  0  0  0  0  0  0  0  0
  -87.5973   29.6828   -0.6595 C   0  0  0  0  0  0  0  0  0  0  0  0
  -88.5518   30.5100   -1.4437 C   0  0  0  0  0  0  0  0  0  0  0  0
  -87.9655   31.7168   -2.0458 C   0  0  0  0  0  0  0  0  0  0  0  0
  -88.4132   32.0960   -3.2313 C   0  0  0  0  0  0  0  0  0  0  0  0
  -87.9071   33.2680   -3.9158 C   0  0  0  0  0  0  0  0  0  0  0  0
  -88.0571   33.4601   -5.1401 O   0  0  0  0  0  0  0  0  0  0  0  0
  -87.1742   34.2653   -3.0565 C   0  0  0  0  0  0  0  0  0  0  0  0
  -86.2093   33.4549   -2.2149 C   0  0  0  0  0  0  0  0  0  0  0  0
  -86.8993   32.4718   -1.3199 C   0  0  0  0  0  0  0  0  0  0  0  0
  -87.5718   33.2448   -0.2036 C   0  0  0  0  0  0  0  0  0  0  0  0
  -85.6204   29.5666    0.6887 C   0  0  0  0  0  0  0  0  0  0  0  0
  -86.0626   28.6500    1.7682 C   0  0  0  0  0  0  0  0  0  0  0  0
  -84.7320   28.0940    2.2813 C   0  0  0  0  0  0  0  0  0  0  0  0
  -83.6545   28.9204    1.6067 C   0  0  0  0  0  0  0  0  0  0  0  0
  -82.5282   29.0729    2.3412 O   0  0  0  0  0  0  0  0  0  0  0  0
  -82.5453   29.7350    3.0518 H   0  0  0  0  0  0  0  0  0  0  0  0
  2  1  1  0  0  0
  2  3  1  0  0  0
  3  4  1  0  0  0
  4  5  1  0  0  0
  5  6  1  0  0  0
  6  7  1  0  0  0
  7  8  1  0  0  0
  8  9  1  0  0  0
  9 10  2  0  0  0
 10 11  1  0  0  0
 11 12  2  0  0  0
 11 13  1  0  0  0
 13 14  1  0  0  0
 14 15  1  0  0  0
 15 16  1  0  0  0
  6 17  1  0  0  0
 17 18  1  0  0  0
 18 19  1  0  0  0
 19 20  1  0  0  0
 20 21  1  0  0  0
 17  2  1  0  0  0
 20  2  1  0  0  0
 15  5  1  0  0  0
 15  9  1  0  0  0
 21 22  1  0  0  0
M  END
> <minimizedAffinity>
-8.59825

> <CNNscore>
0.3576866984

> <CNNaffinity>
6.0420446396

> <CNN_VS>
2.1611590385

> <CNNaffinity_variance>
0.1163097993

$$$$
[H]O[C@@]1([H])C([H])([H])C([H])([H])[C@]2([H])[C@]1(C([H])([H])[H])C([H])([H])C([H])([H])[C@]1([H])[C@]3(C([H])([H])[H])C(=C([H])C(=O)C([H])([H])C3([H])[H])C([H])([H])C([H])([H])[C@@]21[H]


 22 25  0  0  0  0  0  0  0  0999 V2000
  -89.6942   30.7214   -2.8680 C   0  0  0  0  0  0  0  0  0  0  0  0
  -88.2493   30.5512   -3.2541 C   0  0  0  0  0  0  0  0  0  0  0  0
  -87.8182   29.1247   -3.2616 C   0  0  0  0  0  0  0  0  0  0  0  0
  -87.9042   28.5969   -1.8511 C   0  0  0  0  0  0  0  0  0  0  0  0
  -86.9432   29.3619   -0.9656 C   0  0  0  0  0  0  0  0  0  0  0  0
  -87.2583   30.8562   -0.9569 C   0  0  0  0  0  0  0  0  0  0  0  0
  -86.0704   31.5624   -0.3180 C   0  0  0  0  0  0  0  0  0  0  0  0
  -85.7317   31.0373    1.0310 C   0  0  0  0  0  0  0  0  0  0  0  0
  -85.8360   29.5764    1.1637 C   0  0  0  0  0  0  0  0  0  0  0  0
  -84.9617   28.9626    1.9437 C   0  0  0  0  0  0  0  0  0  0  0  0
  -84.9721   27.5284    2.1464 C   0  0  0  0  0  0  0  0  0  0  0  0
  -83.9915   26.8956    2.5895 O   0  0  0  0  0  0  0  0  0  0  0  0
  -86.2543   26.8235    1.7873 C   0  0  0  0  0  0  0  0  0  0  0  0
  -86.6518   27.3573    0.4261 C   0  0  0  0  0  0  0  0  0  0  0  0
  -86.9051   28.8336    0.4294 C   0  0  0  0  0  0  0  0  0  0  0  0
  -88.2111   29.0842    1.1558 C   0  0  0  0  0  0  0  0  0  0  0  0
  -87.3130   31.3247   -2.3523 C   0  0  0  0  0  0  0  0  0  0  0  0
  -87.7751   32.7174   -2.5708 C   0  0  0  0  0  0  0  0  0  0  0  0
  -88.0348   32.7358   -4.0792 C   0  0  0  0  0  0  0  0  0  0  0  0
  -87.9214   31.2933   -4.5327 C   0  0  0  0  0  0  0  0  0  0  0  0
  -88.7071   30.9783   -5.5885 O   0  0  0  0  0  0  0  0  0  0  0  0
  -89.6480   30.8144   -5.4111 H   0  0  0  0  0  0  0  0  0  0  0  0
  2  1  1  0  0  0
  2  3  1  0  0  0
  3  4  1  0  0  0
  4  5  1  0  0  0
  5  6  1  0  0  0
  6  7  1  0  0  0
  7  8  1  0  0  0
  8  9  1  0  0  0
  9 10  2  0  0  0
 10 11  1  0  0  0
 11 12  2  0  0  0
 11 13  1  0  0  0
 13 14  1  0  0  0
 14 15  1  0  0  0
 15 16  1  0  0  0
  6 17  1  0  0  0
 17 18  1  0  0  0
 18 19  1  0  0  0
 19 20  1  0  0  0
 20 21  1  0  0  0
 17  2  1  0  0  0
 20  2  1  0  0  0
 15  5  1  0  0  0
 15  9  1  0  0  0
 21 22  1  0  0  0
M  END
> <minimizedAffinity>
-9.44489

> <CNNscore>
0.3244725168

> <CNNaffinity>
6.0479297638

> <CNN_VS>
1.9623869658

> <CNNaffinity_variance>
0.2583360374

$$$$
[H]O[C@@]1([H])C([H])([H])C([H])([H])[C@]2([H])[C@]1(C([H])([H])[H])C([H])([H])C([H])([H])[C@]1([H])[C@]3(C([H])([H])[H])C(=C([H])C(=O)C([H])([H])C3([H])[H])C([H])([H])C([H])([H])[C@@]21[H]


 22 25  0  0  0  0  0  0  0  0999 V2000
  -89.4551   28.4992    0.0404 C   0  0  0  0  0  0  0  0  0  0  0  0
  -88.7063   28.8250   -1.2241 C   0  0  0  0  0  0  0  0  0  0  0  0
  -87.4075   28.1017   -1.3283 C   0  0  0  0  0  0  0  0  0  0  0  0
  -86.5089   28.5800   -0.2151 C   0  0  0  0  0  0  0  0  0  0  0  0
  -86.2269   30.0571   -0.3924 C   0  0  0  0  0  0  0  0  0  0  0  0
  -87.5143   30.8786   -0.3792 C   0  0  0  0  0  0  0  0  0  0  0  0
  -87.1628   32.2731   -0.8792 C   0  0  0  0  0  0  0  0  0  0  0  0
  -86.0635   32.9127   -0.1093 C   0  0  0  0  0  0  0  0  0  0  0  0
  -84.9701   32.0042    0.2672 C   0  0  0  0  0  0  0  0  0  0  0  0
  -83.7395   32.4890    0.2773 C   0  0  0  0  0  0  0  0  0  0  0  0
  -82.5888   31.6839    0.6320 C   0  0  0  0  0  0  0  0  0  0  0  0
  -81.4180   32.0008    0.3366 O   0  0  0  0  0  0  0  0  0  0  0  0
  -82.8828   30.4167    1.3922 C   0  0  0  0  0  0  0  0  0  0  0  0
  -84.0248   29.7479    0.6541 C   0  0  0  0  0  0  0  0  0  0  0  0
  -85.2677   30.5833    0.6225 C   0  0  0  0  0  0  0  0  0  0  0  0
  -85.8706   30.5808    2.0126 C   0  0  0  0  0  0  0  0  0  0  0  0
  -88.4375   30.3060   -1.3739 C   0  0  0  0  0  0  0  0  0  0  0  0
  -89.8153   30.8556   -1.3994 C   0  0  0  0  0  0  0  0  0  0  0  0
  -90.5536   29.8293   -2.2623 C   0  0  0  0  0  0  0  0  0  0  0  0
  -89.5856   28.6771   -2.4481 C   0  0  0  0  0  0  0  0  0  0  0  0
  -90.1783   27.4675   -2.5776 O   0  0  0  0  0  0  0  0  0  0  0  0
  -90.4883   27.0334   -1.7657 H   0  0  0  0  0  0  0  0  0  0  0  0
  2  1  1  0  0  0
  2  3  1  0  0  0
  3  4  1  0  0  0
  4  5  1  0  0  0
  5  6  1  0  0  0
  6  7  1  0  0  0
  7  8  1  0  0  0
  8  9  1  0  0  0
  9 10  2  0  0  0
 10 11  1  0  0  0
 11 12  2  0  0  0
 11 13  1  0  0  0
 13 14  1  0  0  0
 14 15  1  0  0  0
 15 16  1  0  0  0
  6 17  1  0  0  0
 17 18  1  0  0  0
 18 19  1  0  0  0
 19 20  1  0  0  0
 20 21  1  0  0  0
 17  2  1  0  0  0
 20  2  1  0  0  0
 15  5  1  0  0  0
 15  9  1  0  0  0
 21 22  1  0  0  0
M  END
> <minimizedAffinity>
-8.16909

> <CNNscore>
0.2998868227

> <CNNaffinity>
5.7975811958

> <CNN_VS>
1.7386182547

> <CNNaffinity_variance>
0.0615093820

$$$$
[H]O[C@@]1([H])C([H])([H])C([H])([H])[C@]2([H])[C@]1(C([H])([H])[H])C([H])([H])C([H])([H])[C@]1([H])[C@]3(C([H])([H])[H])C(=C([H])C(=O)C([H])([H])C3([H])[H])C([H])([H])C([H])([H])[C@@]21[H]


 22 25  0  0  0  0  0  0  0  0999 V2000
  -89.2228   32.5976   -0.7279 C   0  0  0  0  0  0  0  0  0  0  0  0
  -88.3938   31.9761   -1.8198 C   0  0  0  0  0  0  0  0  0  0  0  0
  -87.0731   32.6443   -1.9930 C   0  0  0  0  0  0  0  0  0  0  0  0
  -87.3159   34.0602   -2.4531 C   0  0  0  0  0  0  0  0  0  0  0  0
  -88.0016   34.0426   -3.8030 C   0  0  0  0  0  0  0  0  0  0  0  0
  -89.3370   33.3038   -3.7433 C   0  0  0  0  0  0  0  0  0  0  0  0
  -89.7816   33.0621   -5.1792 C   0  0  0  0  0  0  0  0  0  0  0  0
  -89.8474   34.3062   -5.9904 C   0  0  0  0  0  0  0  0  0  0  0  0
  -88.7531   35.2571   -5.7437 C   0  0  0  0  0  0  0  0  0  0  0  0
  -88.2966   35.9543   -6.7709 C   0  0  0  0  0  0  0  0  0  0  0  0
  -87.2225   36.9176   -6.6419 C   0  0  0  0  0  0  0  0  0  0  0  0
  -86.5593   37.3331   -7.6144 O   0  0  0  0  0  0  0  0  0  0  0  0
  -86.9400   37.4032   -5.2439 C   0  0  0  0  0  0  0  0  0  0  0  0
  -86.8966   36.1616   -4.3763 C   0  0  0  0  0  0  0  0  0  0  0  0
  -88.1929   35.4110   -4.3666 C   0  0  0  0  0  0  0  0  0  0  0  0
  -89.1931   36.2118   -3.5577 C   0  0  0  0  0  0  0  0  0  0  0  0
  -89.1027   31.9734   -3.1561 C   0  0  0  0  0  0  0  0  0  0  0  0
  -90.3038   31.1575   -2.8522 C   0  0  0  0  0  0  0  0  0  0  0  0
  -89.7238   30.0504   -1.9685 C   0  0  0  0  0  0  0  0  0  0  0  0
  -88.2999   30.4728   -1.6631 C   0  0  0  0  0  0  0  0  0  0  0  0
  -87.8413   30.0557   -0.4602 O   0  0  0  0  0  0  0  0  0  0  0  0
  -88.1232   30.5568    0.3228 H   0  0  0  0  0  0  0  0  0  0  0  0
  2  1  1  0  0  0
  2  3  1  0  0  0
  3  4  1  0  0  0
  4  5  1  0  0  0
  5  6  1  0  0  0
  6  7  1  0  0  0
  7  8  1  0  0  0
  8  9  1  0  0  0
  9 10  2  0  0  0
 10 11  1  0  0  0
 11 12  2  0  0  0
 11 13  1  0  0  0
 13 14  1  0  0  0
 14 15  1  0  0  0
 15 16  1  0  0  0
  6 17  1  0  0  0
 17 18  1  0  0  0
 18 19  1  0  0  0
 19 20  1  0  0  0
 20 21  1  0  0  0
 17  2  1  0  0  0
 20  2  1  0  0  0
 15  5  1  0  0  0
 15  9  1  0  0  0
 21 22  1  0  0  0
M  END
> <minimizedAffinity>
-7.03042

> <CNNscore>
0.2769589126

> <CNNaffinity>
5.0211930275

> <CNN_VS>
1.3906642199

> <CNNaffinity_variance>
0.0789473727

$$$$
[H]O[C@@]1([H])C([H])([H])C([H])([H])[C@]2([H])[C@]1(C([H])([H])[H])C([H])([H])C([H])([H])[C@]1([H])[C@]3(C([H])([H])[H])C(=C([H])C(=O)C([H])([H])C3([H])[H])C([H])([H])C([H])([H])[C@@]21[H]


 22 25  0  0  0  0  0  0  0  0999 V2000
  -85.2944   31.6297    2.0424 C   0  0  0  0  0  0  0  0  0  0  0  0
  -84.7107   31.2431    0.7098 C   0  0  0  0  0  0  0  0  0  0  0  0
  -84.5909   32.3979   -0.2246 C   0  0  0  0  0  0  0  0  0  0  0  0
  -85.9791   32.8952   -0.5424 C   0  0  0  0  0  0  0  0  0  0  0  0
  -86.7552   31.8074   -1.2545 C   0  0  0  0  0  0  0  0  0  0  0  0
  -86.8630   30.5458   -0.4007 C   0  0  0  0  0  0  0  0  0  0  0  0
  -87.3621   29.4300   -1.3083 C   0  0  0  0  0  0  0  0  0  0  0  0
  -88.6322   29.7642   -2.0051 C   0  0  0  0  0  0  0  0  0  0  0  0
  -88.7222   31.1523   -2.4824 C   0  0  0  0  0  0  0  0  0  0  0  0
  -89.3532   31.3739   -3.6236 C   0  0  0  0  0  0  0  0  0  0  0  0
  -89.5009   32.7004   -4.1863 C   0  0  0  0  0  0  0  0  0  0  0  0
  -89.7834   32.9046   -5.3850 O   0  0  0  0  0  0  0  0  0  0  0  0
  -89.2917   33.8464   -3.2308 C   0  0  0  0  0  0  0  0  0  0  0  0
  -88.0177   33.5267   -2.4752 C   0  0  0  0  0  0  0  0  0  0  0  0
  -88.1113   32.2583   -1.6840 C   0  0  0  0  0  0  0  0  0  0  0  0
  -89.0162   32.5121   -0.4954 C   0  0  0  0  0  0  0  0  0  0  0  0
  -85.5065   30.1566    0.0213 C   0  0  0  0  0  0  0  0  0  0  0  0
  -85.4054   29.0487    1.0027 C   0  0  0  0  0  0  0  0  0  0  0  0
  -83.9476   29.1554    1.4572 C   0  0  0  0  0  0  0  0  0  0  0  0
  -83.4286   30.4532    0.8695 C   0  0  0  0  0  0  0  0  0  0  0  0
  -82.4773   31.0611    1.6156 O   0  0  0  0  0  0  0  0  0  0  0  0
  -82.7737   31.5681    2.3894 H   0  0  0  0  0  0  0  0  0  0  0  0
  2  1  1  0  0  0
  2  3  1  0  0  0
  3  4  1  0  0  0
  4  5  1  0  0  0
  5  6  1  0  0  0
  6  7  1  0  0  0
  7  8  1  0  0  0
  8  9  1  0  0  0
  9 10  2  0  0  0
 10 11  1  0  0  0
 11 12  2  0  0  0
 11 13  1  0  0  0
 13 14  1  0  0  0
 14 15  1  0  0  0
 15 16  1  0  0  0
  6 17  1  0  0  0
 17 18  1  0  0  0
 18 19  1  0  0  0
 19 20  1  0  0  0
 20 21  1  0  0  0
 17  2  1  0  0  0
 20  2  1  0  0  0
 15  5  1  0  0  0
 15  9  1  0  0  0
 21 22  1  0  0  0
M  END
> <minimizedAffinity>
-8.71784

> <CNNscore>
0.2574962378

> <CNNaffinity>
5.7350721359

> <CNN_VS>
1.4767595530

> <CNNaffinity_variance>
0.0609439239

$$$$
[H]O[C@@]1([H])C([H])([H])C([H])([H])[C@]2([H])[C@]1(C([H])([H])[H])C([H])([H])C([H])([H])[C@]1([H])[C@]3(C([H])([H])[H])C(=C([H])C(=O)C([H])([H])C3([H])[H])C([H])([H])C([H])([H])[C@@]21[H]


 22 25  0  0  0  0  0  0  0  0999 V2000
  -89.9940   35.2197   -3.9894 C   0  0  0  0  0  0  0  0  0  0  0  0
  -88.7713   34.5393   -4.5442 C   0  0  0  0  0  0  0  0  0  0  0  0
  -89.0071   33.1043   -4.8698 C   0  0  0  0  0  0  0  0  0  0  0  0
  -89.3063   32.3708   -3.5860 C   0  0  0  0  0  0  0  0  0  0  0  0
  -88.1020   32.4417   -2.6709 C   0  0  0  0  0  0  0  0  0  0  0  0
  -87.7322   33.8867   -2.3427 C   0  0  0  0  0  0  0  0  0  0  0  0
  -86.3511   33.8630   -1.7024 C   0  0  0  0  0  0  0  0  0  0  0  0
  -86.2675   32.9645   -0.5208 C   0  0  0  0  0  0  0  0  0  0  0  0
  -86.9990   31.6966   -0.6623 C   0  0  0  0  0  0  0  0  0  0  0  0
  -86.4760   30.6160   -0.1071 C   0  0  0  0  0  0  0  0  0  0  0  0
  -87.1110   29.3164   -0.1846 C   0  0  0  0  0  0  0  0  0  0  0  0
  -86.5028   28.2470    0.0276 O   0  0  0  0  0  0  0  0  0  0  0  0
  -88.5746   29.3205   -0.5420 C   0  0  0  0  0  0  0  0  0  0  0  0
  -88.7074   30.2543   -1.7280 C   0  0  0  0  0  0  0  0  0  0  0  0
  -88.2899   31.6584   -1.4147 C   0  0  0  0  0  0  0  0  0  0  0  0
  -89.3504   32.2764   -0.5262 C   0  0  0  0  0  0  0  0  0  0  0  0
  -87.5854   34.6246   -3.6091 C   0  0  0  0  0  0  0  0  0  0  0  0
  -87.3937   36.0922   -3.5075 C   0  0  0  0  0  0  0  0  0  0  0  0
  -87.6287   36.5465   -4.9503 C   0  0  0  0  0  0  0  0  0  0  0  0
  -88.1601   35.3295   -5.6823 C   0  0  0  0  0  0  0  0  0  0  0  0
  -89.0111   35.6163   -6.6946 O   0  0  0  0  0  0  0  0  0  0  0  0
  -89.9279   35.8341   -6.4585 H   0  0  0  0  0  0  0  0  0  0  0  0
  2  1  1  0  0  0
  2  3  1  0  0  0
  3  4  1  0  0  0
  4  5  1  0  0  0
  5  6  1  0  0  0
  6  7  1  0  0  0
  7  8  1  0  0  0
  8  9  1  0  0  0
  9 10  2  0  0  0
 10 11  1  0  0  0
 11 12  2  0  0  0
 11 13  1  0  0  0
 13 14  1  0  0  0
 14 15  1  0  0  0
 15 16  1  0  0  0
  6 17  1  0  0  0
 17 18  1  0  0  0
 18 19  1  0  0  0
 19 20  1  0  0  0
 20 21  1  0  0  0
 17  2  1  0  0  0
 20  2  1  0  0  0
 15  5  1  0  0  0
 15  9  1  0  0  0
 21 22  1  0  0  0
M  END
> <minimizedAffinity>
-7.83277

> <CNNscore>
0.2556429505

> <CNNaffinity>
5.3115568161

> <CNN_VS>
1.3578621149

> <CNNaffinity_variance>
0.0401318893

$$$$
[H]OC([H])([H])[C@@]1([H])O[C@@]([H])(n2c3c([H])c([H])c([H])c(Cl)c3c3c([H])c([H])c([H])c(Cl)c32)[C@]([H])(O[H])[C@]1([H])O[H]


 27 30  0  0  0  0  0  0  0  0999 V2000
  -86.0353   30.0403    0.1770 N   0  0  0  0  0  0  0  0  0  0  0  0
  -85.0136   30.9041    0.1528 C   0  0  0  0  0  0  0  0  0  0  0  0
  -83.7078   30.8690    0.5979 C   0  0  0  0  0  0  0  0  0  0  0  0
  -83.1013   29.4661    1.3959 Cl  0  0  0  0  0  0  0  0  0  0  0  0
  -82.8349   31.9267    0.4478 C   0  0  0  0  0  0  0  0  0  0  0  0
  -83.2279   33.0845   -0.1606 C   0  0  0  0  0  0  0  0  0  0  0  0
  -84.5306   33.1610   -0.6210 C   0  0  0  0  0  0  0  0  0  0  0  0
  -85.3895   32.0920   -0.4617 C   0  0  0  0  0  0  0  0  0  0  0  0
  -86.6961   31.9526   -0.8291 C   0  0  0  0  0  0  0  0  0  0  0  0
  -87.5737   32.8035   -1.4624 C   0  0  0  0  0  0  0  0  0  0  0  0
  -87.1553   34.4150   -1.9944 Cl  0  0  0  0  0  0  0  0  0  0  0  0
  -88.8715   32.3649   -1.6976 C   0  0  0  0  0  0  0  0  0  0  0  0
  -89.2485   31.1138   -1.3014 C   0  0  0  0  0  0  0  0  0  0  0  0
  -88.3544   30.2635   -0.6629 C   0  0  0  0  0  0  0  0  0  0  0  0
  -87.0783   30.6779   -0.4251 C   0  0  0  0  0  0  0  0  0  0  0  0
  -87.0314   26.7645    0.6244 C   0  0  0  0  0  0  0  0  0  0  0  0
  -86.9028   27.9409   -0.1351 O   0  0  0  0  0  0  0  0  0  0  0  0
  -86.0360   28.7195    0.7097 C   0  0  0  0  0  0  0  0  0  0  0  0
  -86.7281   28.5775    2.0500 C   0  0  0  0  0  0  0  0  0  0  0  0
  -85.8640   28.3153    3.1092 O   0  0  0  0  0  0  0  0  0  0  0  0
  -87.5676   27.3205    1.9233 C   0  0  0  0  0  0  0  0  0  0  0  0
  -87.3766   26.4147    2.9418 O   0  0  0  0  0  0  0  0  0  0  0  0
  -85.2944   27.5361    2.8641 H   0  0  0  0  0  0  0  0  0  0  0  0
  -88.0212   26.5590    3.6751 H   0  0  0  0  0  0  0  0  0  0  0  0
  -87.7105   25.8226   -1.4024 O   0  0  0  0  0  0  0  0  0  0  0  0
  -87.9568   25.8045   -0.0277 C   0  0  0  0  0  0  0  0  0  0  0  0
  -86.7447   25.6322   -1.5257 H   0  0  0  0  0  0  0  0  0  0  0  0
 25 26  1  0  0  0
 26 16  1  0  0  0
 16 17  1  0  0  0
 17 18  1  0  0  0
 18 19  1  0  0  0
 19 20  1  0  0  0
 19 21  1  0  0  0
 21 22  1  0  0  0
 18  1  1  0  0  0
  1  2  1  0  0  0
  2  3  2  0  0  0
  3  4  1  0  0  0
  3  5  1  0  0  0
  5  6  2  0  0  0
  6  7  1  0  0  0
  7  8  2  0  0  0
  8  9  1  0  0  0
  9 10  2  0  0  0
 10 11  1  0  0  0
 10 12  1  0  0  0
 12 13  2  0  0  0
 13 14  1  0  0  0
 14 15  2  0  0  0
 21 16  1  0  0  0
 15  1  1  0  0  0
  8  2  1  0  0  0
 15  9  1  0  0  0
 25 27  1  0  0  0
 20 23  1  0  0  0
 22 24  1  0  0  0
M  END
> <minimizedAffinity>
-8.57747

> <CNNscore>
0.6059337258

> <CNNaffinity>
6.1636848450

> <CNN_VS>
3.7347846031

> <CNNaffinity_variance>
0.1404249221

$$$$
[H]OC([H])([H])[C@@]1([H])O[C@@]([H])(n2c3c([H])c([H])c([H])c(Cl)c3c3c([H])c([H])c([H])c(Cl)c32)[C@]([H])(O[H])[C@]1([H])O[H]


 27 30  0  0  0  0  0  0  0  0999 V2000
  -86.7253   29.4179    0.3344 N   0  0  0  0  0  0  0  0  0  0  0  0
  -85.4985   29.4017    0.8685 C   0  0  0  0  0  0  0  0  0  0  0  0
  -84.7710   28.4775    1.5904 C   0  0  0  0  0  0  0  0  0  0  0  0
  -85.4611   26.9473    1.9842 Cl  0  0  0  0  0  0  0  0  0  0  0  0
  -83.4887   28.7168    2.0395 C   0  0  0  0  0  0  0  0  0  0  0  0
  -82.8632   29.9043    1.7872 C   0  0  0  0  0  0  0  0  0  0  0  0
  -83.5588   30.8591    1.0664 C   0  0  0  0  0  0  0  0  0  0  0  0
  -84.8412   30.6013    0.6253 C   0  0  0  0  0  0  0  0  0  0  0  0
  -85.7001   31.3870   -0.0864 C   0  0  0  0  0  0  0  0  0  0  0  0
  -85.5833   32.6632   -0.5897 C   0  0  0  0  0  0  0  0  0  0  0  0
  -84.1544   33.6537   -0.4111 Cl  0  0  0  0  0  0  0  0  0  0  0  0
  -86.6596   33.2052   -1.2825 C   0  0  0  0  0  0  0  0  0  0  0  0
  -87.7992   32.4719   -1.4495 C   0  0  0  0  0  0  0  0  0  0  0  0
  -87.9059   31.1850   -0.9372 C   0  0  0  0  0  0  0  0  0  0  0  0
  -86.8600   30.6387   -0.2560 C   0  0  0  0  0  0  0  0  0  0  0  0
  -88.5977   26.8162    1.6184 C   0  0  0  0  0  0  0  0  0  0  0  0
  -87.8463   27.9982    1.7433 O   0  0  0  0  0  0  0  0  0  0  0  0
  -87.6924   28.3727    0.3623 C   0  0  0  0  0  0  0  0  0  0  0  0
  -87.2291   27.0648   -0.2462 C   0  0  0  0  0  0  0  0  0  0  0  0
  -87.8577   26.7438   -1.4459 O   0  0  0  0  0  0  0  0  0  0  0  0
  -87.6947   25.9970    0.7253 C   0  0  0  0  0  0  0  0  0  0  0  0
  -88.4077   24.9773    0.1370 O   0  0  0  0  0  0  0  0  0  0  0  0
  -88.8425   26.7992   -1.3089 H   0  0  0  0  0  0  0  0  0  0  0  0
  -87.8166   24.2315   -0.1246 H   0  0  0  0  0  0  0  0  0  0  0  0
  -89.3028   24.8902    2.7363 O   0  0  0  0  0  0  0  0  0  0  0  0
  -88.8354   26.1901    2.9429 C   0  0  0  0  0  0  0  0  0  0  0  0
  -88.6362   24.4310    2.1628 H   0  0  0  0  0  0  0  0  0  0  0  0
 25 26  1  0  0  0
 26 16  1  0  0  0
 16 17  1  0  0  0
 17 18  1  0  0  0
 18 19  1  0  0  0
 19 20  1  0  0  0
 19 21  1  0  0  0
 21 22  1  0  0  0
 18  1  1  0  0  0
  1  2  1  0  0  0
  2  3  2  0  0  0
  3  4  1  0  0  0
  3  5  1  0  0  0
  5  6  2  0  0  0
  6  7  1  0  0  0
  7  8  2  0  0  0
  8  9  1  0  0  0
  9 10  2  0  0  0
 10 11  1  0  0  0
 10 12  1  0  0  0
 12 13  2  0  0  0
 13 14  1  0  0  0
 14 15  2  0  0  0
 21 16  1  0  0  0
 15  1  1  0  0  0
  8  2  1  0  0  0
 15  9  1  0  0  0
 25 27  1  0  0  0
 20 23  1  0  0  0
 22 24  1  0  0  0
M  END
> <minimizedAffinity>
-10.26482

> <CNNscore>
0.6036452055

> <CNNaffinity>
6.0166440010

> <CNN_VS>
3.6319181919

> <CNNaffinity_variance>
0.2766800523

$$$$
[H]OC([H])([H])[C@@]1([H])O[C@@]([H])(n2c3c([H])c([H])c([H])c(Cl)c3c3c([H])c([H])c([H])c(Cl)c32)[C@]([H])(O[H])[C@]1([H])O[H]


 27 30  0  0  0  0  0  0  0  0999 V2000
  -86.6870   30.6021   -0.4084 N   0  0  0  0  0  0  0  0  0  0  0  0
  -85.5424   31.2643   -0.2040 C   0  0  0  0  0  0  0  0  0  0  0  0
  -85.0339   32.4717   -0.6377 C   0  0  0  0  0  0  0  0  0  0  0  0
  -85.9573   33.4712   -1.6965 Cl  0  0  0  0  0  0  0  0  0  0  0  0
  -83.7873   32.9359   -0.2721 C   0  0  0  0  0  0  0  0  0  0  0  0
  -82.9780   32.2087    0.5533 C   0  0  0  0  0  0  0  0  0  0  0  0
  -83.4504   30.9909    1.0103 C   0  0  0  0  0  0  0  0  0  0  0  0
  -84.7007   30.5431    0.6336 C   0  0  0  0  0  0  0  0  0  0  0  0
  -85.3548   29.3900    0.9561 C   0  0  0  0  0  0  0  0  0  0  0  0
  -85.0011   28.3156    1.7410 C   0  0  0  0  0  0  0  0  0  0  0  0
  -83.4779   28.1880    2.5884 Cl  0  0  0  0  0  0  0  0  0  0  0  0
  -85.9016   27.2650    1.8741 C   0  0  0  0  0  0  0  0  0  0  0  0
  -87.1056   27.3163    1.2322 C   0  0  0  0  0  0  0  0  0  0  0  0
  -87.4519   28.4056    0.4426 C   0  0  0  0  0  0  0  0  0  0  0  0
  -86.5809   29.4439    0.3019 C   0  0  0  0  0  0  0  0  0  0  0  0
  -88.3990   31.7893   -3.1620 C   0  0  0  0  0  0  0  0  0  0  0  0
  -87.3194   31.1299   -2.5482 O   0  0  0  0  0  0  0  0  0  0  0  0
  -87.7977   31.0212   -1.1952 C   0  0  0  0  0  0  0  0  0  0  0  0
  -88.2602   32.4400   -0.9330 C   0  0  0  0  0  0  0  0  0  0  0  0
  -89.4964   32.5250   -0.2991 O   0  0  0  0  0  0  0  0  0  0  0  0
  -88.4962   33.0330   -2.3090 C   0  0  0  0  0  0  0  0  0  0  0  0
  -89.7327   33.6178   -2.4620 O   0  0  0  0  0  0  0  0  0  0  0  0
  -90.1501   31.9751   -0.8109 H   0  0  0  0  0  0  0  0  0  0  0  0
  -89.7028   34.5804   -2.2463 H   0  0  0  0  0  0  0  0  0  0  0  0
  -88.5831   31.0145   -5.3580 O   0  0  0  0  0  0  0  0  0  0  0  0
  -88.1086   32.0791   -4.5885 C   0  0  0  0  0  0  0  0  0  0  0  0
  -89.5431   30.9014   -5.1344 H   0  0  0  0  0  0  0  0  0  0  0  0
 25 26  1  0  0  0
 26 16  1  0  0  0
 16 17  1  0  0  0
 17 18  1  0  0  0
 18 19  1  0  0  0
 19 20  1  0  0  0
 19 21  1  0  0  0
 21 22  1  0  0  0
 18  1  1  0  0  0
  1  2  1  0  0  0
  2  3  2  0  0  0
  3  4  1  0  0  0
  3  5  1  0  0  0
  5  6  2  0  0  0
  6  7  1  0  0  0
  7  8  2  0  0  0
  8  9  1  0  0  0
  9 10  2  0  0  0
 10 11  1  0  0  0
 10 12  1  0  0  0
 12 13  2  0  0  0
 13 14  1  0  0  0
 14 15  2  0  0  0
 21 16  1  0  0  0
 15  1  1  0  0  0
  8  2  1  0  0  0
 15  9  1  0  0  0
 25 27  1  0  0  0
 20 23  1  0  0  0
 22 24  1  0  0  0
M  END
> <minimizedAffinity>
-10.19630

> <CNNscore>
0.5563346148

> <CNNaffinity>
5.8654394150

> <CNN_VS>
3.2631468773

> <CNNaffinity_variance>
0.2686181664

$$$$
[H]OC([H])([H])[C@@]1([H])O[C@@]([H])(n2c3c([H])c([H])c([H])c(Cl)c3c3c([H])c([H])c([H])c(Cl)c32)[C@]([H])(O[H])[C@]1([H])O[H]


 27 30  0  0  0  0  0  0  0  0999 V2000
  -86.8670   30.2226   -0.2434 N   0  0  0  0  0  0  0  0  0  0  0  0
  -85.8806   31.1268   -0.2510 C   0  0  0  0  0  0  0  0  0  0  0  0
  -85.7194   32.3760   -0.8149 C   0  0  0  0  0  0  0  0  0  0  0  0
  -86.9818   33.0688   -1.7630 Cl  0  0  0  0  0  0  0  0  0  0  0  0
  -84.5680   33.1220   -0.6700 C   0  0  0  0  0  0  0  0  0  0  0  0
  -83.5090   32.6514    0.0527 C   0  0  0  0  0  0  0  0  0  0  0  0
  -83.6299   31.4017    0.6345 C   0  0  0  0  0  0  0  0  0  0  0  0
  -84.7901   30.6700    0.4785 C   0  0  0  0  0  0  0  0  0  0  0  0
  -85.1197   29.4339    0.9527 C   0  0  0  0  0  0  0  0  0  0  0  0
  -84.4290   28.5253    1.7227 C   0  0  0  0  0  0  0  0  0  0  0  0
  -82.8111   28.7921    2.3278 Cl  0  0  0  0  0  0  0  0  0  0  0  0
  -85.0457   27.3217    2.0436 C   0  0  0  0  0  0  0  0  0  0  0  0
  -86.3095   27.0647    1.5952 C   0  0  0  0  0  0  0  0  0  0  0  0
  -86.9971   27.9890    0.8187 C   0  0  0  0  0  0  0  0  0  0  0  0
  -86.4071   29.1739    0.4955 C   0  0  0  0  0  0  0  0  0  0  0  0
  -90.2207   29.6256   -0.8085 C   0  0  0  0  0  0  0  0  0  0  0  0
  -89.0821   29.6894    0.0142 O   0  0  0  0  0  0  0  0  0  0  0  0
  -88.1429   30.3321   -0.8667 C   0  0  0  0  0  0  0  0  0  0  0  0
  -88.3065   29.5035   -2.1245 C   0  0  0  0  0  0  0  0  0  0  0  0
  -88.3843   30.2561   -3.2929 O   0  0  0  0  0  0  0  0  0  0  0  0
  -89.6747   28.8621   -1.9929 C   0  0  0  0  0  0  0  0  0  0  0  0
  -90.4862   29.0441   -3.0896 O   0  0  0  0  0  0  0  0  0  0  0  0
  -89.0874   30.9509   -3.1725 H   0  0  0  0  0  0  0  0  0  0  0  0
  -90.3940   28.2996   -3.7309 H   0  0  0  0  0  0  0  0  0  0  0  0
  -92.5230   29.2313   -0.7959 O   0  0  0  0  0  0  0  0  0  0  0  0
  -91.3368   28.9256   -0.1249 C   0  0  0  0  0  0  0  0  0  0  0  0
  -92.3880   28.9871   -1.7479 H   0  0  0  0  0  0  0  0  0  0  0  0
 25 26  1  0  0  0
 26 16  1  0  0  0
 16 17  1  0  0  0
 17 18  1  0  0  0
 18 19  1  0  0  0
 19 20  1  0  0  0
 19 21  1  0  0  0
 21 22  1  0  0  0
 18  1  1  0  0  0
  1  2  1  0  0  0
  2  3  2  0  0  0
  3  4  1  0  0  0
  3  5  1  0  0  0
  5  6  2  0  0  0
  6  7  1  0  0  0
  7  8  2  0  0  0
  8  9  1  0  0  0
  9 10  2  0  0  0
 10 11  1  0  0  0
 10 12  1  0  0  0
 12 13  2  0  0  0
 13 14  1  0  0  0
 14 15  2  0  0  0
 21 16  1  0  0  0
 15  1  1  0  0  0
  8  2  1  0  0  0
 15  9  1  0  0  0
 25 27  1  0  0  0
 20 23  1  0  0  0
 22 24  1  0  0  0
M  END
> <minimizedAffinity>
-9.51575

> <CNNscore>
0.5559492707

> <CNNaffinity>
5.9633893967

> <CNN_VS>
3.3153419495

> <CNNaffinity_variance>
0.1412606090

$$$$
[H]OC([H])([H])[C@@]1([H])O[C@@]([H])(n2c3c([H])c([H])c([H])c(Cl)c3c3c([H])c([H])c([H])c(Cl)c32)[C@]([H])(O[H])[C@]1([H])O[H]


 27 30  0  0  0  0  0  0  0  0999 V2000
  -87.1992   29.5478   -0.4200 N   0  0  0  0  0  0  0  0  0  0  0  0
  -86.4704   28.8287    0.4416 C   0  0  0  0  0  0  0  0  0  0  0  0
  -86.5305   27.5323    0.9110 C   0  0  0  0  0  0  0  0  0  0  0  0
  -87.7747   26.4700    0.3670 Cl  0  0  0  0  0  0  0  0  0  0  0  0
  -85.6330   27.0233    1.8268 C   0  0  0  0  0  0  0  0  0  0  0  0
  -84.6204   27.7927    2.3246 C   0  0  0  0  0  0  0  0  0  0  0  0
  -84.5252   29.0997    1.8798 C   0  0  0  0  0  0  0  0  0  0  0  0
  -85.4327   29.5912    0.9629 C   0  0  0  0  0  0  0  0  0  0  0  0
  -85.5287   30.8300    0.3993 C   0  0  0  0  0  0  0  0  0  0  0  0
  -84.7775   31.9740    0.5491 C   0  0  0  0  0  0  0  0  0  0  0  0
  -83.3874   32.0955    1.6014 Cl  0  0  0  0  0  0  0  0  0  0  0  0
  -85.1375   33.1047   -0.1747 C   0  0  0  0  0  0  0  0  0  0  0  0
  -86.2160   33.0616   -1.0110 C   0  0  0  0  0  0  0  0  0  0  0  0
  -86.9669   31.9016   -1.1544 C   0  0  0  0  0  0  0  0  0  0  0  0
  -86.6273   30.7843   -0.4524 C   0  0  0  0  0  0  0  0  0  0  0  0
  -90.1547   27.8899   -1.0829 C   0  0  0  0  0  0  0  0  0  0  0  0
  -89.2286   28.4999   -0.2183 O   0  0  0  0  0  0  0  0  0  0  0  0
  -88.3333   29.1130   -1.1637 C   0  0  0  0  0  0  0  0  0  0  0  0
  -88.0672   27.9578   -2.1071 C   0  0  0  0  0  0  0  0  0  0  0  0
  -88.1183   28.3031   -3.4545 O   0  0  0  0  0  0  0  0  0  0  0  0
  -89.2402   27.0165   -1.9104 C   0  0  0  0  0  0  0  0  0  0  0  0
  -89.8656   26.6492   -3.0802 O   0  0  0  0  0  0  0  0  0  0  0  0
  -88.9788   28.7742   -3.6254 H   0  0  0  0  0  0  0  0  0  0  0  0
  -89.4842   25.8145   -3.4435 H   0  0  0  0  0  0  0  0  0  0  0  0
  -91.0056   25.7644   -0.6196 O   0  0  0  0  0  0  0  0  0  0  0  0
  -91.1701   27.1192   -0.3226 C   0  0  0  0  0  0  0  0  0  0  0  0
  -90.0612   25.5368   -0.4184 H   0  0  0  0  0  0  0  0  0  0  0  0
 25 26  1  0  0  0
 26 16  1  0  0  0
 16 17  1  0  0  0
 17 18  1  0  0  0
 18 19  1  0  0  0
 19 20  1  0  0  0
 19 21  1  0  0  0
 21 22  1  0  0  0
 18  1  1  0  0  0
  1  2  1  0  0  0
  2  3  2  0  0  0
  3  4  1  0  0  0
  3  5  1  0  0  0
  5  6  2  0  0  0
  6  7  1  0  0  0
  7  8  2  0  0  0
  8  9  1  0  0  0
  9 10  2  0  0  0
 10 11  1  0  0  0
 10 12  1  0  0  0
 12 13  2  0  0  0
 13 14  1  0  0  0
 14 15  2  0  0  0
 21 16  1  0  0  0
 15  1  1  0  0  0
  8  2  1  0  0  0
 15  9  1  0  0  0
 25 27  1  0  0  0
 20 23  1  0  0  0
 22 24  1  0  0  0
M  END
> <minimizedAffinity>
-9.30180

> <CNNscore>
0.5365020037

> <CNNaffinity>
5.8562040329

> <CNN_VS>
3.1418652534

> <CNNaffinity_variance>
0.2522091269

$$$$
[H]OC([H])([H])[C@@]1([H])O[C@@]([H])(n2c3c([H])c([H])c([H])c(Cl)c3c3c([H])c([H])c([H])c(Cl)c32)[C@]([H])(O[H])[C@]1([H])O[H]


 27 30  0  0  0  0  0  0  0  0999 V2000
  -86.8215   29.2117    0.6927 N   0  0  0  0  0  0  0  0  0  0  0  0
  -86.8421   30.4342    0.1490 C   0  0  0  0  0  0  0  0  0  0  0  0
  -87.7920   31.1775   -0.5218 C   0  0  0  0  0  0  0  0  0  0  0  0
  -89.3589   30.5206   -0.8147 Cl  0  0  0  0  0  0  0  0  0  0  0  0
  -87.5512   32.4502   -0.9967 C   0  0  0  0  0  0  0  0  0  0  0  0
  -86.3363   33.0495   -0.8235 C   0  0  0  0  0  0  0  0  0  0  0  0
  -85.3554   32.3374   -0.1560 C   0  0  0  0  0  0  0  0  0  0  0  0
  -85.6151   31.0650    0.3122 C   0  0  0  0  0  0  0  0  0  0  0  0
  -84.8071   30.1936    0.9825 C   0  0  0  0  0  0  0  0  0  0  0  0
  -83.5001   30.2842    1.4057 C   0  0  0  0  0  0  0  0  0  0  0  0
  -82.4898   31.6879    1.1534 Cl  0  0  0  0  0  0  0  0  0  0  0  0
  -82.9416   29.2011    2.0741 C   0  0  0  0  0  0  0  0  0  0  0  0
  -83.6892   28.0804    2.2964 C   0  0  0  0  0  0  0  0  0  0  0  0
  -85.0073   27.9999    1.8648 C   0  0  0  0  0  0  0  0  0  0  0  0
  -85.5701   29.0530    1.2085 C   0  0  0  0  0  0  0  0  0  0  0  0
  -88.9618   26.8539    2.0279 C   0  0  0  0  0  0  0  0  0  0  0  0
  -88.0980   27.9590    2.1274 O   0  0  0  0  0  0  0  0  0  0  0  0
  -87.8884   28.2693    0.7378 C   0  0  0  0  0  0  0  0  0  0  0  0
  -87.5497   26.9020    0.1800 C   0  0  0  0  0  0  0  0  0  0  0  0
  -88.1905   26.6045   -1.0192 O   0  0  0  0  0  0  0  0  0  0  0  0
  -88.1328   25.9193    1.1774 C   0  0  0  0  0  0  0  0  0  0  0  0
  -88.9359   24.9560    0.6103 O   0  0  0  0  0  0  0  0  0  0  0  0
  -89.1667   26.7621   -0.9010 H   0  0  0  0  0  0  0  0  0  0  0  0
  -88.4186   24.1468    0.3831 H   0  0  0  0  0  0  0  0  0  0  0  0
  -88.5656   25.1102    3.5308 O   0  0  0  0  0  0  0  0  0  0  0  0
  -89.2791   26.2998    3.3678 C   0  0  0  0  0  0  0  0  0  0  0  0
  -87.6092   25.3228    3.3746 H   0  0  0  0  0  0  0  0  0  0  0  0
 25 26  1  0  0  0
 26 16  1  0  0  0
 16 17  1  0  0  0
 17 18  1  0  0  0
 18 19  1  0  0  0
 19 20  1  0  0  0
 19 21  1  0  0  0
 21 22  1  0  0  0
 18  1  1  0  0  0
  1  2  1  0  0  0
  2  3  2  0  0  0
  3  4  1  0  0  0
  3  5  1  0  0  0
  5  6  2  0  0  0
  6  7  1  0  0  0
  7  8  2  0  0  0
  8  9  1  0  0  0
  9 10  2  0  0  0
 10 11  1  0  0  0
 10 12  1  0  0  0
 12 13  2  0  0  0
 13 14  1  0  0  0
 14 15  2  0  0  0
 21 16  1  0  0  0
 15  1  1  0  0  0
  8  2  1  0  0  0
 15  9  1  0  0  0
 25 27  1  0  0  0
 20 23  1  0  0  0
 22 24  1  0  0  0
M  END
> <minimizedAffinity>
-10.18388

> <CNNscore>
0.5233401060

> <CNNaffinity>
5.8304634094

> <CNN_VS>
3.0513153076

> <CNNaffinity_variance>
0.2928769886

$$$$
[H]OC([H])([H])[C@@]1([H])O[C@@]([H])(n2c3c([H])c([H])c([H])c(Cl)c3c3c([H])c([H])c([H])c(Cl)c32)[C@]([H])(O[H])[C@]1([H])O[H]


 27 30  0  0  0  0  0  0  0  0999 V2000
  -86.9494   29.4024    0.4845 N   0  0  0  0  0  0  0  0  0  0  0  0
  -85.8400   29.0116    1.1225 C   0  0  0  0  0  0  0  0  0  0  0  0
  -85.4807   27.8853    1.8345 C   0  0  0  0  0  0  0  0  0  0  0  0
  -86.6087   26.5992    2.0496 Cl  0  0  0  0  0  0  0  0  0  0  0  0
  -84.2379   27.7272    2.4121 C   0  0  0  0  0  0  0  0  0  0  0  0
  -83.2824   28.6971    2.3062 C   0  0  0  0  0  0  0  0  0  0  0  0
  -83.6028   29.8435    1.6003 C   0  0  0  0  0  0  0  0  0  0  0  0
  -84.8518   29.9836    1.0292 C   0  0  0  0  0  0  0  0  0  0  0  0
  -85.3761   31.0143    0.3052 C   0  0  0  0  0  0  0  0  0  0  0  0
  -84.8546   32.2261   -0.0885 C   0  0  0  0  0  0  0  0  0  0  0  0
  -83.2333   32.7578    0.2898 Cl  0  0  0  0  0  0  0  0  0  0  0  0
  -85.6566   33.0847   -0.8312 C   0  0  0  0  0  0  0  0  0  0  0  0
  -86.9313   32.7161   -1.1532 C   0  0  0  0  0  0  0  0  0  0  0  0
  -87.4472   31.4907   -0.7504 C   0  0  0  0  0  0  0  0  0  0  0  0
  -86.6741   30.6371   -0.0221 C   0  0  0  0  0  0  0  0  0  0  0  0
  -89.2653   27.2613   -0.9211 C   0  0  0  0  0  0  0  0  0  0  0  0
  -87.9530   27.7168   -0.7024 O   0  0  0  0  0  0  0  0  0  0  0  0
  -88.1673   28.6768    0.3481 C   0  0  0  0  0  0  0  0  0  0  0  0
  -89.3219   29.4780   -0.2180 C   0  0  0  0  0  0  0  0  0  0  0  0
  -90.3314   29.7453    0.7023 O   0  0  0  0  0  0  0  0  0  0  0  0
  -89.9694   28.5605   -1.2377 C   0  0  0  0  0  0  0  0  0  0  0  0
  -91.3285   28.4150   -1.0766 O   0  0  0  0  0  0  0  0  0  0  0  0
  -90.6049   28.8868    1.1264 H   0  0  0  0  0  0  0  0  0  0  0  0
  -91.8258   29.0749   -1.6163 H   0  0  0  0  0  0  0  0  0  0  0  0
  -89.6007   26.9742   -3.2149 O   0  0  0  0  0  0  0  0  0  0  0  0
  -89.3137   26.2825   -2.0359 C   0  0  0  0  0  0  0  0  0  0  0  0
  -88.9173   27.6876   -3.3053 H   0  0  0  0  0  0  0  0  0  0  0  0
 25 26  1  0  0  0
 26 16  1  0  0  0
 16 17  1  0  0  0
 17 18  1  0  0  0
 18 19  1  0  0  0
 19 20  1  0  0  0
 19 21  1  0  0  0
 21 22  1  0  0  0
 18  1  1  0  0  0
  1  2  1  0  0  0
  2  3  2  0  0  0
  3  4  1  0  0  0
  3  5  1  0  0  0
  5  6  2  0  0  0
  6  7  1  0  0  0
  7  8  2  0  0  0
  8  9  1  0  0  0
  9 10  2  0  0  0
 10 11  1  0  0  0
 10 12  1  0  0  0
 12 13  2  0  0  0
 13 14  1  0  0  0
 14 15  2  0  0  0
 21 16  1  0  0  0
 15  1  1  0  0  0
  8  2  1  0  0  0
 15  9  1  0  0  0
 25 27  1  0  0  0
 20 23  1  0  0  0
 22 24  1  0  0  0
M  END
> <minimizedAffinity>
-9.84035

> <CNNscore>
0.4556334913

> <CNNaffinity>
5.7405653000

> <CNN_VS>
2.6155939102

> <CNNaffinity_variance>
0.3674406409

$$$$
[H]OC([H])([H])[C@@]1([H])O[C@@]([H])(n2c3c([H])c([H])c([H])c(Cl)c3c3c([H])c([H])c([H])c(Cl)c32)[C@]([H])(O[H])[C@]1([H])O[H]


 27 30  0  0  0  0  0  0  0  0999 V2000
  -87.2773   29.5593   -0.2483 N   0  0  0  0  0  0  0  0  0  0  0  0
  -87.1319   30.8367   -0.6195 C   0  0  0  0  0  0  0  0  0  0  0  0
  -87.8377   31.6899   -1.4432 C   0  0  0  0  0  0  0  0  0  0  0  0
  -89.2494   31.1339   -2.2621 Cl  0  0  0  0  0  0  0  0  0  0  0  0
  -87.4628   32.9987   -1.6663 C   0  0  0  0  0  0  0  0  0  0  0  0
  -86.3520   33.5253   -1.0715 C   0  0  0  0  0  0  0  0  0  0  0  0
  -85.6154   32.7022   -0.2379 C   0  0  0  0  0  0  0  0  0  0  0  0
  -86.0063   31.3952   -0.0268 C   0  0  0  0  0  0  0  0  0  0  0  0
  -85.4363   30.4205    0.7391 C   0  0  0  0  0  0  0  0  0  0  0  0
  -84.3133   30.4096    1.5354 C   0  0  0  0  0  0  0  0  0  0  0  0
  -83.2691   31.7921    1.7656 Cl  0  0  0  0  0  0  0  0  0  0  0  0
  -83.9815   29.2348    2.2002 C   0  0  0  0  0  0  0  0  0  0  0  0
  -84.7652   28.1263    2.0535 C   0  0  0  0  0  0  0  0  0  0  0  0
  -85.8962   28.1487    1.2471 C   0  0  0  0  0  0  0  0  0  0  0  0
  -86.2357   29.2924    0.5889 C   0  0  0  0  0  0  0  0  0  0  0  0
  -89.4138   26.8539   -0.0499 C   0  0  0  0  0  0  0  0  0  0  0  0
  -88.5952   27.8465    0.5176 O   0  0  0  0  0  0  0  0  0  0  0  0
  -88.3127   28.6610   -0.6348 C   0  0  0  0  0  0  0  0  0  0  0  0
  -87.8951   27.6090   -1.6420 C   0  0  0  0  0  0  0  0  0  0  0  0
  -88.4520   27.7817   -2.9059 O   0  0  0  0  0  0  0  0  0  0  0  0
  -88.5040   26.3172   -1.1308 C   0  0  0  0  0  0  0  0  0  0  0  0
  -89.2385   25.6333   -2.0726 O   0  0  0  0  0  0  0  0  0  0  0  0
  -89.4383   27.8747   -2.8042 H   0  0  0  0  0  0  0  0  0  0  0  0
  -88.6815   24.9744   -2.5519 H   0  0  0  0  0  0  0  0  0  0  0  0
  -89.0099   24.6946    0.7443 O   0  0  0  0  0  0  0  0  0  0  0  0
  -89.7926   25.8316    0.9573 C   0  0  0  0  0  0  0  0  0  0  0  0
  -88.0621   24.9868    0.7711 H   0  0  0  0  0  0  0  0  0  0  0  0
 25 26  1  0  0  0
 26 16  1  0  0  0
 16 17  1  0  0  0
 17 18  1  0  0  0
 18 19  1  0  0  0
 19 20  1  0  0  0
 19 21  1  0  0  0
 21 22  1  0  0  0
 18  1  1  0  0  0
  1  2  1  0  0  0
  2  3  2  0  0  0
  3  4  1  0  0  0
  3  5  1  0  0  0
  5  6  2  0  0  0
  6  7  1  0  0  0
  7  8  2  0  0  0
  8  9  1  0  0  0
  9 10  2  0  0  0
 10 11  1  0  0  0
 10 12  1  0  0  0
 12 13  2  0  0  0
 13 14  1  0  0  0
 14 15  2  0  0  0
 21 16  1  0  0  0
 15  1  1  0  0  0
  8  2  1  0  0  0
 15  9  1  0  0  0
 25 27  1  0  0  0
 20 23  1  0  0  0
 22 24  1  0  0  0
M  END
> <minimizedAffinity>
-9.61393

> <CNNscore>
0.4293115437

> <CNNaffinity>
5.8023619652

> <CNN_VS>
2.4910209179

> <CNNaffinity_variance>
0.2051807940

$$$$
[H]OC([H])([H])[C@@]1([H])O[C@@]([H])(n2c3c([H])c([H])c([H])c(Cl)c3c3c([H])c([H])c([H])c(Cl)c32)[C@]([H])(O[H])[C@]1([H])O[H]


 27 30  0  0  0  0  0  0  0  0999 V2000
  -87.4146   29.6047   -0.0719 N   0  0  0  0  0  0  0  0  0  0  0  0
  -87.8445   30.7379   -0.6388 C   0  0  0  0  0  0  0  0  0  0  0  0
  -89.0259   31.1338   -1.2322 C   0  0  0  0  0  0  0  0  0  0  0  0
  -90.3450   30.0307   -1.3584 Cl  0  0  0  0  0  0  0  0  0  0  0  0
  -89.2164   32.3953   -1.7571 C   0  0  0  0  0  0  0  0  0  0  0  0
  -88.2251   33.3338   -1.7150 C   0  0  0  0  0  0  0  0  0  0  0  0
  -87.0236   32.9766   -1.1285 C   0  0  0  0  0  0  0  0  0  0  0  0
  -86.8518   31.7094   -0.6087 C   0  0  0  0  0  0  0  0  0  0  0  0
  -85.7672   31.1494    0.0008 C   0  0  0  0  0  0  0  0  0  0  0  0
  -84.5155   31.6422    0.2945 C   0  0  0  0  0  0  0  0  0  0  0  0
  -83.9945   33.2666   -0.0856 Cl  0  0  0  0  0  0  0  0  0  0  0  0
  -83.6051   30.8066    0.9308 C   0  0  0  0  0  0  0  0  0  0  0  0
  -83.9634   29.5281    1.2494 C   0  0  0  0  0  0  0  0  0  0  0  0
  -85.2292   29.0415    0.9482 C   0  0  0  0  0  0  0  0  0  0  0  0
  -86.1338   29.8476    0.3250 C   0  0  0  0  0  0  0  0  0  0  0  0
  -88.6190   26.7815    1.5100 C   0  0  0  0  0  0  0  0  0  0  0  0
  -88.1161   28.0946    1.5045 O   0  0  0  0  0  0  0  0  0  0  0  0
  -88.1445   28.3934    0.0970 C   0  0  0  0  0  0  0  0  0  0  0  0
  -87.4718   27.1633   -0.4773 C   0  0  0  0  0  0  0  0  0  0  0  0
  -88.1095   26.6400   -1.5985 O   0  0  0  0  0  0  0  0  0  0  0  0
  -87.6373   26.0961    0.5877 C   0  0  0  0  0  0  0  0  0  0  0  0
  -88.1701   24.9163    0.1201 O   0  0  0  0  0  0  0  0  0  0  0  0
  -89.0721   26.5090   -1.3796 H   0  0  0  0  0  0  0  0  0  0  0  0
  -87.4610   24.2857   -0.1510 H   0  0  0  0  0  0  0  0  0  0  0  0
  -89.1950   24.9419    2.8293 O   0  0  0  0  0  0  0  0  0  0  0  0
  -88.6255   26.2162    2.8824 C   0  0  0  0  0  0  0  0  0  0  0  0
  -88.6804   24.4229    2.1585 H   0  0  0  0  0  0  0  0  0  0  0  0
 25 26  1  0  0  0
 26 16  1  0  0  0
 16 17  1  0  0  0
 17 18  1  0  0  0
 18 19  1  0  0  0
 19 20  1  0  0  0
 19 21  1  0  0  0
 21 22  1  0  0  0
 18  1  1  0  0  0
  1  2  1  0  0  0
  2  3  2  0  0  0
  3  4  1  0  0  0
  3  5  1  0  0  0
  5  6  2  0  0  0
  6  7  1  0  0  0
  7  8  2  0  0  0
  8  9  1  0  0  0
  9 10  2  0  0  0
 10 11  1  0  0  0
 10 12  1  0  0  0
 12 13  2  0  0  0
 13 14  1  0  0  0
 14 15  2  0  0  0
 21 16  1  0  0  0
 15  1  1  0  0  0
  8  2  1  0  0  0
 15  9  1  0  0  0
 25 27  1  0  0  0
 20 23  1  0  0  0
 22 24  1  0  0  0
M  END
> <minimizedAffinity>
-9.34540

> <CNNscore>
0.4280807674

> <CNNaffinity>
5.6772890091

> <CNN_VS>
2.4303381443

> <CNNaffinity_variance>
0.3003914952

$$$$
[H]Oc1c([H])c([H])c([H])c2c1c1c([H])c(Cl)c([H])c(Cl)c1n2[C@]1([H])O[C@]([H])(C([H])([H])O[H])[C@@]([H])(O[H])[C@@]1([H])O[H]


 29 32  0  0  0  0  0  0  0  0999 V2000
  -86.4580   30.3946   -0.2169 N   0  0  0  0  0  0  0  0  0  0  0  0
  -86.9327   31.4904   -0.9195 C   0  0  0  0  0  0  0  0  0  0  0  0
  -88.1349   31.7258   -1.5391 C   0  0  0  0  0  0  0  0  0  0  0  0
  -89.4712   30.6066   -1.6195 Cl  0  0  0  0  0  0  0  0  0  0  0  0
  -88.2974   32.9675   -2.1766 C   0  0  0  0  0  0  0  0  0  0  0  0
  -87.3167   33.9084   -2.1908 C   0  0  0  0  0  0  0  0  0  0  0  0
  -87.5411   35.4467   -2.9845 Cl  0  0  0  0  0  0  0  0  0  0  0  0
  -86.1191   33.6387   -1.5589 C   0  0  0  0  0  0  0  0  0  0  0  0
  -85.9180   32.4266   -0.9178 C   0  0  0  0  0  0  0  0  0  0  0  0
  -84.8340   31.9261   -0.2316 C   0  0  0  0  0  0  0  0  0  0  0  0
  -83.5807   32.4002    0.0755 C   0  0  0  0  0  0  0  0  0  0  0  0
  -83.1637   33.6203   -0.3072 O   0  0  0  0  0  0  0  0  0  0  0  0
  -82.6635   31.6141    0.8171 C   0  0  0  0  0  0  0  0  0  0  0  0
  -83.0166   30.3730    1.2352 C   0  0  0  0  0  0  0  0  0  0  0  0
  -84.2960   29.8926    0.9191 C   0  0  0  0  0  0  0  0  0  0  0  0
  -85.1884   30.6510    0.2014 C   0  0  0  0  0  0  0  0  0  0  0  0
  -83.3254   34.4193   -0.7426 H   0  0  0  0  0  0  0  0  0  0  0  0
  -87.6832   27.4661    1.3320 C   0  0  0  0  0  0  0  0  0  0  0  0
  -87.1244   28.6885    1.2311 O   0  0  0  0  0  0  0  0  0  0  0  0
  -87.3027   29.2472   -0.0407 C   0  0  0  0  0  0  0  0  0  0  0  0
  -86.9914   27.9988   -0.8244 C   0  0  0  0  0  0  0  0  0  0  0  0
  -87.4797   27.9465   -2.0939 O   0  0  0  0  0  0  0  0  0  0  0  0
  -87.9420   26.9807   -0.0574 C   0  0  0  0  0  0  0  0  0  0  0  0
  -89.2434   27.2522   -0.3854 O   0  0  0  0  0  0  0  0  0  0  0  0
  -87.4248   26.9798   -2.3744 H   0  0  0  0  0  0  0  0  0  0  0  0
  -89.6330   26.6629   -1.0699 H   0  0  0  0  0  0  0  0  0  0  0  0
  -85.4488   27.0069    2.1409 O   0  0  0  0  0  0  0  0  0  0  0  0
  -86.7409   26.5489    2.0935 C   0  0  0  0  0  0  0  0  0  0  0  0
  -84.8511   26.3199    2.4951 H   0  0  0  0  0  0  0  0  0  0  0  0
 27 28  1  0  0  0
 28 18  1  0  0  0
 18 19  1  0  0  0
 19 20  1  0  0  0
 20 21  1  0  0  0
 21 22  1  0  0  0
 21 23  1  0  0  0
 23 24  1  0  0  0
 20  1  1  0  0  0
  1  2  1  0  0  0
  2  3  2  0  0  0
  3  4  1  0  0  0
  3  5  1  0  0  0
  5  6  2  0  0  0
  6  7  1  0  0  0
  6  8  1  0  0  0
  8  9  2  0  0  0
  9 10  1  0  0  0
 10 11  2  0  0  0
 11 12  1  0  0  0
 11 13  1  0  0  0
 13 14  2  0  0  0
 14 15  1  0  0  0
 15 16  2  0  0  0
 23 18  1  0  0  0
 16  1  1  0  0  0
  9  2  1  0  0  0
 16 10  1  0  0  0
 27 29  1  0  0  0
 22 25  1  0  0  0
 24 26  1  0  0  0
 12 17  1  0  0  0
M  END
> <minimizedAffinity>
-9.72091

> <CNNscore>
0.8647685647

> <CNNaffinity>
6.4069547653

> <CNN_VS>
5.5405330658

> <CNNaffinity_variance>
0.0405312665

$$$$
[H]Oc1c([H])c([H])c([H])c2c1c1c([H])c(Cl)c([H])c(Cl)c1n2[C@]1([H])O[C@]([H])(C([H])([H])O[H])[C@@]([H])(O[H])[C@@]1([H])O[H]


 29 32  0  0  0  0  0  0  0  0999 V2000
  -87.9001   29.7346   -0.4765 N   0  0  0  0  0  0  0  0  0  0  0  0
  -86.7796   30.5185   -0.2533 C   0  0  0  0  0  0  0  0  0  0  0  0
  -86.4281   31.7611   -0.7189 C   0  0  0  0  0  0  0  0  0  0  0  0
  -87.3727   32.7395   -1.8122 Cl  0  0  0  0  0  0  0  0  0  0  0  0
  -85.1953   32.2828   -0.2916 C   0  0  0  0  0  0  0  0  0  0  0  0
  -84.3714   31.6004    0.5467 C   0  0  0  0  0  0  0  0  0  0  0  0
  -82.8461   32.2690    1.0694 Cl  0  0  0  0  0  0  0  0  0  0  0  0
  -84.7549   30.3523    0.9954 C   0  0  0  0  0  0  0  0  0  0  0  0
  -85.9632   29.8015    0.5985 C   0  0  0  0  0  0  0  0  0  0  0  0
  -86.5593   28.5970    0.8986 C   0  0  0  0  0  0  0  0  0  0  0  0
  -86.2138   27.5122    1.6692 C   0  0  0  0  0  0  0  0  0  0  0  0
  -85.0592   27.4618    2.3570 O   0  0  0  0  0  0  0  0  0  0  0  0
  -87.0698   26.3871    1.7729 C   0  0  0  0  0  0  0  0  0  0  0  0
  -88.2505   26.3690    1.1053 C   0  0  0  0  0  0  0  0  0  0  0  0
  -88.5988   27.4774    0.3194 C   0  0  0  0  0  0  0  0  0  0  0  0
  -87.7730   28.5701    0.2167 C   0  0  0  0  0  0  0  0  0  0  0  0
  -84.2595   27.8534    2.6048 H   0  0  0  0  0  0  0  0  0  0  0  0
  -91.2003   30.1355   -1.6699 C   0  0  0  0  0  0  0  0  0  0  0  0
  -90.2055   29.9448   -0.7807 O   0  0  0  0  0  0  0  0  0  0  0  0
  -88.9471   30.2235   -1.3285 C   0  0  0  0  0  0  0  0  0  0  0  0
  -89.1769   29.5377   -2.6501 C   0  0  0  0  0  0  0  0  0  0  0  0
  -88.3865   29.9391   -3.6831 O   0  0  0  0  0  0  0  0  0  0  0  0
  -90.5777   30.1888   -3.0273 C   0  0  0  0  0  0  0  0  0  0  0  0
  -90.3819   31.4993   -3.3728 O   0  0  0  0  0  0  0  0  0  0  0  0
  -88.8302   29.5997   -4.5222 H   0  0  0  0  0  0  0  0  0  0  0  0
  -90.3569   31.6766   -4.3400 H   0  0  0  0  0  0  0  0  0  0  0  0
  -93.4826   29.4284   -1.2839 O   0  0  0  0  0  0  0  0  0  0  0  0
  -92.2049   29.0024   -1.5441 C   0  0  0  0  0  0  0  0  0  0  0  0
  -94.0587   28.6736   -1.0537 H   0  0  0  0  0  0  0  0  0  0  0  0
 27 28  1  0  0  0
 28 18  1  0  0  0
 18 19  1  0  0  0
 19 20  1  0  0  0
 20 21  1  0  0  0
 21 22  1  0  0  0
 21 23  1  0  0  0
 23 24  1  0  0  0
 20  1  1  0  0  0
  1  2  1  0  0  0
  2  3  2  0  0  0
  3  4  1  0  0  0
  3  5  1  0  0  0
  5  6  2  0  0  0
  6  7  1  0  0  0
  6  8  1  0  0  0
  8  9  2  0  0  0
  9 10  1  0  0  0
 10 11  2  0  0  0
 11 12  1  0  0  0
 11 13  1  0  0  0
 13 14  2  0  0  0
 14 15  1  0  0  0
 15 16  2  0  0  0
 23 18  1  0  0  0
 16  1  1  0  0  0
  9  2  1  0  0  0
 16 10  1  0  0  0
 27 29  1  0  0  0
 22 25  1  0  0  0
 24 26  1  0  0  0
 12 17  1  0  0  0
M  END
> <minimizedAffinity>
-8.74291

> <CNNscore>
0.6259104013

> <CNNaffinity>
5.9705114365

> <CNN_VS>
3.7370052338

> <CNNaffinity_variance>
0.1394618452

$$$$
[H]Oc1c([H])c([H])c([H])c2c1c1c([H])c(Cl)c([H])c(Cl)c1n2[C@]1([H])O[C@]([H])(C([H])([H])O[H])[C@@]([H])(O[H])[C@@]1([H])O[H]


 29 32  0  0  0  0  0  0  0  0999 V2000
  -87.6033   29.6806   -0.0073 N   0  0  0  0  0  0  0  0  0  0  0  0
  -86.8299   30.8062   -0.2416 C   0  0  0  0  0  0  0  0  0  0  0  0
  -87.1002   31.9765   -0.9063 C   0  0  0  0  0  0  0  0  0  0  0  0
  -88.6023   32.3668   -1.7038 Cl  0  0  0  0  0  0  0  0  0  0  0  0
  -86.0744   32.9352   -0.9632 C   0  0  0  0  0  0  0  0  0  0  0  0
  -84.8587   32.7304   -0.3910 C   0  0  0  0  0  0  0  0  0  0  0  0
  -83.5997   33.9368   -0.4691 Cl  0  0  0  0  0  0  0  0  0  0  0  0
  -84.6197   31.5414    0.2689 C   0  0  0  0  0  0  0  0  0  0  0  0
  -85.6045   30.5695    0.3488 C   0  0  0  0  0  0  0  0  0  0  0  0
  -85.6120   29.3241    0.9364 C   0  0  0  0  0  0  0  0  0  0  0  0
  -84.6941   28.5814    1.6406 C   0  0  0  0  0  0  0  0  0  0  0  0
  -83.4567   29.0370    1.9050 O   0  0  0  0  0  0  0  0  0  0  0  0
  -85.0165   27.2883    2.1236 C   0  0  0  0  0  0  0  0  0  0  0  0
  -86.2466   26.7650    1.8930 C   0  0  0  0  0  0  0  0  0  0  0  0
  -87.1798   27.5258    1.1733 C   0  0  0  0  0  0  0  0  0  0  0  0
  -86.8722   28.7794    0.7041 C   0  0  0  0  0  0  0  0  0  0  0  0
  -82.8189   29.7023    1.8358 H   0  0  0  0  0  0  0  0  0  0  0  0
  -91.0108   28.7532   -0.0730 C   0  0  0  0  0  0  0  0  0  0  0  0
  -89.8092   29.0673    0.4503 O   0  0  0  0  0  0  0  0  0  0  0  0
  -88.9506   29.6329   -0.5007 C   0  0  0  0  0  0  0  0  0  0  0  0
  -89.2730   28.6748   -1.6178 C   0  0  0  0  0  0  0  0  0  0  0  0
  -89.0108   29.1106   -2.8804 O   0  0  0  0  0  0  0  0  0  0  0  0
  -90.8603   28.7510   -1.5598 C   0  0  0  0  0  0  0  0  0  0  0  0
  -91.2666   29.9645   -2.0471 O   0  0  0  0  0  0  0  0  0  0  0  0
  -89.5147   28.4943   -3.4987 H   0  0  0  0  0  0  0  0  0  0  0  0
  -91.5816   29.9557   -2.9790 H   0  0  0  0  0  0  0  0  0  0  0  0
  -92.3167   26.7371   -0.3690 O   0  0  0  0  0  0  0  0  0  0  0  0
  -91.4483   27.3995    0.4608 C   0  0  0  0  0  0  0  0  0  0  0  0
  -92.6940   25.9547    0.0785 H   0  0  0  0  0  0  0  0  0  0  0  0
 27 28  1  0  0  0
 28 18  1  0  0  0
 18 19  1  0  0  0
 19 20  1  0  0  0
 20 21  1  0  0  0
 21 22  1  0  0  0
 21 23  1  0  0  0
 23 24  1  0  0  0
 20  1  1  0  0  0
  1  2  1  0  0  0
  2  3  2  0  0  0
  3  4  1  0  0  0
  3  5  1  0  0  0
  5  6  2  0  0  0
  6  7  1  0  0  0
  6  8  1  0  0  0
  8  9  2  0  0  0
  9 10  1  0  0  0
 10 11  2  0  0  0
 11 12  1  0  0  0
 11 13  1  0  0  0
 13 14  2  0  0  0
 14 15  1  0  0  0
 15 16  2  0  0  0
 23 18  1  0  0  0
 16  1  1  0  0  0
  9  2  1  0  0  0
 16 10  1  0  0  0
 27 29  1  0  0  0
 22 25  1  0  0  0
 24 26  1  0  0  0
 12 17  1  0  0  0
M  END
> <minimizedAffinity>
-8.54481

> <CNNscore>
0.6088488102

> <CNNaffinity>
5.8320064545

> <CNN_VS>
3.5508100986

> <CNNaffinity_variance>
0.0563421957

$$$$
[H]Oc1c([H])c([H])c([H])c2c1c1c([H])c(Cl)c([H])c(Cl)c1n2[C@]1([H])O[C@]([H])(C([H])([H])O[H])[C@@]([H])(O[H])[C@@]1([H])O[H]


 29 32  0  0  0  0  0  0  0  0999 V2000
  -87.3461   30.3347   -0.8434 N   0  0  0  0  0  0  0  0  0  0  0  0
  -87.7198   31.5177   -1.4604 C   0  0  0  0  0  0  0  0  0  0  0  0
  -88.8449   31.8618   -2.1677 C   0  0  0  0  0  0  0  0  0  0  0  0
  -90.1903   30.8050   -2.5110 Cl  0  0  0  0  0  0  0  0  0  0  0  0
  -88.9118   33.1717   -2.6720 C   0  0  0  0  0  0  0  0  0  0  0  0
  -87.9141   34.0742   -2.4787 C   0  0  0  0  0  0  0  0  0  0  0  0
  -88.0194   35.6982   -3.1096 Cl  0  0  0  0  0  0  0  0  0  0  0  0
  -86.7956   33.6948   -1.7637 C   0  0  0  0  0  0  0  0  0  0  0  0
  -86.6900   32.4125   -1.2485 C   0  0  0  0  0  0  0  0  0  0  0  0
  -85.6954   31.8017   -0.5178 C   0  0  0  0  0  0  0  0  0  0  0  0
  -84.4707   32.1955   -0.0329 C   0  0  0  0  0  0  0  0  0  0  0  0
  -83.9886   33.4356   -0.2290 O   0  0  0  0  0  0  0  0  0  0  0  0
  -83.6541   31.3006    0.7031 C   0  0  0  0  0  0  0  0  0  0  0  0
  -84.0769   30.0333    0.9382 C   0  0  0  0  0  0  0  0  0  0  0  0
  -85.3267   29.6353    0.4409 C   0  0  0  0  0  0  0  0  0  0  0  0
  -86.1217   30.4992   -0.2719 C   0  0  0  0  0  0  0  0  0  0  0  0
  -84.0858   34.2833   -0.5841 H   0  0  0  0  0  0  0  0  0  0  0  0
  -88.8284   27.3226    0.2546 C   0  0  0  0  0  0  0  0  0  0  0  0
  -88.2362   28.5302    0.3411 O   0  0  0  0  0  0  0  0  0  0  0  0
  -88.2302   29.2044   -0.8865 C   0  0  0  0  0  0  0  0  0  0  0  0
  -87.8419   28.0205   -1.7334 C   0  0  0  0  0  0  0  0  0  0  0  0
  -88.1558   28.0962   -3.0557 O   0  0  0  0  0  0  0  0  0  0  0  0
  -88.9078   26.9703   -1.1954 C   0  0  0  0  0  0  0  0  0  0  0  0
  -90.1474   27.3120   -1.6663 O   0  0  0  0  0  0  0  0  0  0  0  0
  -88.0836   27.1567   -3.4139 H   0  0  0  0  0  0  0  0  0  0  0  0
  -90.4533   26.7983   -2.4474 H   0  0  0  0  0  0  0  0  0  0  0  0
  -87.7334   25.1662    0.3468 O   0  0  0  0  0  0  0  0  0  0  0  0
  -88.0163   26.3115    1.0466 C   0  0  0  0  0  0  0  0  0  0  0  0
  -87.3543   24.4854    0.9363 H   0  0  0  0  0  0  0  0  0  0  0  0
 27 28  1  0  0  0
 28 18  1  0  0  0
 18 19  1  0  0  0
 19 20  1  0  0  0
 20 21  1  0  0  0
 21 22  1  0  0  0
 21 23  1  0  0  0
 23 24  1  0  0  0
 20  1  1  0  0  0
  1  2  1  0  0  0
  2  3  2  0  0  0
  3  4  1  0  0  0
  3  5  1  0  0  0
  5  6  2  0  0  0
  6  7  1  0  0  0
  6  8  1  0  0  0
  8  9  2  0  0  0
  9 10  1  0  0  0
 10 11  2  0  0  0
 11 12  1  0  0  0
 11 13  1  0  0  0
 13 14  2  0  0  0
 14 15  1  0  0  0
 15 16  2  0  0  0
 23 18  1  0  0  0
 16  1  1  0  0  0
  9  2  1  0  0  0
 16 10  1  0  0  0
 27 29  1  0  0  0
 22 25  1  0  0  0
 24 26  1  0  0  0
 12 17  1  0  0  0
M  END
> <minimizedAffinity>
-9.09964

> <CNNscore>
0.4917746782

> <CNNaffinity>
5.9498877525

> <CNN_VS>
2.9260041714

> <CNNaffinity_variance>
0.1335783452

$$$$
[H]Oc1c([H])c([H])c([H])c2c1c1c([H])c(Cl)c([H])c(Cl)c1n2[C@]1([H])O[C@]([H])(C([H])([H])O[H])[C@@]([H])(O[H])[C@@]1([H])O[H]


 29 32  0  0  0  0  0  0  0  0999 V2000
  -87.5122   29.0482    0.5237 N   0  0  0  0  0  0  0  0  0  0  0  0
  -86.2140   29.4870    0.7282 C   0  0  0  0  0  0  0  0  0  0  0  0
  -85.1257   28.8796    1.3038 C   0  0  0  0  0  0  0  0  0  0  0  0
  -85.1057   27.2776    1.9950 Cl  0  0  0  0  0  0  0  0  0  0  0  0
  -83.9304   29.6166    1.3552 C   0  0  0  0  0  0  0  0  0  0  0  0
  -83.8363   30.8796    0.8619 C   0  0  0  0  0  0  0  0  0  0  0  0
  -82.3402   31.7760    0.9314 Cl  0  0  0  0  0  0  0  0  0  0  0  0
  -84.9504   31.4614    0.2905 C   0  0  0  0  0  0  0  0  0  0  0  0
  -86.1488   30.7687    0.2192 C   0  0  0  0  0  0  0  0  0  0  0  0
  -87.3784   31.1227   -0.2896 C   0  0  0  0  0  0  0  0  0  0  0  0
  -87.8869   32.2465   -0.8969 C   0  0  0  0  0  0  0  0  0  0  0  0
  -87.1361   33.3391   -1.1232 O   0  0  0  0  0  0  0  0  0  0  0  0
  -89.2401   32.3022   -1.3150 C   0  0  0  0  0  0  0  0  0  0  0  0
  -90.0558   31.2365   -1.1177 C   0  0  0  0  0  0  0  0  0  0  0  0
  -89.5333   30.0922   -0.4969 C   0  0  0  0  0  0  0  0  0  0  0  0
  -88.2226   30.0333   -0.0908 C   0  0  0  0  0  0  0  0  0  0  0  0
  -86.3246   33.7772   -1.0619 H   0  0  0  0  0  0  0  0  0  0  0  0
  -88.5935   25.7043    0.1698 C   0  0  0  0  0  0  0  0  0  0  0  0
  -87.9813   26.8620   -0.1488 O   0  0  0  0  0  0  0  0  0  0  0  0
  -87.8880   27.7290    0.9472 C   0  0  0  0  0  0  0  0  0  0  0  0
  -89.2872   27.5108    1.4613 C   0  0  0  0  0  0  0  0  0  0  0  0
  -89.5000   27.8040    2.7733 O   0  0  0  0  0  0  0  0  0  0  0  0
  -89.3048   25.9207    1.4661 C   0  0  0  0  0  0  0  0  0  0  0  0
  -88.5113   25.4690    2.4865 O   0  0  0  0  0  0  0  0  0  0  0  0
  -90.3726   27.3635    3.0198 H   0  0  0  0  0  0  0  0  0  0  0  0
  -88.9925   25.1967    3.3002 H   0  0  0  0  0  0  0  0  0  0  0  0
  -88.9288   24.7056   -2.0092 O   0  0  0  0  0  0  0  0  0  0  0  0
  -89.5464   25.3202   -0.9498 C   0  0  0  0  0  0  0  0  0  0  0  0
  -89.5416   24.6215   -2.7655 H   0  0  0  0  0  0  0  0  0  0  0  0
 27 28  1  0  0  0
 28 18  1  0  0  0
 18 19  1  0  0  0
 19 20  1  0  0  0
 20 21  1  0  0  0
 21 22  1  0  0  0
 21 23  1  0  0  0
 23 24  1  0  0  0
 20  1  1  0  0  0
  1  2  1  0  0  0
  2  3  2  0  0  0
  3  4  1  0  0  0
  3  5  1  0  0  0
  5  6  2  0  0  0
  6  7  1  0  0  0
  6  8  1  0  0  0
  8  9  2  0  0  0
  9 10  1  0  0  0
 10 11  2  0  0  0
 11 12  1  0  0  0
 11 13  1  0  0  0
 13 14  2  0  0  0
 14 15  1  0  0  0
 15 16  2  0  0  0
 23 18  1  0  0  0
 16  1  1  0  0  0
  9  2  1  0  0  0
 16 10  1  0  0  0
 27 29  1  0  0  0
 22 25  1  0  0  0
 24 26  1  0  0  0
 12 17  1  0  0  0
M  END
> <minimizedAffinity>
-9.56462

> <CNNscore>
0.3849051297

> <CNNaffinity>
5.5906934738

> <CNN_VS>
2.1518867016

> <CNNaffinity_variance>
0.3276140988

$$$$
[H]Oc1c([H])c([H])c([H])c2c1c1c([H])c(Cl)c([H])c(Cl)c1n2[C@]1([H])O[C@]([H])(C([H])([H])O[H])[C@@]([H])(O[H])[C@@]1([H])O[H]


 29 32  0  0  0  0  0  0  0  0999 V2000
  -87.9674   30.3738   -1.7853 N   0  0  0  0  0  0  0  0  0  0  0  0
  -86.9992   30.9079   -0.9505 C   0  0  0  0  0  0  0  0  0  0  0  0
  -86.4731   32.1723   -0.8556 C   0  0  0  0  0  0  0  0  0  0  0  0
  -86.9145   33.5326   -1.8555 Cl  0  0  0  0  0  0  0  0  0  0  0  0
  -85.4833   32.3855    0.1188 C   0  0  0  0  0  0  0  0  0  0  0  0
  -85.0513   31.3937    0.9415 C   0  0  0  0  0  0  0  0  0  0  0  0
  -83.8239   31.6811    2.1489 Cl  0  0  0  0  0  0  0  0  0  0  0  0
  -85.6007   30.1331    0.8187 C   0  0  0  0  0  0  0  0  0  0  0  0
  -86.5799   29.8805   -0.1291 C   0  0  0  0  0  0  0  0  0  0  0  0
  -87.2690   28.7309   -0.4452 C   0  0  0  0  0  0  0  0  0  0  0  0
  -87.2622   27.4389    0.0248 C   0  0  0  0  0  0  0  0  0  0  0  0
  -86.4545   27.0461    1.0259 O   0  0  0  0  0  0  0  0  0  0  0  0
  -88.1160   26.4542   -0.5324 C   0  0  0  0  0  0  0  0  0  0  0  0
  -88.9567   26.7798   -1.5459 C   0  0  0  0  0  0  0  0  0  0  0  0
  -88.9599   28.0989   -2.0231 C   0  0  0  0  0  0  0  0  0  0  0  0
  -88.1350   29.0566   -1.4857 C   0  0  0  0  0  0  0  0  0  0  0  0
  -85.8004   27.2430    1.6483 H   0  0  0  0  0  0  0  0  0  0  0  0
  -90.6043   31.6206   -3.7774 C   0  0  0  0  0  0  0  0  0  0  0  0
  -89.9964   31.0676   -2.7091 O   0  0  0  0  0  0  0  0  0  0  0  0
  -88.6046   31.2151   -2.7586 C   0  0  0  0  0  0  0  0  0  0  0  0
  -88.4453   30.8739   -4.2174 C   0  0  0  0  0  0  0  0  0  0  0  0
  -87.3133   31.3270   -4.8224 O   0  0  0  0  0  0  0  0  0  0  0  0
  -89.5567   31.8381   -4.8206 C   0  0  0  0  0  0  0  0  0  0  0  0
  -89.1154   33.1319   -4.7411 O   0  0  0  0  0  0  0  0  0  0  0  0
  -87.4801   31.2579   -5.8142 H   0  0  0  0  0  0  0  0  0  0  0  0
  -88.7452   33.4986   -5.5754 H   0  0  0  0  0  0  0  0  0  0  0  0
  -91.5264   30.2431   -5.5410 O   0  0  0  0  0  0  0  0  0  0  0  0
  -91.7079   30.6931   -4.2580 C   0  0  0  0  0  0  0  0  0  0  0  0
  -92.3273   29.7858   -5.8637 H   0  0  0  0  0  0  0  0  0  0  0  0
 27 28  1  0  0  0
 28 18  1  0  0  0
 18 19  1  0  0  0
 19 20  1  0  0  0
 20 21  1  0  0  0
 21 22  1  0  0  0
 21 23  1  0  0  0
 23 24  1  0  0  0
 20  1  1  0  0  0
  1  2  1  0  0  0
  2  3  2  0  0  0
  3  4  1  0  0  0
  3  5  1  0  0  0
  5  6  2  0  0  0
  6  7  1  0  0  0
  6  8  1  0  0  0
  8  9  2  0  0  0
  9 10  1  0  0  0
 10 11  2  0  0  0
 11 12  1  0  0  0
 11 13  1  0  0  0
 13 14  2  0  0  0
 14 15  1  0  0  0
 15 16  2  0  0  0
 23 18  1  0  0  0
 16  1  1  0  0  0
  9  2  1  0  0  0
 16 10  1  0  0  0
 27 29  1  0  0  0
 22 25  1  0  0  0
 24 26  1  0  0  0
 12 17  1  0  0  0
M  END
> <minimizedAffinity>
-8.66673

> <CNNscore>
0.3520871997

> <CNNaffinity>
5.5389952660

> <CNN_VS>
1.9502093792

> <CNNaffinity_variance>
0.1223957092

$$$$
[H]Oc1c([H])c([H])c([H])c2c1c1c([H])c(Cl)c([H])c(Cl)c1n2[C@]1([H])O[C@]([H])(C([H])([H])O[H])[C@@]([H])(O[H])[C@@]1([H])O[H]


 29 32  0  0  0  0  0  0  0  0999 V2000
  -86.8203   28.6439    0.8715 N   0  0  0  0  0  0  0  0  0  0  0  0
  -86.9554   29.8661    0.2331 C   0  0  0  0  0  0  0  0  0  0  0  0
  -88.0048   30.4265   -0.4519 C   0  0  0  0  0  0  0  0  0  0  0  0
  -89.5538   29.6725   -0.7288 Cl  0  0  0  0  0  0  0  0  0  0  0  0
  -87.8096   31.7099   -0.9897 C   0  0  0  0  0  0  0  0  0  0  0  0
  -86.6377   32.3839   -0.8488 C   0  0  0  0  0  0  0  0  0  0  0  0
  -86.4177   33.9798   -1.5207 Cl  0  0  0  0  0  0  0  0  0  0  0  0
  -85.6019   31.7906   -0.1549 C   0  0  0  0  0  0  0  0  0  0  0  0
  -85.7532   30.5262    0.3919 C   0  0  0  0  0  0  0  0  0  0  0  0
  -84.8868   29.7335    1.1112 C   0  0  0  0  0  0  0  0  0  0  0  0
  -83.5913   29.8682    1.5511 C   0  0  0  0  0  0  0  0  0  0  0  0
  -82.8645   30.9734    1.3079 O   0  0  0  0  0  0  0  0  0  0  0  0
  -82.9588   28.8359    2.2883 C   0  0  0  0  0  0  0  0  0  0  0  0
  -83.6322   27.6924    2.5695 C   0  0  0  0  0  0  0  0  0  0  0  0
  -84.9535   27.5586    2.1181 C   0  0  0  0  0  0  0  0  0  0  0  0
  -85.5708   28.5566    1.4043 C   0  0  0  0  0  0  0  0  0  0  0  0
  -82.7918   31.8148    0.9326 H   0  0  0  0  0  0  0  0  0  0  0  0
  -89.3240   26.5882    2.2792 C   0  0  0  0  0  0  0  0  0  0  0  0
  -88.4788   27.6320    2.1665 O   0  0  0  0  0  0  0  0  0  0  0  0
  -87.9244   27.7264    0.8839 C   0  0  0  0  0  0  0  0  0  0  0  0
  -87.6398   26.2574    0.7087 C   0  0  0  0  0  0  0  0  0  0  0  0
  -87.5131   25.8164   -0.5728 O   0  0  0  0  0  0  0  0  0  0  0  0
  -89.0613   25.6779    1.1235 C   0  0  0  0  0  0  0  0  0  0  0  0
  -89.9624   25.9534    0.1300 O   0  0  0  0  0  0  0  0  0  0  0  0
  -87.5964   24.8126   -0.5321 H   0  0  0  0  0  0  0  0  0  0  0  0
  -90.1499   25.2066   -0.4822 H   0  0  0  0  0  0  0  0  0  0  0  0
  -89.1285   24.5318    3.5404 O   0  0  0  0  0  0  0  0  0  0  0  0
  -89.0919   25.9010    3.6145 C   0  0  0  0  0  0  0  0  0  0  0  0
  -89.1355   24.1372    4.4343 H   0  0  0  0  0  0  0  0  0  0  0  0
 27 28  1  0  0  0
 28 18  1  0  0  0
 18 19  1  0  0  0
 19 20  1  0  0  0
 20 21  1  0  0  0
 21 22  1  0  0  0
 21 23  1  0  0  0
 23 24  1  0  0  0
 20  1  1  0  0  0
  1  2  1  0  0  0
  2  3  2  0  0  0
  3  4  1  0  0  0
  3  5  1  0  0  0
  5  6  2  0  0  0
  6  7  1  0  0  0
  6  8  1  0  0  0
  8  9  2  0  0  0
  9 10  1  0  0  0
 10 11  2  0  0  0
 11 12  1  0  0  0
 11 13  1  0  0  0
 13 14  2  0  0  0
 14 15  1  0  0  0
 15 16  2  0  0  0
 23 18  1  0  0  0
 16  1  1  0  0  0
  9  2  1  0  0  0
 16 10  1  0  0  0
 27 29  1  0  0  0
 22 25  1  0  0  0
 24 26  1  0  0  0
 12 17  1  0  0  0
M  END
> <minimizedAffinity>
-10.07933

> <CNNscore>
0.3346450031

> <CNNaffinity>
5.6471834183

> <CNN_VS>
1.8898017406

> <CNNaffinity_variance>
0.1911925972

$$$$
[H]Oc1c([H])c([H])c([H])c2c1c1c([H])c(Cl)c([H])c(Cl)c1n2[C@]1([H])O[C@]([H])(C([H])([H])O[H])[C@@]([H])(O[H])[C@@]1([H])O[H]


 29 32  0  0  0  0  0  0  0  0999 V2000
  -86.6349   30.7029   -0.3636 N   0  0  0  0  0  0  0  0  0  0  0  0
  -86.0598   29.7384    0.4481 C   0  0  0  0  0  0  0  0  0  0  0  0
  -86.5229   28.5242    0.8906 C   0  0  0  0  0  0  0  0  0  0  0  0
  -88.0868   27.8411    0.5271 Cl  0  0  0  0  0  0  0  0  0  0  0  0
  -85.6714   27.7748    1.7201 C   0  0  0  0  0  0  0  0  0  0  0  0
  -84.4379   28.2171    2.0807 C   0  0  0  0  0  0  0  0  0  0  0  0
  -83.3938   27.2680    3.1082 Cl  0  0  0  0  0  0  0  0  0  0  0  0
  -84.0035   29.4436    1.6189 C   0  0  0  0  0  0  0  0  0  0  0  0
  -84.8119   30.2141    0.7982 C   0  0  0  0  0  0  0  0  0  0  0  0
  -84.6133   31.4481    0.2201 C   0  0  0  0  0  0  0  0  0  0  0  0
  -83.5891   32.3653    0.2257 C   0  0  0  0  0  0  0  0  0  0  0  0
  -82.4455   32.1566    0.9020 O   0  0  0  0  0  0  0  0  0  0  0  0
  -83.6962   33.5845   -0.4894 C   0  0  0  0  0  0  0  0  0  0  0  0
  -84.8222   33.8617   -1.1932 C   0  0  0  0  0  0  0  0  0  0  0  0
  -85.8650   32.9236   -1.1956 C   0  0  0  0  0  0  0  0  0  0  0  0
  -85.7655   31.7406   -0.5050 C   0  0  0  0  0  0  0  0  0  0  0  0
  -81.9282   31.6220    1.4504 H   0  0  0  0  0  0  0  0  0  0  0  0
  -89.0841   30.1477   -2.8473 C   0  0  0  0  0  0  0  0  0  0  0  0
  -87.8822   30.0911   -2.2402 O   0  0  0  0  0  0  0  0  0  0  0  0
  -87.9495   30.4855   -0.8980 C   0  0  0  0  0  0  0  0  0  0  0  0
  -88.8443   31.6785   -1.1119 C   0  0  0  0  0  0  0  0  0  0  0  0
  -89.5456   32.1083   -0.0274 O   0  0  0  0  0  0  0  0  0  0  0  0
  -89.9753   30.9862   -1.9896 C   0  0  0  0  0  0  0  0  0  0  0  0
  -90.7202   30.1629   -1.1882 O   0  0  0  0  0  0  0  0  0  0  0  0
  -90.2709   32.7104   -0.3846 H   0  0  0  0  0  0  0  0  0  0  0  0
  -91.5779   30.5384   -0.8865 H   0  0  0  0  0  0  0  0  0  0  0  0
  -90.0875   30.8397   -4.9383 O   0  0  0  0  0  0  0  0  0  0  0  0
  -88.9122   30.7327   -4.2392 C   0  0  0  0  0  0  0  0  0  0  0  0
  -89.9146   31.0662   -5.8729 H   0  0  0  0  0  0  0  0  0  0  0  0
 27 28  1  0  0  0
 28 18  1  0  0  0
 18 19  1  0  0  0
 19 20  1  0  0  0
 20 21  1  0  0  0
 21 22  1  0  0  0
 21 23  1  0  0  0
 23 24  1  0  0  0
 20  1  1  0  0  0
  1  2  1  0  0  0
  2  3  2  0  0  0
  3  4  1  0  0  0
  3  5  1  0  0  0
  5  6  2  0  0  0
  6  7  1  0  0  0
  6  8  1  0  0  0
  8  9  2  0  0  0
  9 10  1  0  0  0
 10 11  2  0  0  0
 11 12  1  0  0  0
 11 13  1  0  0  0
 13 14  2  0  0  0
 14 15  1  0  0  0
 15 16  2  0  0  0
 23 18  1  0  0  0
 16  1  1  0  0  0
  9  2  1  0  0  0
 16 10  1  0  0  0
 27 29  1  0  0  0
 22 25  1  0  0  0
 24 26  1  0  0  0
 12 17  1  0  0  0
M  END
> <minimizedAffinity>
-8.72151

> <CNNscore>
0.3049755991

> <CNNaffinity>
5.7484922409

> <CNN_VS>
1.7531498671

> <CNNaffinity_variance>
0.1201720461

$$$$
[H]Oc1c([H])c([H])c([H])c2c1c1c([H])c(Cl)c([H])c(Cl)c1n2[C@]1([H])O[C@]([H])(C([H])([H])O[H])[C@@]([H])(O[H])[C@@]1([H])O[H]


 29 32  0  0  0  0  0  0  0  0999 V2000
  -87.8229   30.7255   -1.6203 N   0  0  0  0  0  0  0  0  0  0  0  0
  -87.8331   31.8121   -2.4800 C   0  0  0  0  0  0  0  0  0  0  0  0
  -88.5978   32.0943   -3.5846 C   0  0  0  0  0  0  0  0  0  0  0  0
  -89.8394   31.0639   -4.2491 Cl  0  0  0  0  0  0  0  0  0  0  0  0
  -88.3486   33.3088   -4.2460 C   0  0  0  0  0  0  0  0  0  0  0  0
  -87.3941   34.1802   -3.8254 C   0  0  0  0  0  0  0  0  0  0  0  0
  -87.1040   35.6862   -4.6587 Cl  0  0  0  0  0  0  0  0  0  0  0  0
  -86.6419   33.8648   -2.7114 C   0  0  0  0  0  0  0  0  0  0  0  0
  -86.8560   32.6773   -2.0296 C   0  0  0  0  0  0  0  0  0  0  0  0
  -86.2485   32.1425   -0.9156 C   0  0  0  0  0  0  0  0  0  0  0  0
  -85.2371   32.5475   -0.0770 C   0  0  0  0  0  0  0  0  0  0  0  0
  -84.5918   33.7152   -0.2464 O   0  0  0  0  0  0  0  0  0  0  0  0
  -84.8265   31.7420    1.0148 C   0  0  0  0  0  0  0  0  0  0  0  0
  -85.4331   30.5508    1.2452 C   0  0  0  0  0  0  0  0  0  0  0  0
  -86.4639   30.1409    0.3867 C   0  0  0  0  0  0  0  0  0  0  0  0
  -86.8658   30.9184   -0.6719 C   0  0  0  0  0  0  0  0  0  0  0  0
  -84.4707   34.4993   -0.7205 H   0  0  0  0  0  0  0  0  0  0  0  0
  -90.0026   28.0911   -0.7347 C   0  0  0  0  0  0  0  0  0  0  0  0
  -89.3488   29.2647   -0.6259 O   0  0  0  0  0  0  0  0  0  0  0  0
  -88.7476   29.6479   -1.8313 C   0  0  0  0  0  0  0  0  0  0  0  0
  -88.1999   28.2914   -2.1915 C   0  0  0  0  0  0  0  0  0  0  0  0
  -87.9250   28.0824   -3.5082 O   0  0  0  0  0  0  0  0  0  0  0  0
  -89.5188   27.4279   -1.9833 C   0  0  0  0  0  0  0  0  0  0  0  0
  -90.3963   27.7022   -2.9981 O   0  0  0  0  0  0  0  0  0  0  0  0
  -87.8329   27.0847   -3.6192 H   0  0  0  0  0  0  0  0  0  0  0  0
  -90.4145   27.0392   -3.7247 H   0  0  0  0  0  0  0  0  0  0  0  0
  -89.0151   27.9148    1.4679 O   0  0  0  0  0  0  0  0  0  0  0  0
  -89.7298   27.2522    0.5026 C   0  0  0  0  0  0  0  0  0  0  0  0
  -88.7260   27.2982    2.1686 H   0  0  0  0  0  0  0  0  0  0  0  0
 27 28  1  0  0  0
 28 18  1  0  0  0
 18 19  1  0  0  0
 19 20  1  0  0  0
 20 21  1  0  0  0
 21 22  1  0  0  0
 21 23  1  0  0  0
 23 24  1  0  0  0
 20  1  1  0  0  0
  1  2  1  0  0  0
  2  3  2  0  0  0
  3  4  1  0  0  0
  3  5  1  0  0  0
  5  6  2  0  0  0
  6  7  1  0  0  0
  6  8  1  0  0  0
  8  9  2  0  0  0
  9 10  1  0  0  0
 10 11  2  0  0  0
 11 12  1  0  0  0
 11 13  1  0  0  0
 13 14  2  0  0  0
 14 15  1  0  0  0
 15 16  2  0  0  0
 23 18  1  0  0  0
 16  1  1  0  0  0
  9  2  1  0  0  0
 16 10  1  0  0  0
 27 29  1  0  0  0
 22 25  1  0  0  0
 24 26  1  0  0  0
 12 17  1  0  0  0
M  END
> <minimizedAffinity>
-8.38235

> <CNNscore>
0.2863985002

> <CNNaffinity>
5.4522333145

> <CNN_VS>
1.5615113974

> <CNNaffinity_variance>
0.2465945929

$$$$
[H]Oc1c([H])c(O[H])c(C([H])(C([H])([H])[H])C([H])([H])[H])c([H])c1C(=O)N1C([H])([H])c2c([H])c([H])c([H])c([H])c2C([H])([H])C1([H])[H]


 25 27  0  0  0  0  0  0  0  0999 V2000
  -84.4239   31.4647    0.9640 C   0  0  0  0  0  0  0  0  0  0  0  0
  -85.7000   31.2995    0.4121 C   0  0  0  0  0  0  0  0  0  0  0  0
  -86.1806   31.9899   -0.6645 C   0  0  0  0  0  0  0  0  0  0  0  0
  -85.2934   32.9329   -1.2387 C   0  0  0  0  0  0  0  0  0  0  0  0
  -85.6782   33.6867   -2.3335 O   0  0  0  0  0  0  0  0  0  0  0  0
  -84.0437   33.0987   -0.7037 C   0  0  0  0  0  0  0  0  0  0  0  0
  -83.5946   32.3860    0.3815 C   0  0  0  0  0  0  0  0  0  0  0  0
  -82.3272   32.5660    0.9112 O   0  0  0  0  0  0  0  0  0  0  0  0
  -85.0658   34.3658   -2.7609 H   0  0  0  0  0  0  0  0  0  0  0  0
  -81.6525   33.2214    0.5460 H   0  0  0  0  0  0  0  0  0  0  0  0
  -87.4813   31.8180   -1.2700 C   0  0  0  0  0  0  0  0  0  0  0  0
  -88.2744   32.8734   -1.1464 O   0  0  0  0  0  0  0  0  0  0  0  0
  -88.0934   30.7814   -1.9587 N   0  0  0  0  0  0  0  0  0  0  0  0
  -87.5057   29.5164   -2.2238 C   0  0  0  0  0  0  0  0  0  0  0  0
  -88.4348   28.4585   -2.7932 C   0  0  0  0  0  0  0  0  0  0  0  0
  -89.8298   28.6599   -2.3647 C   0  0  0  0  0  0  0  0  0  0  0  0
  -90.6248   27.5668   -2.1314 C   0  0  0  0  0  0  0  0  0  0  0  0
  -91.9551   27.7333   -1.7189 C   0  0  0  0  0  0  0  0  0  0  0  0
  -92.4682   28.9942   -1.5463 C   0  0  0  0  0  0  0  0  0  0  0  0
  -91.6395   30.0758   -1.7902 C   0  0  0  0  0  0  0  0  0  0  0  0
  -90.3483   29.9278   -2.1906 C   0  0  0  0  0  0  0  0  0  0  0  0
  -89.4621   31.0515   -2.4562 C   0  0  0  0  0  0  0  0  0  0  0  0
  -85.1701   30.2722    2.9865 C   0  0  0  0  0  0  0  0  0  0  0  0
  -83.9764   30.6648    2.1480 C   0  0  0  0  0  0  0  0  0  0  0  0
  -83.1350   29.4931    1.7637 C   0  0  0  0  0  0  0  0  0  0  0  0
 23 24  1  0  0  0
 24 25  1  0  0  0
 24  1  1  0  0  0
  1  2  2  0  0  0
  2  3  1  0  0  0
  3 11  1  0  0  0
 11 12  2  0  0  0
 11 13  1  0  0  0
 13 14  1  0  0  0
 14 15  1  0  0  0
 15 16  1  0  0  0
 16 17  2  0  0  0
 17 18  1  0  0  0
 18 19  2  0  0  0
 19 20  1  0  0  0
 20 21  2  0  0  0
 21 22  1  0  0  0
  3  4  2  0  0  0
  4  5  1  0  0  0
  4  6  1  0  0  0
  6  7  2  0  0  0
  7  8  1  0  0  0
  7  1  1  0  0  0
 22 13  1  0  0  0
 21 16  1  0  0  0
  5  9  1  0  0  0
  8 10  1  0  0  0
M  END
> <minimizedAffinity>
-8.77241

> <CNNscore>
0.3760597110

> <CNNaffinity>
5.4257583618

> <CNN_VS>
2.0404090881

> <CNNaffinity_variance>
0.1311219335

$$$$
[H]Oc1c([H])c(O[H])c(C([H])(C([H])([H])[H])C([H])([H])[H])c([H])c1C(=O)N1C([H])([H])c2c([H])c([H])c([H])c([H])c2C([H])([H])C1([H])[H]


 25 27  0  0  0  0  0  0  0  0999 V2000
  -85.1786   29.5687    1.3814 C   0  0  0  0  0  0  0  0  0  0  0  0
  -86.2322   29.9049    0.5229 C   0  0  0  0  0  0  0  0  0  0  0  0
  -87.3901   29.1917    0.3909 C   0  0  0  0  0  0  0  0  0  0  0  0
  -87.4965   28.0334    1.1991 C   0  0  0  0  0  0  0  0  0  0  0  0
  -88.6275   27.2378    1.1447 O   0  0  0  0  0  0  0  0  0  0  0  0
  -86.4696   27.6995    2.0411 C   0  0  0  0  0  0  0  0  0  0  0  0
  -85.3182   28.4415    2.1468 C   0  0  0  0  0  0  0  0  0  0  0  0
  -84.2878   28.0897    3.0034 O   0  0  0  0  0  0  0  0  0  0  0  0
  -88.7283   26.4071    1.7090 H   0  0  0  0  0  0  0  0  0  0  0  0
  -84.3062   27.2777    3.6022 H   0  0  0  0  0  0  0  0  0  0  0  0
  -88.5029   29.5327   -0.4654 C   0  0  0  0  0  0  0  0  0  0  0  0
  -89.0342   30.7199   -0.2077 O   0  0  0  0  0  0  0  0  0  0  0  0
  -89.1484   28.8860   -1.5088 N   0  0  0  0  0  0  0  0  0  0  0  0
  -88.8238   27.5919   -1.9945 C   0  0  0  0  0  0  0  0  0  0  0  0
  -89.8020   26.9910   -2.9888 C   0  0  0  0  0  0  0  0  0  0  0  0
  -91.1735   27.4883   -2.7840 C   0  0  0  0  0  0  0  0  0  0  0  0
  -92.2330   26.6457   -3.0046 C   0  0  0  0  0  0  0  0  0  0  0  0
  -93.5478   27.0951   -2.8125 C   0  0  0  0  0  0  0  0  0  0  0  0
  -93.7802   28.3836   -2.4017 C   0  0  0  0  0  0  0  0  0  0  0  0
  -92.6890   29.2081   -2.1880 C   0  0  0  0  0  0  0  0  0  0  0  0
  -91.4097   28.7844   -2.3708 C   0  0  0  0  0  0  0  0  0  0  0  0
  -90.2493   29.6365   -2.1558 C   0  0  0  0  0  0  0  0  0  0  0  0
  -83.4511   30.7431    0.0752 C   0  0  0  0  0  0  0  0  0  0  0  0
  -83.9414   30.4081    1.4643 C   0  0  0  0  0  0  0  0  0  0  0  0
  -84.1271   31.6206    2.3150 C   0  0  0  0  0  0  0  0  0  0  0  0
 23 24  1  0  0  0
 24 25  1  0  0  0
 24  1  1  0  0  0
  1  2  2  0  0  0
  2  3  1  0  0  0
  3 11  1  0  0  0
 11 12  2  0  0  0
 11 13  1  0  0  0
 13 14  1  0  0  0
 14 15  1  0  0  0
 15 16  1  0  0  0
 16 17  2  0  0  0
 17 18  1  0  0  0
 18 19  2  0  0  0
 19 20  1  0  0  0
 20 21  2  0  0  0
 21 22  1  0  0  0
  3  4  2  0  0  0
  4  5  1  0  0  0
  4  6  1  0  0  0
  6  7  2  0  0  0
  7  8  1  0  0  0
  7  1  1  0  0  0
 22 13  1  0  0  0
 21 16  1  0  0  0
  5  9  1  0  0  0
  8 10  1  0  0  0
M  END
> <minimizedAffinity>
-7.26640

> <CNNscore>
0.3727103472

> <CNNaffinity>
5.4532403946

> <CNN_VS>
2.0324790478

> <CNNaffinity_variance>
0.0897856578

$$$$
[H]Oc1c([H])c(O[H])c(C([H])(C([H])([H])[H])C([H])([H])[H])c([H])c1C(=O)N1C([H])([H])c2c([H])c([H])c([H])c([H])c2C([H])([H])C1([H])[H]


 25 27  0  0  0  0  0  0  0  0999 V2000
  -84.3440   31.6017    0.8684 C   0  0  0  0  0  0  0  0  0  0  0  0
  -85.6482   31.5923    0.3595 C   0  0  0  0  0  0  0  0  0  0  0  0
  -86.0438   32.2213   -0.7870 C   0  0  0  0  0  0  0  0  0  0  0  0
  -85.0317   32.9239   -1.4857 C   0  0  0  0  0  0  0  0  0  0  0  0
  -85.3228   33.5966   -2.6595 O   0  0  0  0  0  0  0  0  0  0  0  0
  -83.7540   32.9364   -0.9933 C   0  0  0  0  0  0  0  0  0  0  0  0
  -83.3929   32.2919    0.1650 C   0  0  0  0  0  0  0  0  0  0  0  0
  -82.0955   32.3147    0.6502 O   0  0  0  0  0  0  0  0  0  0  0  0
  -84.6207   34.1054   -3.1761 H   0  0  0  0  0  0  0  0  0  0  0  0
  -81.3336   32.7971    0.1973 H   0  0  0  0  0  0  0  0  0  0  0  0
  -87.3753   32.2031   -1.3480 C   0  0  0  0  0  0  0  0  0  0  0  0
  -87.9706   31.0203   -1.2787 O   0  0  0  0  0  0  0  0  0  0  0  0
  -88.1788   33.1587   -1.9520 N   0  0  0  0  0  0  0  0  0  0  0  0
  -87.8060   34.5076   -2.1917 C   0  0  0  0  0  0  0  0  0  0  0  0
  -88.7524   35.3131   -3.0646 C   0  0  0  0  0  0  0  0  0  0  0  0
  -89.4787   34.4626   -4.0234 C   0  0  0  0  0  0  0  0  0  0  0  0
  -89.7721   34.9552   -5.2694 C   0  0  0  0  0  0  0  0  0  0  0  0
  -90.4592   34.1629   -6.2009 C   0  0  0  0  0  0  0  0  0  0  0  0
  -90.8418   32.8877   -5.8684 C   0  0  0  0  0  0  0  0  0  0  0  0
  -90.5303   32.4211   -4.6029 C   0  0  0  0  0  0  0  0  0  0  0  0
  -89.8648   33.1793   -3.6910 C   0  0  0  0  0  0  0  0  0  0  0  0
  -89.5315   32.7091   -2.3544 C   0  0  0  0  0  0  0  0  0  0  0  0
  -85.0940   31.0744    3.1551 C   0  0  0  0  0  0  0  0  0  0  0  0
  -83.9957   30.8839    2.1355 C   0  0  0  0  0  0  0  0  0  0  0  0
  -83.6672   29.4455    1.9081 C   0  0  0  0  0  0  0  0  0  0  0  0
 23 24  1  0  0  0
 24 25  1  0  0  0
 24  1  1  0  0  0
  1  2  2  0  0  0
  2  3  1  0  0  0
  3 11  1  0  0  0
 11 12  2  0  0  0
 11 13  1  0  0  0
 13 14  1  0  0  0
 14 15  1  0  0  0
 15 16  1  0  0  0
 16 17  2  0  0  0
 17 18  1  0  0  0
 18 19  2  0  0  0
 19 20  1  0  0  0
 20 21  2  0  0  0
 21 22  1  0  0  0
  3  4  2  0  0  0
  4  5  1  0  0  0
  4  6  1  0  0  0
  6  7  2  0  0  0
  7  8  1  0  0  0
  7  1  1  0  0  0
 22 13  1  0  0  0
 21 16  1  0  0  0
  5  9  1  0  0  0
  8 10  1  0  0  0
M  END
> <minimizedAffinity>
-8.19737

> <CNNscore>
0.3710773289

> <CNNaffinity>
5.4740133286

> <CNN_VS>
2.0312821865

> <CNNaffinity_variance>
0.1787142605

$$$$
[H]Oc1c([H])c(O[H])c(C([H])(C([H])([H])[H])C([H])([H])[H])c([H])c1C(=O)N1C([H])([H])c2c([H])c([H])c([H])c([H])c2C([H])([H])C1([H])[H]


 25 27  0  0  0  0  0  0  0  0999 V2000
  -84.9150   29.1623    1.4103 C   0  0  0  0  0  0  0  0  0  0  0  0
  -85.8316   29.1340    0.3524 C   0  0  0  0  0  0  0  0  0  0  0  0
  -86.6425   28.0768    0.0496 C   0  0  0  0  0  0  0  0  0  0  0  0
  -86.5192   26.9442    0.8910 C   0  0  0  0  0  0  0  0  0  0  0  0
  -87.2935   25.8178    0.6744 O   0  0  0  0  0  0  0  0  0  0  0  0
  -85.6249   26.9659    1.9278 C   0  0  0  0  0  0  0  0  0  0  0  0
  -84.8242   28.0482    2.2018 C   0  0  0  0  0  0  0  0  0  0  0  0
  -83.9238   28.0541    3.2545 O   0  0  0  0  0  0  0  0  0  0  0  0
  -87.2246   24.9974    1.2583 H   0  0  0  0  0  0  0  0  0  0  0  0
  -83.7916   27.2786    3.8865 H   0  0  0  0  0  0  0  0  0  0  0  0
  -87.6157   28.0332   -1.0175 C   0  0  0  0  0  0  0  0  0  0  0  0
  -87.0820   28.0454   -2.2313 O   0  0  0  0  0  0  0  0  0  0  0  0
  -89.0012   27.9827   -1.0557 N   0  0  0  0  0  0  0  0  0  0  0  0
  -89.8512   27.9854    0.0816 C   0  0  0  0  0  0  0  0  0  0  0  0
  -91.3346   28.1521   -0.1984 C   0  0  0  0  0  0  0  0  0  0  0  0
  -91.5814   28.9226   -1.4295 C   0  0  0  0  0  0  0  0  0  0  0  0
  -92.6636   29.7632   -1.4896 C   0  0  0  0  0  0  0  0  0  0  0  0
  -92.9169   30.5102   -2.6495 C   0  0  0  0  0  0  0  0  0  0  0  0
  -92.0807   30.4027   -3.7322 C   0  0  0  0  0  0  0  0  0  0  0  0
  -90.9978   29.5455   -3.6387 C   0  0  0  0  0  0  0  0  0  0  0  0
  -90.7414   28.8159   -2.5201 C   0  0  0  0  0  0  0  0  0  0  0  0
  -89.6111   27.9062   -2.4033 C   0  0  0  0  0  0  0  0  0  0  0  0
  -83.4839   30.8797    0.3750 C   0  0  0  0  0  0  0  0  0  0  0  0
  -84.0625   30.3651    1.6721 C   0  0  0  0  0  0  0  0  0  0  0  0
  -84.7843   31.4237    2.4383 C   0  0  0  0  0  0  0  0  0  0  0  0
 23 24  1  0  0  0
 24 25  1  0  0  0
 24  1  1  0  0  0
  1  2  2  0  0  0
  2  3  1  0  0  0
  3 11  1  0  0  0
 11 12  2  0  0  0
 11 13  1  0  0  0
 13 14  1  0  0  0
 14 15  1  0  0  0
 15 16  1  0  0  0
 16 17  2  0  0  0
 17 18  1  0  0  0
 18 19  2  0  0  0
 19 20  1  0  0  0
 20 21  2  0  0  0
 21 22  1  0  0  0
  3  4  2  0  0  0
  4  5  1  0  0  0
  4  6  1  0  0  0
  6  7  2  0  0  0
  7  8  1  0  0  0
  7  1  1  0  0  0
 22 13  1  0  0  0
 21 16  1  0  0  0
  5  9  1  0  0  0
  8 10  1  0  0  0
M  END
> <minimizedAffinity>
-7.65801

> <CNNscore>
0.3653597832

> <CNNaffinity>
5.4048261642

> <CNN_VS>
1.9747061729

> <CNNaffinity_variance>
0.1110624298

$$$$
[H]Oc1c([H])c(O[H])c(C([H])(C([H])([H])[H])C([H])([H])[H])c([H])c1C(=O)N1C([H])([H])c2c([H])c([H])c([H])c([H])c2C([H])([H])C1([H])[H]


 25 27  0  0  0  0  0  0  0  0999 V2000
  -84.6754   30.8520    0.8985 C   0  0  0  0  0  0  0  0  0  0  0  0
  -85.8734   30.1275    0.9074 C   0  0  0  0  0  0  0  0  0  0  0  0
  -86.0095   28.8489    1.3696 C   0  0  0  0  0  0  0  0  0  0  0  0
  -84.8300   28.2451    1.8698 C   0  0  0  0  0  0  0  0  0  0  0  0
  -84.8548   26.9523    2.3629 O   0  0  0  0  0  0  0  0  0  0  0  0
  -83.6552   28.9487    1.8641 C   0  0  0  0  0  0  0  0  0  0  0  0
  -83.5562   30.2344    1.3901 C   0  0  0  0  0  0  0  0  0  0  0  0
  -82.3597   30.9326    1.3909 O   0  0  0  0  0  0  0  0  0  0  0  0
  -84.0287   26.4985    2.7241 H   0  0  0  0  0  0  0  0  0  0  0  0
  -81.4884   30.5559    1.7335 H   0  0  0  0  0  0  0  0  0  0  0  0
  -87.2386   28.0906    1.4162 C   0  0  0  0  0  0  0  0  0  0  0  0
  -87.6009   27.7306    2.6398 O   0  0  0  0  0  0  0  0  0  0  0  0
  -88.1341   27.6481    0.4539 N   0  0  0  0  0  0  0  0  0  0  0  0
  -88.0006   27.8555   -0.9443 C   0  0  0  0  0  0  0  0  0  0  0  0
  -88.9754   27.0933   -1.8249 C   0  0  0  0  0  0  0  0  0  0  0  0
  -89.4093   25.8299   -1.2039 C   0  0  0  0  0  0  0  0  0  0  0  0
  -89.6445   24.7373   -1.9990 C   0  0  0  0  0  0  0  0  0  0  0  0
  -90.0545   23.5223   -1.4305 C   0  0  0  0  0  0  0  0  0  0  0  0
  -90.2225   23.4214   -0.0722 C   0  0  0  0  0  0  0  0  0  0  0  0
  -89.9768   24.5427    0.7014 C   0  0  0  0  0  0  0  0  0  0  0  0
  -89.5790   25.7262    0.1624 C   0  0  0  0  0  0  0  0  0  0  0  0
  -89.3198   26.9174    0.9577 C   0  0  0  0  0  0  0  0  0  0  0  0
  -83.4834   32.3817   -0.6208 C   0  0  0  0  0  0  0  0  0  0  0  0
  -84.6145   32.2524    0.3722 C   0  0  0  0  0  0  0  0  0  0  0  0
  -85.9211   32.7137   -0.1833 C   0  0  0  0  0  0  0  0  0  0  0  0
 23 24  1  0  0  0
 24 25  1  0  0  0
 24  1  1  0  0  0
  1  2  2  0  0  0
  2  3  1  0  0  0
  3 11  1  0  0  0
 11 12  2  0  0  0
 11 13  1  0  0  0
 13 14  1  0  0  0
 14 15  1  0  0  0
 15 16  1  0  0  0
 16 17  2  0  0  0
 17 18  1  0  0  0
 18 19  2  0  0  0
 19 20  1  0  0  0
 20 21  2  0  0  0
 21 22  1  0  0  0
  3  4  2  0  0  0
  4  5  1  0  0  0
  4  6  1  0  0  0
  6  7  2  0  0  0
  7  8  1  0  0  0
  7  1  1  0  0  0
 22 13  1  0  0  0
 21 16  1  0  0  0
  5  9  1  0  0  0
  8 10  1  0  0  0
M  END
> <minimizedAffinity>
-8.58089

> <CNNscore>
0.3589074910

> <CNNaffinity>
5.6183071136

> <CNN_VS>
2.0164525509

> <CNNaffinity_variance>
0.2010670155

$$$$
[H]Oc1c([H])c(O[H])c(C([H])(C([H])([H])[H])C([H])([H])[H])c([H])c1C(=O)N1C([H])([H])c2c([H])c([H])c([H])c([H])c2C([H])([H])C1([H])[H]


 25 27  0  0  0  0  0  0  0  0999 V2000
  -84.8722   32.0656    0.2887 C   0  0  0  0  0  0  0  0  0  0  0  0
  -86.0049   31.2429    0.2697 C   0  0  0  0  0  0  0  0  0  0  0  0
  -87.0506   31.3735   -0.5999 C   0  0  0  0  0  0  0  0  0  0  0  0
  -86.9448   32.4299   -1.5375 C   0  0  0  0  0  0  0  0  0  0  0  0
  -87.9477   32.6521   -2.4648 O   0  0  0  0  0  0  0  0  0  0  0  0
  -85.8392   33.2378   -1.5242 C   0  0  0  0  0  0  0  0  0  0  0  0
  -84.8061   33.0764   -0.6331 C   0  0  0  0  0  0  0  0  0  0  0  0
  -83.6943   33.9029   -0.6325 O   0  0  0  0  0  0  0  0  0  0  0  0
  -87.8975   33.3981   -3.1428 H   0  0  0  0  0  0  0  0  0  0  0  0
  -83.5630   34.6702   -1.2745 H   0  0  0  0  0  0  0  0  0  0  0  0
  -88.2159   30.5212   -0.6587 C   0  0  0  0  0  0  0  0  0  0  0  0
  -89.3513   31.1443   -0.3746 O   0  0  0  0  0  0  0  0  0  0  0  0
  -88.4138   29.1793   -0.9480 N   0  0  0  0  0  0  0  0  0  0  0  0
  -87.3869   28.2505   -1.2626 C   0  0  0  0  0  0  0  0  0  0  0  0
  -87.8061   26.7920   -1.3225 C   0  0  0  0  0  0  0  0  0  0  0  0
  -88.9482   26.5085   -0.4362 C   0  0  0  0  0  0  0  0  0  0  0  0
  -89.0200   25.2949    0.1988 C   0  0  0  0  0  0  0  0  0  0  0  0
  -90.0956   25.0034    1.0506 C   0  0  0  0  0  0  0  0  0  0  0  0
  -91.0836   25.9340    1.2528 C   0  0  0  0  0  0  0  0  0  0  0  0
  -90.9810   27.1487    0.5969 C   0  0  0  0  0  0  0  0  0  0  0  0
  -89.9435   27.4434   -0.2314 C   0  0  0  0  0  0  0  0  0  0  0  0
  -89.8193   28.7124   -0.9334 C   0  0  0  0  0  0  0  0  0  0  0  0
  -84.3488   31.5039    2.6296 C   0  0  0  0  0  0  0  0  0  0  0  0
  -83.7693   31.8520    1.2787 C   0  0  0  0  0  0  0  0  0  0  0  0
  -82.7643   30.8523    0.8107 C   0  0  0  0  0  0  0  0  0  0  0  0
 23 24  1  0  0  0
 24 25  1  0  0  0
 24  1  1  0  0  0
  1  2  2  0  0  0
  2  3  1  0  0  0
  3 11  1  0  0  0
 11 12  2  0  0  0
 11 13  1  0  0  0
 13 14  1  0  0  0
 14 15  1  0  0  0
 15 16  1  0  0  0
 16 17  2  0  0  0
 17 18  1  0  0  0
 18 19  2  0  0  0
 19 20  1  0  0  0
 20 21  2  0  0  0
 21 22  1  0  0  0
  3  4  2  0  0  0
  4  5  1  0  0  0
  4  6  1  0  0  0
  6  7  2  0  0  0
  7  8  1  0  0  0
  7  1  1  0  0  0
 22 13  1  0  0  0
 21 16  1  0  0  0
  5  9  1  0  0  0
  8 10  1  0  0  0
M  END
> <minimizedAffinity>
-8.54805

> <CNNscore>
0.2891923189

> <CNNaffinity>
5.5766406059

> <CNN_VS>
1.6127216816

> <CNNaffinity_variance>
0.1231178418

$$$$
[H]Oc1c([H])c(O[H])c(C([H])(C([H])([H])[H])C([H])([H])[H])c([H])c1C(=O)N1C([H])([H])c2c([H])c([H])c([H])c([H])c2C([H])([H])C1([H])[H]


 25 27  0  0  0  0  0  0  0  0999 V2000
  -85.8181   29.5373    0.8982 C   0  0  0  0  0  0  0  0  0  0  0  0
  -85.8485   30.7501    0.1993 C   0  0  0  0  0  0  0  0  0  0  0  0
  -86.9187   31.2155   -0.5112 C   0  0  0  0  0  0  0  0  0  0  0  0
  -88.0642   30.3825   -0.5174 C   0  0  0  0  0  0  0  0  0  0  0  0
  -89.2046   30.7577   -1.2057 O   0  0  0  0  0  0  0  0  0  0  0  0
  -88.0409   29.1953    0.1646 C   0  0  0  0  0  0  0  0  0  0  0  0
  -86.9447   28.7591    0.8686 C   0  0  0  0  0  0  0  0  0  0  0  0
  -86.9370   27.5547    1.5532 O   0  0  0  0  0  0  0  0  0  0  0  0
  -90.0337   30.1824   -1.2270 H   0  0  0  0  0  0  0  0  0  0  0  0
  -87.7211   26.9204    1.5852 H   0  0  0  0  0  0  0  0  0  0  0  0
  -86.9853   32.4750   -1.2163 C   0  0  0  0  0  0  0  0  0  0  0  0
  -86.7408   33.5310   -0.4527 O   0  0  0  0  0  0  0  0  0  0  0  0
  -87.2531   32.8301   -2.5300 N   0  0  0  0  0  0  0  0  0  0  0  0
  -87.5769   31.9223   -3.5727 C   0  0  0  0  0  0  0  0  0  0  0  0
  -88.0510   32.5467   -4.8734 C   0  0  0  0  0  0  0  0  0  0  0  0
  -88.7184   33.8415   -4.6538 C   0  0  0  0  0  0  0  0  0  0  0  0
  -89.7750   34.1961   -5.4532 C   0  0  0  0  0  0  0  0  0  0  0  0
  -90.4290   35.4219   -5.2607 C   0  0  0  0  0  0  0  0  0  0  0  0
  -90.0132   36.2742   -4.2688 C   0  0  0  0  0  0  0  0  0  0  0  0
  -88.9439   35.8861   -3.4799 C   0  0  0  0  0  0  0  0  0  0  0  0
  -88.3016   34.7005   -3.6565 C   0  0  0  0  0  0  0  0  0  0  0  0
  -87.1732   34.2760   -2.8408 C   0  0  0  0  0  0  0  0  0  0  0  0
  -83.3973   29.8897    1.1900 C   0  0  0  0  0  0  0  0  0  0  0  0
  -84.6004   29.1022    1.6531 C   0  0  0  0  0  0  0  0  0  0  0  0
  -84.7908   29.1627    3.1325 C   0  0  0  0  0  0  0  0  0  0  0  0
 23 24  1  0  0  0
 24 25  1  0  0  0
 24  1  1  0  0  0
  1  2  2  0  0  0
  2  3  1  0  0  0
  3 11  1  0  0  0
 11 12  2  0  0  0
 11 13  1  0  0  0
 13 14  1  0  0  0
 14 15  1  0  0  0
 15 16  1  0  0  0
 16 17  2  0  0  0
 17 18  1  0  0  0
 18 19  2  0  0  0
 19 20  1  0  0  0
 20 21  2  0  0  0
 21 22  1  0  0  0
  3  4  2  0  0  0
  4  5  1  0  0  0
  4  6  1  0  0  0
  6  7  2  0  0  0
  7  8  1  0  0  0
  7  1  1  0  0  0
 22 13  1  0  0  0
 21 16  1  0  0  0
  5  9  1  0  0  0
  8 10  1  0  0  0
M  END
> <minimizedAffinity>
-8.04808

> <CNNscore>
0.2850828767

> <CNNaffinity>
5.1309347153

> <CNN_VS>
1.4627416134

> <CNNaffinity_variance>
0.1222932190

$$$$
[H]Oc1c([H])c(O[H])c(C([H])(C([H])([H])[H])C([H])([H])[H])c([H])c1C(=O)N1C([H])([H])c2c([H])c([H])c([H])c([H])c2C([H])([H])C1([H])[H]


 25 27  0  0  0  0  0  0  0  0999 V2000
  -84.7649   29.3582    1.4814 C   0  0  0  0  0  0  0  0  0  0  0  0
  -85.6139   29.6926    0.4196 C   0  0  0  0  0  0  0  0  0  0  0  0
  -86.5745   28.8718   -0.1006 C   0  0  0  0  0  0  0  0  0  0  0  0
  -86.6908   27.5970    0.5056 C   0  0  0  0  0  0  0  0  0  0  0  0
  -87.6316   26.6867    0.0571 O   0  0  0  0  0  0  0  0  0  0  0  0
  -85.8635   27.2643    1.5448 C   0  0  0  0  0  0  0  0  0  0  0  0
  -84.9074   28.1166    2.0416 C   0  0  0  0  0  0  0  0  0  0  0  0
  -84.0776   27.7645    3.0936 O   0  0  0  0  0  0  0  0  0  0  0  0
  -87.7346   25.7718    0.4707 H   0  0  0  0  0  0  0  0  0  0  0  0
  -84.1134   26.8727    3.5645 H   0  0  0  0  0  0  0  0  0  0  0  0
  -87.4814   29.2031   -1.1757 C   0  0  0  0  0  0  0  0  0  0  0  0
  -87.4646   28.3356   -2.1784 O   0  0  0  0  0  0  0  0  0  0  0  0
  -88.3754   30.2402   -1.3961 N   0  0  0  0  0  0  0  0  0  0  0  0
  -88.5944   31.3322   -0.5153 C   0  0  0  0  0  0  0  0  0  0  0  0
  -89.4493   32.4633   -1.0595 C   0  0  0  0  0  0  0  0  0  0  0  0
  -89.3473   32.5773   -2.5247 C   0  0  0  0  0  0  0  0  0  0  0  0
  -89.3961   33.8186   -3.1063 C   0  0  0  0  0  0  0  0  0  0  0  0
  -89.2970   33.9528   -4.4990 C   0  0  0  0  0  0  0  0  0  0  0  0
  -89.1504   32.8395   -5.2879 C   0  0  0  0  0  0  0  0  0  0  0  0
  -89.1049   31.6020   -4.6693 C   0  0  0  0  0  0  0  0  0  0  0  0
  -89.1999   31.4585   -3.3203 C   0  0  0  0  0  0  0  0  0  0  0  0
  -89.1585   30.1666   -2.6511 C   0  0  0  0  0  0  0  0  0  0  0  0
  -82.7413   30.6373    0.8995 C   0  0  0  0  0  0  0  0  0  0  0  0
  -83.7366   30.3201    1.9908 C   0  0  0  0  0  0  0  0  0  0  0  0
  -84.3441   31.5464    2.5872 C   0  0  0  0  0  0  0  0  0  0  0  0
 23 24  1  0  0  0
 24 25  1  0  0  0
 24  1  1  0  0  0
  1  2  2  0  0  0
  2  3  1  0  0  0
  3 11  1  0  0  0
 11 12  2  0  0  0
 11 13  1  0  0  0
 13 14  1  0  0  0
 14 15  1  0  0  0
 15 16  1  0  0  0
 16 17  2  0  0  0
 17 18  1  0  0  0
 18 19  2  0  0  0
 19 20  1  0  0  0
 20 21  2  0  0  0
 21 22  1  0  0  0
  3  4  2  0  0  0
  4  5  1  0  0  0
  4  6  1  0  0  0
  6  7  2  0  0  0
  7  8  1  0  0  0
  7  1  1  0  0  0
 22 13  1  0  0  0
 21 16  1  0  0  0
  5  9  1  0  0  0
  8 10  1  0  0  0
M  END
> <minimizedAffinity>
-8.99474

> <CNNscore>
0.2718516588

> <CNNaffinity>
5.4612312317

> <CNN_VS>
1.4846447706

> <CNNaffinity_variance>
0.1038449258

$$$$
[H]Oc1c([H])c(O[H])c(C([H])(C([H])([H])[H])C([H])([H])[H])c([H])c1C(=O)N1C([H])([H])c2c([H])c([H])c([H])c([H])c2C([H])([H])C1([H])[H]


 25 27  0  0  0  0  0  0  0  0999 V2000
  -85.0890   29.6870    1.3918 C   0  0  0  0  0  0  0  0  0  0  0  0
  -86.4406   29.5042    1.0760 C   0  0  0  0  0  0  0  0  0  0  0  0
  -87.1340   28.3406    1.2548 C   0  0  0  0  0  0  0  0  0  0  0  0
  -86.3978   27.2620    1.8034 C   0  0  0  0  0  0  0  0  0  0  0  0
  -87.0025   26.0375    2.0266 O   0  0  0  0  0  0  0  0  0  0  0  0
  -85.0756   27.4347    2.1148 C   0  0  0  0  0  0  0  0  0  0  0  0
  -84.4105   28.6210    1.9201 C   0  0  0  0  0  0  0  0  0  0  0  0
  -83.0720   28.7794    2.2401 O   0  0  0  0  0  0  0  0  0  0  0  0
  -86.5007   25.2527    2.4153 H   0  0  0  0  0  0  0  0  0  0  0  0
  -82.4969   28.0490    2.6327 H   0  0  0  0  0  0  0  0  0  0  0  0
  -88.5344   28.1348    0.9641 C   0  0  0  0  0  0  0  0  0  0  0  0
  -89.2628   27.8223    2.0271 O   0  0  0  0  0  0  0  0  0  0  0  0
  -89.2957   28.1903   -0.1939 N   0  0  0  0  0  0  0  0  0  0  0  0
  -88.7920   28.4734   -1.4909 C   0  0  0  0  0  0  0  0  0  0  0  0
  -89.7611   28.2606   -2.6407 C   0  0  0  0  0  0  0  0  0  0  0  0
  -90.7562   27.2171   -2.3388 C   0  0  0  0  0  0  0  0  0  0  0  0
  -91.1984   26.3993   -3.3472 C   0  0  0  0  0  0  0  0  0  0  0  0
  -92.1424   25.3960   -3.0834 C   0  0  0  0  0  0  0  0  0  0  0  0
  -92.6290   25.2279   -1.8114 C   0  0  0  0  0  0  0  0  0  0  0  0
  -92.1622   26.0699   -0.8167 C   0  0  0  0  0  0  0  0  0  0  0  0
  -91.2472   27.0462   -1.0596 C   0  0  0  0  0  0  0  0  0  0  0  0
  -90.7469   27.9443   -0.0291 C   0  0  0  0  0  0  0  0  0  0  0  0
  -84.3150   31.7675    2.4605 C   0  0  0  0  0  0  0  0  0  0  0  0
  -84.4048   30.9991    1.1630 C   0  0  0  0  0  0  0  0  0  0  0  0
  -83.0789   30.8455    0.4943 C   0  0  0  0  0  0  0  0  0  0  0  0
 23 24  1  0  0  0
 24 25  1  0  0  0
 24  1  1  0  0  0
  1  2  2  0  0  0
  2  3  1  0  0  0
  3 11  1  0  0  0
 11 12  2  0  0  0
 11 13  1  0  0  0
 13 14  1  0  0  0
 14 15  1  0  0  0
 15 16  1  0  0  0
 16 17  2  0  0  0
 17 18  1  0  0  0
 18 19  2  0  0  0
 19 20  1  0  0  0
 20 21  2  0  0  0
 21 22  1  0  0  0
  3  4  2  0  0  0
  4  5  1  0  0  0
  4  6  1  0  0  0
  6  7  2  0  0  0
  7  8  1  0  0  0
  7  1  1  0  0  0
 22 13  1  0  0  0
 21 16  1  0  0  0
  5  9  1  0  0  0
  8 10  1  0  0  0
M  END
> <minimizedAffinity>
-7.92857

> <CNNscore>
0.2150305361

> <CNNaffinity>
5.1264529228

> <CNN_VS>
1.1023439169

> <CNNaffinity_variance>
0.3041726351

$$$$
[H]OC(=O)[C@@]([H])(N([H])C(=O)[C@@]([H])(N([H])C(=O)[C@@]([H])(N([H])C(=O)OC([H])([H])c1c([H])c([H])c([H])c([H])c1[H])C([H])([H])C([H])(C([H])([H])[H])C([H])([H])[H])C([H])([H])C([H])(C([H])([H])[H])C([H])([H])[H])C([H])([H])C([H])(C([H])([H])[H])C([H])([H])[H]


 39 39  0  0  0  0  0  0  0  0999 V2000
  -88.2856   31.8107   -3.1720 N   0  0  0  0  0  0  0  0  0  0  0  0
  -88.3407   33.1404   -2.7322 C   0  0  0  0  0  0  0  0  0  0  0  0
  -89.3219   33.5451   -2.0746 O   0  0  0  0  0  0  0  0  0  0  0  0
  -87.4677   31.4827   -3.7147 H   0  0  0  0  0  0  0  0  0  0  0  0
  -89.3317   30.8090   -2.9150 C   0  0  0  0  0  0  0  0  0  0  0  0
  -91.4634   32.1400   -3.4502 N   0  0  0  0  0  0  0  0  0  0  0  0
  -90.4811   31.1763   -3.7405 C   0  0  0  0  0  0  0  0  0  0  0  0
  -90.6033   30.5355   -4.8621 O   0  0  0  0  0  0  0  0  0  0  0  0
  -91.4796   32.6948   -2.5802 H   0  0  0  0  0  0  0  0  0  0  0  0
  -92.5693   32.3761   -4.4350 C   0  0  0  0  0  0  0  0  0  0  0  0
  -92.2600   33.6767   -5.0297 C   0  0  0  0  0  0  0  0  0  0  0  0
  -92.1871   34.8402   -4.2927 O   0  0  0  0  0  0  0  0  0  0  0  0
  -92.0432   33.8056   -6.2724 O   0  0  0  0  0  0  0  0  0  0  0  0
  -92.8860   35.5529   -4.2481 H   0  0  0  0  0  0  0  0  0  0  0  0
  -93.8084   32.2532   -3.6353 C   0  0  0  0  0  0  0  0  0  0  0  0
  -94.9010   30.4402   -2.2957 C   0  0  0  0  0  0  0  0  0  0  0  0
  -94.5983   31.0148   -3.6639 C   0  0  0  0  0  0  0  0  0  0  0  0
  -94.2388   29.9412   -4.6071 C   0  0  0  0  0  0  0  0  0  0  0  0
  -89.5570   30.6826   -1.4520 C   0  0  0  0  0  0  0  0  0  0  0  0
  -88.8582   29.6248   -0.7006 C   0  0  0  0  0  0  0  0  0  0  0  0
  -87.5669   30.0695   -0.0433 C   0  0  0  0  0  0  0  0  0  0  0  0
  -89.7802   29.1301    0.4345 C   0  0  0  0  0  0  0  0  0  0  0  0
  -87.2462   34.0985   -3.0303 C   0  0  0  0  0  0  0  0  0  0  0  0
  -85.9541   33.5756   -2.7149 N   0  0  0  0  0  0  0  0  0  0  0  0
  -85.3910   33.4877   -1.4091 C   0  0  0  0  0  0  0  0  0  0  0  0
  -86.0084   33.8766   -0.3819 O   0  0  0  0  0  0  0  0  0  0  0  0
  -85.3605   33.2228   -3.5145 H   0  0  0  0  0  0  0  0  0  0  0  0
  -84.1243   32.9647   -1.2014 O   0  0  0  0  0  0  0  0  0  0  0  0
  -83.4875   33.0905    0.0556 C   0  0  0  0  0  0  0  0  0  0  0  0
  -83.6188   31.8518    0.8573 C   0  0  0  0  0  0  0  0  0  0  0  0
  -82.6548   30.8749    0.7571 C   0  0  0  0  0  0  0  0  0  0  0  0
  -82.7903   29.7330    1.4992 C   0  0  0  0  0  0  0  0  0  0  0  0
  -83.8584   29.5316    2.3419 C   0  0  0  0  0  0  0  0  0  0  0  0
  -84.7990   30.5138    2.4232 C   0  0  0  0  0  0  0  0  0  0  0  0
  -84.6858   31.6800    1.6824 C   0  0  0  0  0  0  0  0  0  0  0  0
  -87.3358   34.5008   -4.4872 C   0  0  0  0  0  0  0  0  0  0  0  0
  -87.9695   35.8526   -4.6627 C   0  0  0  0  0  0  0  0  0  0  0  0
  -86.8763   36.8478   -5.0154 C   0  0  0  0  0  0  0  0  0  0  0  0
  -88.9765   35.7674   -5.8016 C   0  0  0  0  0  0  0  0  0  0  0  0
 16 17  1  0  0  0
 17 18  1  0  0  0
 17 15  1  0  0  0
 15 10  1  0  0  0
 10  6  1  0  0  0
  6  7  1  0  0  0
  7  8  2  0  0  0
  7  5  1  0  0  0
  5 19  1  0  0  0
 19 20  1  0  0  0
 20 21  1  0  0  0
 20 22  1  0  0  0
  5  1  1  0  0  0
  1  2  1  0  0  0
  2  3  2  0  0  0
  2 23  1  0  0  0
 23 36  1  0  0  0
 36 37  1  0  0  0
 37 38  1  0  0  0
 37 39  1  0  0  0
 23 24  1  0  0  0
 24 25  1  0  0  0
 25 26  2  0  0  0
 25 28  1  0  0  0
 28 29  1  0  0  0
 29 30  1  0  0  0
 30 31  2  0  0  0
 31 32  1  0  0  0
 32 33  2  0  0  0
 33 34  1  0  0  0
 34 35  2  0  0  0
 10 11  1  0  0  0
 11 12  1  0  0  0
 11 13  2  0  0  0
 35 30  1  0  0  0
  6  9  1  0  0  0
  1  4  1  0  0  0
 24 27  1  0  0  0
 12 14  1  0  0  0
M  END
> <minimizedAffinity>
-7.00118

> <CNNscore>
0.3850488067

> <CNNaffinity>
6.4765815735

> <CNN_VS>
2.4937999249

> <CNNaffinity_variance>
0.1197849512

$$$$
[H]OC(=O)[C@@]([H])(N([H])C(=O)[C@@]([H])(N([H])C(=O)[C@@]([H])(N([H])C(=O)OC([H])([H])c1c([H])c([H])c([H])c([H])c1[H])C([H])([H])C([H])(C([H])([H])[H])C([H])([H])[H])C([H])([H])C([H])(C([H])([H])[H])C([H])([H])[H])C([H])([H])C([H])(C([H])([H])[H])C([H])([H])[H]


 39 39  0  0  0  0  0  0  0  0999 V2000
  -89.0620   28.6390   -0.4386 N   0  0  0  0  0  0  0  0  0  0  0  0
  -89.5586   28.1909    0.7931 C   0  0  0  0  0  0  0  0  0  0  0  0
  -90.5640   28.7308    1.2998 O   0  0  0  0  0  0  0  0  0  0  0  0
  -88.2295   28.1846   -0.8527 H   0  0  0  0  0  0  0  0  0  0  0  0
  -89.6491   29.7402   -1.2176 C   0  0  0  0  0  0  0  0  0  0  0  0
  -92.0004   28.8015   -1.6566 N   0  0  0  0  0  0  0  0  0  0  0  0
  -90.6979   29.1559   -2.0518 C   0  0  0  0  0  0  0  0  0  0  0  0
  -90.3837   28.9402   -3.2921 O   0  0  0  0  0  0  0  0  0  0  0  0
  -92.3536   28.9082   -0.6928 H   0  0  0  0  0  0  0  0  0  0  0  0
  -92.9376   28.2153   -2.6697 C   0  0  0  0  0  0  0  0  0  0  0  0
  -94.1518   29.0241   -2.5582 C   0  0  0  0  0  0  0  0  0  0  0  0
  -94.4357   29.8027   -1.4558 O   0  0  0  0  0  0  0  0  0  0  0  0
  -95.0215   29.0496   -3.4805 O   0  0  0  0  0  0  0  0  0  0  0  0
  -95.0821   29.5780   -0.7277 H   0  0  0  0  0  0  0  0  0  0  0  0
  -93.0204   26.7820   -2.3104 C   0  0  0  0  0  0  0  0  0  0  0  0
  -92.8158   24.5718   -3.4715 C   0  0  0  0  0  0  0  0  0  0  0  0
  -92.1179   25.8017   -2.9291 C   0  0  0  0  0  0  0  0  0  0  0  0
  -90.8677   25.4268   -2.2451 C   0  0  0  0  0  0  0  0  0  0  0  0
  -88.5726   30.4963   -1.9076 C   0  0  0  0  0  0  0  0  0  0  0  0
  -88.0089   31.6990   -1.2690 C   0  0  0  0  0  0  0  0  0  0  0  0
  -87.2534   32.6150   -2.2110 C   0  0  0  0  0  0  0  0  0  0  0  0
  -89.1641   32.5348   -0.6772 C   0  0  0  0  0  0  0  0  0  0  0  0
  -88.9128   27.0723    1.5254 C   0  0  0  0  0  0  0  0  0  0  0  0
  -87.7508   27.4841    2.2483 N   0  0  0  0  0  0  0  0  0  0  0  0
  -86.4713   27.7489    1.6805 C   0  0  0  0  0  0  0  0  0  0  0  0
  -86.2470   27.6402    0.4454 O   0  0  0  0  0  0  0  0  0  0  0  0
  -87.8420   27.6038    3.2942 H   0  0  0  0  0  0  0  0  0  0  0  0
  -85.3992   28.1435    2.4655 O   0  0  0  0  0  0  0  0  0  0  0  0
  -85.2872   29.4795    2.9174 C   0  0  0  0  0  0  0  0  0  0  0  0
  -84.5582   30.3232    1.9423 C   0  0  0  0  0  0  0  0  0  0  0  0
  -85.2322   31.3157    1.2683 C   0  0  0  0  0  0  0  0  0  0  0  0
  -84.5484   32.0850    0.3663 C   0  0  0  0  0  0  0  0  0  0  0  0
  -83.2097   31.8981    0.1131 C   0  0  0  0  0  0  0  0  0  0  0  0
  -82.5652   30.9092    0.7934 C   0  0  0  0  0  0  0  0  0  0  0  0
  -83.2342   30.1156    1.7122 C   0  0  0  0  0  0  0  0  0  0  0  0
  -89.9357   26.4382    2.4441 C   0  0  0  0  0  0  0  0  0  0  0  0
  -89.4361   26.3299    3.8579 C   0  0  0  0  0  0  0  0  0  0  0  0
  -90.3752   27.1188    4.7555 C   0  0  0  0  0  0  0  0  0  0  0  0
  -89.4491   24.8618    4.2612 C   0  0  0  0  0  0  0  0  0  0  0  0
 16 17  1  0  0  0
 17 18  1  0  0  0
 17 15  1  0  0  0
 15 10  1  0  0  0
 10  6  1  0  0  0
  6  7  1  0  0  0
  7  8  2  0  0  0
  7  5  1  0  0  0
  5 19  1  0  0  0
 19 20  1  0  0  0
 20 21  1  0  0  0
 20 22  1  0  0  0
  5  1  1  0  0  0
  1  2  1  0  0  0
  2  3  2  0  0  0
  2 23  1  0  0  0
 23 36  1  0  0  0
 36 37  1  0  0  0
 37 38  1  0  0  0
 37 39  1  0  0  0
 23 24  1  0  0  0
 24 25  1  0  0  0
 25 26  2  0  0  0
 25 28  1  0  0  0
 28 29  1  0  0  0
 29 30  1  0  0  0
 30 31  2  0  0  0
 31 32  1  0  0  0
 32 33  2  0  0  0
 33 34  1  0  0  0
 34 35  2  0  0  0
 10 11  1  0  0  0
 11 12  1  0  0  0
 11 13  2  0  0  0
 35 30  1  0  0  0
  6  9  1  0  0  0
  1  4  1  0  0  0
 24 27  1  0  0  0
 12 14  1  0  0  0
M  END
> <minimizedAffinity>
-7.36584

> <CNNscore>
0.2945098579

> <CNNaffinity>
6.5553932190

> <CNN_VS>
1.9306279421

> <CNNaffinity_variance>
0.2837616801

$$$$
[H]OC(=O)[C@@]([H])(N([H])C(=O)[C@@]([H])(N([H])C(=O)[C@@]([H])(N([H])C(=O)OC([H])([H])c1c([H])c([H])c([H])c([H])c1[H])C([H])([H])C([H])(C([H])([H])[H])C([H])([H])[H])C([H])([H])C([H])(C([H])([H])[H])C([H])([H])[H])C([H])([H])C([H])(C([H])([H])[H])C([H])([H])[H]


 39 39  0  0  0  0  0  0  0  0999 V2000
  -89.7390   27.1834    0.0161 N   0  0  0  0  0  0  0  0  0  0  0  0
  -89.0685   26.0653    0.5304 C   0  0  0  0  0  0  0  0  0  0  0  0
  -88.8013   25.0965   -0.2106 O   0  0  0  0  0  0  0  0  0  0  0  0
  -89.9548   27.9832    0.6365 H   0  0  0  0  0  0  0  0  0  0  0  0
  -90.1751   27.3173   -1.3824 C   0  0  0  0  0  0  0  0  0  0  0  0
  -88.8510   29.2038   -2.5182 N   0  0  0  0  0  0  0  0  0  0  0  0
  -89.9328   28.7060   -1.7699 C   0  0  0  0  0  0  0  0  0  0  0  0
  -90.8163   29.5694   -1.3730 O   0  0  0  0  0  0  0  0  0  0  0  0
  -88.0795   28.6144   -2.8681 H   0  0  0  0  0  0  0  0  0  0  0  0
  -88.7834   30.6715   -2.8181 C   0  0  0  0  0  0  0  0  0  0  0  0
  -88.7598   30.7472   -4.2791 C   0  0  0  0  0  0  0  0  0  0  0  0
  -89.9046   30.8179   -5.0450 O   0  0  0  0  0  0  0  0  0  0  0  0
  -87.6705   30.7481   -4.9279 O   0  0  0  0  0  0  0  0  0  0  0  0
  -90.3158   30.0660   -5.5589 H   0  0  0  0  0  0  0  0  0  0  0  0
  -87.5933   31.1454   -2.0770 C   0  0  0  0  0  0  0  0  0  0  0  0
  -89.1439   32.5889   -0.7403 C   0  0  0  0  0  0  0  0  0  0  0  0
  -87.7162   32.1926   -1.0541 C   0  0  0  0  0  0  0  0  0  0  0  0
  -86.8523   33.3844   -1.1218 C   0  0  0  0  0  0  0  0  0  0  0  0
  -91.5608   26.8019   -1.5275 C   0  0  0  0  0  0  0  0  0  0  0  0
  -91.8855   25.9040   -2.6502 C   0  0  0  0  0  0  0  0  0  0  0  0
  -91.5309   24.4494   -2.4141 C   0  0  0  0  0  0  0  0  0  0  0  0
  -93.4085   25.9494   -2.8980 C   0  0  0  0  0  0  0  0  0  0  0  0
  -88.6587   25.9986    1.9560 C   0  0  0  0  0  0  0  0  0  0  0  0
  -87.2639   26.2486    2.1413 N   0  0  0  0  0  0  0  0  0  0  0  0
  -86.5355   27.3391    1.5844 C   0  0  0  0  0  0  0  0  0  0  0  0
  -87.0801   28.2101    0.8547 O   0  0  0  0  0  0  0  0  0  0  0  0
  -86.7205   25.5698    2.7416 H   0  0  0  0  0  0  0  0  0  0  0  0
  -85.1789   27.4983    1.8200 O   0  0  0  0  0  0  0  0  0  0  0  0
  -84.7145   28.4555    2.7525 C   0  0  0  0  0  0  0  0  0  0  0  0
  -84.2237   29.6787    2.0765 C   0  0  0  0  0  0  0  0  0  0  0  0
  -85.0722   30.7500    1.9150 C   0  0  0  0  0  0  0  0  0  0  0  0
  -84.6081   31.8724    1.2842 C   0  0  0  0  0  0  0  0  0  0  0  0
  -83.3212   31.9635    0.8077 C   0  0  0  0  0  0  0  0  0  0  0  0
  -82.5010   30.8893    0.9802 C   0  0  0  0  0  0  0  0  0  0  0  0
  -82.9460   29.7405    1.6155 C   0  0  0  0  0  0  0  0  0  0  0  0
  -89.5022   26.9732    2.7503 C   0  0  0  0  0  0  0  0  0  0  0  0
  -89.6868   26.5309    4.1751 C   0  0  0  0  0  0  0  0  0  0  0  0
  -90.0848   27.7429    5.0012 C   0  0  0  0  0  0  0  0  0  0  0  0
  -90.7985   25.4913    4.2157 C   0  0  0  0  0  0  0  0  0  0  0  0
 16 17  1  0  0  0
 17 18  1  0  0  0
 17 15  1  0  0  0
 15 10  1  0  0  0
 10  6  1  0  0  0
  6  7  1  0  0  0
  7  8  2  0  0  0
  7  5  1  0  0  0
  5 19  1  0  0  0
 19 20  1  0  0  0
 20 21  1  0  0  0
 20 22  1  0  0  0
  5  1  1  0  0  0
  1  2  1  0  0  0
  2  3  2  0  0  0
  2 23  1  0  0  0
 23 36  1  0  0  0
 36 37  1  0  0  0
 37 38  1  0  0  0
 37 39  1  0  0  0
 23 24  1  0  0  0
 24 25  1  0  0  0
 25 26  2  0  0  0
 25 28  1  0  0  0
 28 29  1  0  0  0
 29 30  1  0  0  0
 30 31  2  0  0  0
 31 32  1  0  0  0
 32 33  2  0  0  0
 33 34  1  0  0  0
 34 35  2  0  0  0
 10 11  1  0  0  0
 11 12  1  0  0  0
 11 13  2  0  0  0
 35 30  1  0  0  0
  6  9  1  0  0  0
  1  4  1  0  0  0
 24 27  1  0  0  0
 12 14  1  0  0  0
M  END
> <minimizedAffinity>
-8.27468

> <CNNscore>
0.2876230478

> <CNNaffinity>
6.6753439903

> <CNN_VS>
1.9199827909

> <CNNaffinity_variance>
0.1519906223

$$$$
[H]OC(=O)[C@@]([H])(N([H])C(=O)[C@@]([H])(N([H])C(=O)[C@@]([H])(N([H])C(=O)OC([H])([H])c1c([H])c([H])c([H])c([H])c1[H])C([H])([H])C([H])(C([H])([H])[H])C([H])([H])[H])C([H])([H])C([H])(C([H])([H])[H])C([H])([H])[H])C([H])([H])C([H])(C([H])([H])[H])C([H])([H])[H]


 39 39  0  0  0  0  0  0  0  0999 V2000
  -89.0073   26.8050   -0.3893 N   0  0  0  0  0  0  0  0  0  0  0  0
  -87.8868   27.3641    0.2402 C   0  0  0  0  0  0  0  0  0  0  0  0
  -87.0547   28.0184   -0.4221 O   0  0  0  0  0  0  0  0  0  0  0  0
  -89.6934   26.2658    0.1673 H   0  0  0  0  0  0  0  0  0  0  0  0
  -89.2977   26.9275   -1.8262 C   0  0  0  0  0  0  0  0  0  0  0  0
  -88.6711   29.2110   -2.8237 N   0  0  0  0  0  0  0  0  0  0  0  0
  -89.5101   28.3487   -2.0951 C   0  0  0  0  0  0  0  0  0  0  0  0
  -90.5928   28.8652   -1.6009 O   0  0  0  0  0  0  0  0  0  0  0  0
  -87.7759   28.9163   -3.2439 H   0  0  0  0  0  0  0  0  0  0  0  0
  -89.0692   30.6467   -2.9939 C   0  0  0  0  0  0  0  0  0  0  0  0
  -89.5190   30.7409   -4.3830 C   0  0  0  0  0  0  0  0  0  0  0  0
  -88.6647   31.0114   -5.4314 O   0  0  0  0  0  0  0  0  0  0  0  0
  -90.7360   30.5803   -4.7008 O   0  0  0  0  0  0  0  0  0  0  0  0
  -88.5645   31.8899   -5.8968 H   0  0  0  0  0  0  0  0  0  0  0  0
  -87.8665   31.4128   -2.5980 C   0  0  0  0  0  0  0  0  0  0  0  0
  -89.0821   32.5459   -0.7236 C   0  0  0  0  0  0  0  0  0  0  0  0
  -87.9867   32.6183   -1.7669 C   0  0  0  0  0  0  0  0  0  0  0  0
  -87.9649   33.9479   -2.4017 C   0  0  0  0  0  0  0  0  0  0  0  0
  -90.3911   25.9934   -2.1986 C   0  0  0  0  0  0  0  0  0  0  0  0
  -90.7412   24.8887   -1.2880 C   0  0  0  0  0  0  0  0  0  0  0  0
  -92.2210   24.5657   -1.2318 C   0  0  0  0  0  0  0  0  0  0  0  0
  -90.0302   23.6052   -1.7680 C   0  0  0  0  0  0  0  0  0  0  0  0
  -87.6568   27.1986    1.6977 C   0  0  0  0  0  0  0  0  0  0  0  0
  -86.7529   28.1705    2.2274 N   0  0  0  0  0  0  0  0  0  0  0  0
  -85.3600   27.9722    2.4522 C   0  0  0  0  0  0  0  0  0  0  0  0
  -84.7842   26.8822    2.1914 O   0  0  0  0  0  0  0  0  0  0  0  0
  -87.1452   29.1194    2.4762 H   0  0  0  0  0  0  0  0  0  0  0  0
  -84.5611   28.9779    2.9733 O   0  0  0  0  0  0  0  0  0  0  0  0
  -84.9669   30.3315    2.9059 C   0  0  0  0  0  0  0  0  0  0  0  0
  -84.3763   31.0179    1.7337 C   0  0  0  0  0  0  0  0  0  0  0  0
  -85.1731   31.8129    0.9419 C   0  0  0  0  0  0  0  0  0  0  0  0
  -84.6165   32.4375   -0.1412 C   0  0  0  0  0  0  0  0  0  0  0  0
  -83.2867   32.2964   -0.4625 C   0  0  0  0  0  0  0  0  0  0  0  0
  -82.5192   31.5041    0.3372 C   0  0  0  0  0  0  0  0  0  0  0  0
  -83.0581   30.8601    1.4401 C   0  0  0  0  0  0  0  0  0  0  0  0
  -88.9927   27.2450    2.4088 C   0  0  0  0  0  0  0  0  0  0  0  0
  -89.1949   26.0594    3.3106 C   0  0  0  0  0  0  0  0  0  0  0  0
  -89.9056   26.5340    4.5674 C   0  0  0  0  0  0  0  0  0  0  0  0
  -90.0616   25.0424    2.5807 C   0  0  0  0  0  0  0  0  0  0  0  0
 16 17  1  0  0  0
 17 18  1  0  0  0
 17 15  1  0  0  0
 15 10  1  0  0  0
 10  6  1  0  0  0
  6  7  1  0  0  0
  7  8  2  0  0  0
  7  5  1  0  0  0
  5 19  1  0  0  0
 19 20  1  0  0  0
 20 21  1  0  0  0
 20 22  1  0  0  0
  5  1  1  0  0  0
  1  2  1  0  0  0
  2  3  2  0  0  0
  2 23  1  0  0  0
 23 36  1  0  0  0
 36 37  1  0  0  0
 37 38  1  0  0  0
 37 39  1  0  0  0
 23 24  1  0  0  0
 24 25  1  0  0  0
 25 26  2  0  0  0
 25 28  1  0  0  0
 28 29  1  0  0  0
 29 30  1  0  0  0
 30 31  2  0  0  0
 31 32  1  0  0  0
 32 33  2  0  0  0
 33 34  1  0  0  0
 34 35  2  0  0  0
 10 11  1  0  0  0
 11 12  1  0  0  0
 11 13  2  0  0  0
 35 30  1  0  0  0
  6  9  1  0  0  0
  1  4  1  0  0  0
 24 27  1  0  0  0
 12 14  1  0  0  0
M  END
> <minimizedAffinity>
-8.00420

> <CNNscore>
0.2826712430

> <CNNaffinity>
6.8117380142

> <CNN_VS>
1.9254823923

> <CNNaffinity_variance>
0.1718395799

$$$$
[H]OC(=O)[C@@]([H])(N([H])C(=O)[C@@]([H])(N([H])C(=O)[C@@]([H])(N([H])C(=O)OC([H])([H])c1c([H])c([H])c([H])c([H])c1[H])C([H])([H])C([H])(C([H])([H])[H])C([H])([H])[H])C([H])([H])C([H])(C([H])([H])[H])C([H])([H])[H])C([H])([H])C([H])(C([H])([H])[H])C([H])([H])[H]


 39 39  0  0  0  0  0  0  0  0999 V2000
  -89.0682   28.1855   -0.4478 N   0  0  0  0  0  0  0  0  0  0  0  0
  -89.3968   27.8827    0.8806 C   0  0  0  0  0  0  0  0  0  0  0  0
  -90.2662   28.5483    1.4807 O   0  0  0  0  0  0  0  0  0  0  0  0
  -88.3480   27.6275   -0.9387 H   0  0  0  0  0  0  0  0  0  0  0  0
  -89.6858   29.2690   -1.2278 C   0  0  0  0  0  0  0  0  0  0  0  0
  -91.1113   27.4761   -2.3922 N   0  0  0  0  0  0  0  0  0  0  0  0
  -90.9248   28.7329   -1.7891 C   0  0  0  0  0  0  0  0  0  0  0  0
  -91.9619   29.5098   -1.7227 O   0  0  0  0  0  0  0  0  0  0  0  0
  -90.3549   26.7855   -2.5185 H   0  0  0  0  0  0  0  0  0  0  0  0
  -92.4706   27.1065   -2.9062 C   0  0  0  0  0  0  0  0  0  0  0  0
  -92.8776   25.9679   -2.0823 C   0  0  0  0  0  0  0  0  0  0  0  0
  -93.6059   26.1059   -0.9193 O   0  0  0  0  0  0  0  0  0  0  0  0
  -92.5749   24.7773   -2.3963 O   0  0  0  0  0  0  0  0  0  0  0  0
  -93.2453   26.0490    0.0108 H   0  0  0  0  0  0  0  0  0  0  0  0
  -92.2689   26.8809   -4.3548 C   0  0  0  0  0  0  0  0  0  0  0  0
  -92.7868   27.2789   -6.7732 C   0  0  0  0  0  0  0  0  0  0  0  0
  -92.8890   27.7719   -5.3448 C   0  0  0  0  0  0  0  0  0  0  0  0
  -92.6385   29.2225   -5.2797 C   0  0  0  0  0  0  0  0  0  0  0  0
  -88.6937   29.8300   -2.1806 C   0  0  0  0  0  0  0  0  0  0  0  0
  -87.8590   30.9723   -1.7677 C   0  0  0  0  0  0  0  0  0  0  0  0
  -87.6649   32.0279   -2.8379 C   0  0  0  0  0  0  0  0  0  0  0  0
  -88.5379   31.6777   -0.5741 C   0  0  0  0  0  0  0  0  0  0  0  0
  -88.7300   26.7729    1.6076 C   0  0  0  0  0  0  0  0  0  0  0  0
  -87.5948   27.2087    2.3584 N   0  0  0  0  0  0  0  0  0  0  0  0
  -86.3588   27.6559    1.8089 C   0  0  0  0  0  0  0  0  0  0  0  0
  -86.1540   27.7091    0.5667 O   0  0  0  0  0  0  0  0  0  0  0  0
  -87.6725   27.2005    3.4121 H   0  0  0  0  0  0  0  0  0  0  0  0
  -85.3101   28.0592    2.6206 O   0  0  0  0  0  0  0  0  0  0  0  0
  -85.1961   29.4059    3.0386 C   0  0  0  0  0  0  0  0  0  0  0  0
  -84.5642   30.2467    1.9956 C   0  0  0  0  0  0  0  0  0  0  0  0
  -83.2337   30.0661    1.6942 C   0  0  0  0  0  0  0  0  0  0  0  0
  -82.6604   30.8528    0.7321 C   0  0  0  0  0  0  0  0  0  0  0  0
  -83.3719   31.8168    0.0570 C   0  0  0  0  0  0  0  0  0  0  0  0
  -84.6875   31.9757    0.3737 C   0  0  0  0  0  0  0  0  0  0  0  0
  -85.2925   31.1923    1.3441 C   0  0  0  0  0  0  0  0  0  0  0  0
  -89.7493   26.0929    2.4969 C   0  0  0  0  0  0  0  0  0  0  0  0
  -89.3603   26.1482    3.9480 C   0  0  0  0  0  0  0  0  0  0  0  0
  -90.4627   26.8666    4.7085 C   0  0  0  0  0  0  0  0  0  0  0  0
  -89.2227   24.7222    4.4636 C   0  0  0  0  0  0  0  0  0  0  0  0
 16 17  1  0  0  0
 17 18  1  0  0  0
 17 15  1  0  0  0
 15 10  1  0  0  0
 10  6  1  0  0  0
  6  7  1  0  0  0
  7  8  2  0  0  0
  7  5  1  0  0  0
  5 19  1  0  0  0
 19 20  1  0  0  0
 20 21  1  0  0  0
 20 22  1  0  0  0
  5  1  1  0  0  0
  1  2  1  0  0  0
  2  3  2  0  0  0
  2 23  1  0  0  0
 23 36  1  0  0  0
 36 37  1  0  0  0
 37 38  1  0  0  0
 37 39  1  0  0  0
 23 24  1  0  0  0
 24 25  1  0  0  0
 25 26  2  0  0  0
 25 28  1  0  0  0
 28 29  1  0  0  0
 29 30  1  0  0  0
 30 31  2  0  0  0
 31 32  1  0  0  0
 32 33  2  0  0  0
 33 34  1  0  0  0
 34 35  2  0  0  0
 10 11  1  0  0  0
 11 12  1  0  0  0
 11 13  2  0  0  0
 35 30  1  0  0  0
  6  9  1  0  0  0
  1  4  1  0  0  0
 24 27  1  0  0  0
 12 14  1  0  0  0
M  END
> <minimizedAffinity>
-7.22013

> <CNNscore>
0.2497890592

> <CNNaffinity>
6.4510259628

> <CNN_VS>
1.6113957167

> <CNNaffinity_variance>
0.1390844285

$$$$
[H]OC(=O)[C@@]([H])(N([H])C(=O)[C@@]([H])(N([H])C(=O)[C@@]([H])(N([H])C(=O)OC([H])([H])c1c([H])c([H])c([H])c([H])c1[H])C([H])([H])C([H])(C([H])([H])[H])C([H])([H])[H])C([H])([H])C([H])(C([H])([H])[H])C([H])([H])[H])C([H])([H])C([H])(C([H])([H])[H])C([H])([H])[H]


 39 39  0  0  0  0  0  0  0  0999 V2000
  -87.5967   30.3733   -1.2454 N   0  0  0  0  0  0  0  0  0  0  0  0
  -86.8003   30.9120   -0.2257 C   0  0  0  0  0  0  0  0  0  0  0  0
  -86.8030   32.1417   -0.0089 O   0  0  0  0  0  0  0  0  0  0  0  0
  -87.5903   29.3527   -1.4172 H   0  0  0  0  0  0  0  0  0  0  0  0
  -88.4717   31.1683   -2.1209 C   0  0  0  0  0  0  0  0  0  0  0  0
  -90.7773   30.0610   -1.8753 N   0  0  0  0  0  0  0  0  0  0  0  0
  -89.5603   30.2882   -2.5427 C   0  0  0  0  0  0  0  0  0  0  0  0
  -89.3742   29.6468   -3.6550 O   0  0  0  0  0  0  0  0  0  0  0  0
  -91.0251   30.4994   -0.9745 H   0  0  0  0  0  0  0  0  0  0  0  0
  -91.7757   29.1177   -2.4768 C   0  0  0  0  0  0  0  0  0  0  0  0
  -93.0567   29.8150   -2.3598 C   0  0  0  0  0  0  0  0  0  0  0  0
  -93.9716   29.5413   -1.3647 O   0  0  0  0  0  0  0  0  0  0  0  0
  -93.4002   30.7181   -3.1809 O   0  0  0  0  0  0  0  0  0  0  0  0
  -94.8077   29.0037   -1.4661 H   0  0  0  0  0  0  0  0  0  0  0  0
  -91.5968   27.8586   -1.7199 C   0  0  0  0  0  0  0  0  0  0  0  0
  -92.0047   25.5273   -2.5407 C   0  0  0  0  0  0  0  0  0  0  0  0
  -91.0259   26.6701   -2.3680 C   0  0  0  0  0  0  0  0  0  0  0  0
  -89.7113   26.1636   -1.9362 C   0  0  0  0  0  0  0  0  0  0  0  0
  -87.6632   31.8108   -3.1887 C   0  0  0  0  0  0  0  0  0  0  0  0
  -87.7571   33.2677   -3.3905 C   0  0  0  0  0  0  0  0  0  0  0  0
  -88.9198   33.9272   -2.6759 C   0  0  0  0  0  0  0  0  0  0  0  0
  -86.4740   33.9287   -2.8428 C   0  0  0  0  0  0  0  0  0  0  0  0
  -85.9389   30.0474    0.6199 C   0  0  0  0  0  0  0  0  0  0  0  0
  -86.3946   28.6938    0.6690 N   0  0  0  0  0  0  0  0  0  0  0  0
  -86.2184   27.7985    1.7631 C   0  0  0  0  0  0  0  0  0  0  0  0
  -85.6247   28.1371    2.8216 O   0  0  0  0  0  0  0  0  0  0  0  0
  -86.9066   28.3189   -0.1758 H   0  0  0  0  0  0  0  0  0  0  0  0
  -86.6961   26.4981    1.7177 O   0  0  0  0  0  0  0  0  0  0  0  0
  -88.0443   26.2346    1.3795 C   0  0  0  0  0  0  0  0  0  0  0  0
  -88.9489   26.4734    2.5278 C   0  0  0  0  0  0  0  0  0  0  0  0
  -89.7434   27.5969    2.5418 C   0  0  0  0  0  0  0  0  0  0  0  0
  -90.5712   27.8087    3.6109 C   0  0  0  0  0  0  0  0  0  0  0  0
  -90.6345   26.9343    4.6706 C   0  0  0  0  0  0  0  0  0  0  0  0
  -89.8380   25.8296    4.6327 C   0  0  0  0  0  0  0  0  0  0  0  0
  -88.9906   25.5914    3.5618 C   0  0  0  0  0  0  0  0  0  0  0  0
  -84.5162   30.1303    0.1086 C   0  0  0  0  0  0  0  0  0  0  0  0
  -83.5820   30.7198    1.1283 C   0  0  0  0  0  0  0  0  0  0  0  0
  -82.7791   29.5879    1.7478 C   0  0  0  0  0  0  0  0  0  0  0  0
  -82.6456   31.6886    0.4191 C   0  0  0  0  0  0  0  0  0  0  0  0
 16 17  1  0  0  0
 17 18  1  0  0  0
 17 15  1  0  0  0
 15 10  1  0  0  0
 10  6  1  0  0  0
  6  7  1  0  0  0
  7  8  2  0  0  0
  7  5  1  0  0  0
  5 19  1  0  0  0
 19 20  1  0  0  0
 20 21  1  0  0  0
 20 22  1  0  0  0
  5  1  1  0  0  0
  1  2  1  0  0  0
  2  3  2  0  0  0
  2 23  1  0  0  0
 23 36  1  0  0  0
 36 37  1  0  0  0
 37 38  1  0  0  0
 37 39  1  0  0  0
 23 24  1  0  0  0
 24 25  1  0  0  0
 25 26  2  0  0  0
 25 28  1  0  0  0
 28 29  1  0  0  0
 29 30  1  0  0  0
 30 31  2  0  0  0
 31 32  1  0  0  0
 32 33  2  0  0  0
 33 34  1  0  0  0
 34 35  2  0  0  0
 10 11  1  0  0  0
 11 12  1  0  0  0
 11 13  2  0  0  0
 35 30  1  0  0  0
  6  9  1  0  0  0
  1  4  1  0  0  0
 24 27  1  0  0  0
 12 14  1  0  0  0
M  END
> <minimizedAffinity>
-7.42765

> <CNNscore>
0.2468325198

> <CNNaffinity>
6.5038270950

> <CNN_VS>
1.6053559780

> <CNNaffinity_variance>
0.2560819983

$$$$
[H]OC(=O)[C@@]([H])(N([H])C(=O)[C@@]([H])(N([H])C(=O)[C@@]([H])(N([H])C(=O)OC([H])([H])c1c([H])c([H])c([H])c([H])c1[H])C([H])([H])C([H])(C([H])([H])[H])C([H])([H])[H])C([H])([H])C([H])(C([H])([H])[H])C([H])([H])[H])C([H])([H])C([H])(C([H])([H])[H])C([H])([H])[H]


 39 39  0  0  0  0  0  0  0  0999 V2000
  -86.0240   30.7503   -1.0656 N   0  0  0  0  0  0  0  0  0  0  0  0
  -87.2160   31.4874   -1.0525 C   0  0  0  0  0  0  0  0  0  0  0  0
  -87.7829   31.7469    0.0293 O   0  0  0  0  0  0  0  0  0  0  0  0
  -85.5592   30.5413   -1.9664 H   0  0  0  0  0  0  0  0  0  0  0  0
  -85.3565   30.2327    0.1388 C   0  0  0  0  0  0  0  0  0  0  0  0
  -87.2406   28.4872    0.2130 N   0  0  0  0  0  0  0  0  0  0  0  0
  -86.3176   29.3619    0.8137 C   0  0  0  0  0  0  0  0  0  0  0  0
  -86.3148   29.4094    2.1103 O   0  0  0  0  0  0  0  0  0  0  0  0
  -87.3464   28.3820   -0.8082 H   0  0  0  0  0  0  0  0  0  0  0  0
  -88.1453   27.6681    1.0843 C   0  0  0  0  0  0  0  0  0  0  0  0
  -87.4209   26.4134    1.2891 C   0  0  0  0  0  0  0  0  0  0  0  0
  -87.4458   25.3761    0.3805 O   0  0  0  0  0  0  0  0  0  0  0  0
  -86.7250   26.2088    2.3291 O   0  0  0  0  0  0  0  0  0  0  0  0
  -87.9800   24.5356    0.4620 H   0  0  0  0  0  0  0  0  0  0  0  0
  -89.4262   27.6198    0.3447 C   0  0  0  0  0  0  0  0  0  0  0  0
  -90.6053   29.8299    0.3221 C   0  0  0  0  0  0  0  0  0  0  0  0
  -90.5864   28.3946    0.8052 C   0  0  0  0  0  0  0  0  0  0  0  0
  -91.0007   28.3193    2.2173 C   0  0  0  0  0  0  0  0  0  0  0  0
  -84.7918   31.3605    0.9235 C   0  0  0  0  0  0  0  0  0  0  0  0
  -83.3731   31.3269    1.3214 C   0  0  0  0  0  0  0  0  0  0  0  0
  -82.8399   29.9423    1.6307 C   0  0  0  0  0  0  0  0  0  0  0  0
  -82.5183   31.8764    0.1592 C   0  0  0  0  0  0  0  0  0  0  0  0
  -87.8347   31.9780   -2.3099 C   0  0  0  0  0  0  0  0  0  0  0  0
  -88.9812   31.2165   -2.6944 N   0  0  0  0  0  0  0  0  0  0  0  0
  -89.2212   30.6755   -3.9903 C   0  0  0  0  0  0  0  0  0  0  0  0
  -88.4113   30.8265   -4.9437 O   0  0  0  0  0  0  0  0  0  0  0  0
  -89.7181   31.0362   -1.9589 H   0  0  0  0  0  0  0  0  0  0  0  0
  -90.3680   29.9488   -4.2697 O   0  0  0  0  0  0  0  0  0  0  0  0
  -91.4016   29.8324   -3.3109 C   0  0  0  0  0  0  0  0  0  0  0  0
  -91.6031   28.4244   -2.8975 C   0  0  0  0  0  0  0  0  0  0  0  0
  -92.7677   28.0663   -2.2580 C   0  0  0  0  0  0  0  0  0  0  0  0
  -92.9395   26.7631   -1.8767 C   0  0  0  0  0  0  0  0  0  0  0  0
  -91.9859   25.8008   -2.1132 C   0  0  0  0  0  0  0  0  0  0  0  0
  -90.8419   26.1808   -2.7480 C   0  0  0  0  0  0  0  0  0  0  0  0
  -90.6427   27.4940   -3.1446 C   0  0  0  0  0  0  0  0  0  0  0  0
  -88.1785   33.4431   -2.1429 C   0  0  0  0  0  0  0  0  0  0  0  0
  -88.2662   34.1575   -3.4627 C   0  0  0  0  0  0  0  0  0  0  0  0
  -89.7086   34.5859   -3.6762 C   0  0  0  0  0  0  0  0  0  0  0  0
  -87.3666   35.3846   -3.4059 C   0  0  0  0  0  0  0  0  0  0  0  0
 16 17  1  0  0  0
 17 18  1  0  0  0
 17 15  1  0  0  0
 15 10  1  0  0  0
 10  6  1  0  0  0
  6  7  1  0  0  0
  7  8  2  0  0  0
  7  5  1  0  0  0
  5 19  1  0  0  0
 19 20  1  0  0  0
 20 21  1  0  0  0
 20 22  1  0  0  0
  5  1  1  0  0  0
  1  2  1  0  0  0
  2  3  2  0  0  0
  2 23  1  0  0  0
 23 36  1  0  0  0
 36 37  1  0  0  0
 37 38  1  0  0  0
 37 39  1  0  0  0
 23 24  1  0  0  0
 24 25  1  0  0  0
 25 26  2  0  0  0
 25 28  1  0  0  0
 28 29  1  0  0  0
 29 30  1  0  0  0
 30 31  2  0  0  0
 31 32  1  0  0  0
 32 33  2  0  0  0
 33 34  1  0  0  0
 34 35  2  0  0  0
 10 11  1  0  0  0
 11 12  1  0  0  0
 11 13  2  0  0  0
 35 30  1  0  0  0
  6  9  1  0  0  0
  1  4  1  0  0  0
 24 27  1  0  0  0
 12 14  1  0  0  0
M  END
> <minimizedAffinity>
-6.68504

> <CNNscore>
0.1632881910

> <CNNaffinity>
6.1615180969

> <CNN_VS>
1.0061031580

> <CNNaffinity_variance>
0.4614101052

$$$$
[H]OC(=O)[C@@]([H])(N([H])C(=O)[C@@]([H])(N([H])C(=O)[C@@]([H])(N([H])C(=O)OC([H])([H])c1c([H])c([H])c([H])c([H])c1[H])C([H])([H])C([H])(C([H])([H])[H])C([H])([H])[H])C([H])([H])C([H])(C([H])([H])[H])C([H])([H])[H])C([H])([H])C([H])(C([H])([H])[H])C([H])([H])[H]


 39 39  0  0  0  0  0  0  0  0999 V2000
  -88.6424   32.2498   -3.0265 N   0  0  0  0  0  0  0  0  0  0  0  0
  -88.4452   33.6119   -2.7614 C   0  0  0  0  0  0  0  0  0  0  0  0
  -89.3338   34.2760   -2.1884 O   0  0  0  0  0  0  0  0  0  0  0  0
  -87.8999   31.7060   -3.5000 H   0  0  0  0  0  0  0  0  0  0  0  0
  -89.8607   31.5048   -2.6734 C   0  0  0  0  0  0  0  0  0  0  0  0
  -89.1839   29.1555   -1.8829 N   0  0  0  0  0  0  0  0  0  0  0  0
  -89.4750   30.5148   -1.6692 C   0  0  0  0  0  0  0  0  0  0  0  0
  -89.3981   30.9447   -0.4474 O   0  0  0  0  0  0  0  0  0  0  0  0
  -89.2325   28.6996   -2.8074 H   0  0  0  0  0  0  0  0  0  0  0  0
  -88.7999   28.2977   -0.7144 C   0  0  0  0  0  0  0  0  0  0  0  0
  -87.3544   28.1166   -0.8510 C   0  0  0  0  0  0  0  0  0  0  0  0
  -86.4381   28.7671   -0.0515 O   0  0  0  0  0  0  0  0  0  0  0  0
  -86.8604   27.3438   -1.7265 O   0  0  0  0  0  0  0  0  0  0  0  0
  -85.8898   29.5610   -0.3114 H   0  0  0  0  0  0  0  0  0  0  0  0
  -89.6656   27.1033   -0.8329 C   0  0  0  0  0  0  0  0  0  0  0  0
  -92.1313   26.6658   -0.7680 C   0  0  0  0  0  0  0  0  0  0  0  0
  -90.8632   26.9604    0.0060 C   0  0  0  0  0  0  0  0  0  0  0  0
  -91.1264   27.9392    1.0756 C   0  0  0  0  0  0  0  0  0  0  0  0
  -90.5170   31.0022   -3.9077 C   0  0  0  0  0  0  0  0  0  0  0  0
  -91.7141   31.6905   -4.4229 C   0  0  0  0  0  0  0  0  0  0  0  0
  -91.4201   32.8604   -5.3405 C   0  0  0  0  0  0  0  0  0  0  0  0
  -92.5486   30.6862   -5.2464 C   0  0  0  0  0  0  0  0  0  0  0  0
  -87.1876   34.2999   -3.1483 C   0  0  0  0  0  0  0  0  0  0  0  0
  -86.0202   33.5549   -2.7957 N   0  0  0  0  0  0  0  0  0  0  0  0
  -85.4761   33.4371   -1.4843 C   0  0  0  0  0  0  0  0  0  0  0  0
  -85.9987   33.9996   -0.4852 O   0  0  0  0  0  0  0  0  0  0  0  0
  -85.5122   33.0459   -3.5698 H   0  0  0  0  0  0  0  0  0  0  0  0
  -84.3342   32.6905   -1.2393 O   0  0  0  0  0  0  0  0  0  0  0  0
  -83.6045   32.8582   -0.0390 C   0  0  0  0  0  0  0  0  0  0  0  0
  -83.7310   31.6751    0.8433 C   0  0  0  0  0  0  0  0  0  0  0  0
  -82.7690   30.6920    0.8000 C   0  0  0  0  0  0  0  0  0  0  0  0
  -82.9001   29.6015    1.6165 C   0  0  0  0  0  0  0  0  0  0  0  0
  -83.9617   29.4578    2.4790 C   0  0  0  0  0  0  0  0  0  0  0  0
  -84.9004   30.4450    2.5030 C   0  0  0  0  0  0  0  0  0  0  0  0
  -84.7916   31.5597    1.6863 C   0  0  0  0  0  0  0  0  0  0  0  0
  -87.2283   34.5875   -4.6342 C   0  0  0  0  0  0  0  0  0  0  0  0
  -87.9114   35.8914   -4.9395 C   0  0  0  0  0  0  0  0  0  0  0  0
  -86.8489   36.9033   -5.3356 C   0  0  0  0  0  0  0  0  0  0  0  0
  -88.8719   35.6707   -6.1001 C   0  0  0  0  0  0  0  0  0  0  0  0
 16 17  1  0  0  0
 17 18  1  0  0  0
 17 15  1  0  0  0
 15 10  1  0  0  0
 10  6  1  0  0  0
  6  7  1  0  0  0
  7  8  2  0  0  0
  7  5  1  0  0  0
  5 19  1  0  0  0
 19 20  1  0  0  0
 20 21  1  0  0  0
 20 22  1  0  0  0
  5  1  1  0  0  0
  1  2  1  0  0  0
  2  3  2  0  0  0
  2 23  1  0  0  0
 23 36  1  0  0  0
 36 37  1  0  0  0
 37 38  1  0  0  0
 37 39  1  0  0  0
 23 24  1  0  0  0
 24 25  1  0  0  0
 25 26  2  0  0  0
 25 28  1  0  0  0
 28 29  1  0  0  0
 29 30  1  0  0  0
 30 31  2  0  0  0
 31 32  1  0  0  0
 32 33  2  0  0  0
 33 34  1  0  0  0
 34 35  2  0  0  0
 10 11  1  0  0  0
 11 12  1  0  0  0
 11 13  2  0  0  0
 35 30  1  0  0  0
  6  9  1  0  0  0
  1  4  1  0  0  0
 24 27  1  0  0  0
 12 14  1  0  0  0
M  END
> <minimizedAffinity>
-6.68292

> <CNNscore>
0.1543460935

> <CNNaffinity>
6.1630134583

> <CNN_VS>
0.9512370229

> <CNNaffinity_variance>
0.1235935837

$$$$
[H]OC(=O)[C@@]([H])(N([H])C(=O)[C@@]([H])(N([H])C(=O)[C@@]([H])(N([H])C(=O)OC([H])([H])c1c([H])c([H])c([H])c([H])c1[H])C([H])([H])C([H])(C([H])([H])[H])C([H])([H])[H])C([H])([H])C([H])(C([H])([H])[H])C([H])([H])[H])C([H])([H])C([H])(C([H])([H])[H])C([H])([H])[H]


 39 39  0  0  0  0  0  0  0  0999 V2000
  -89.1140   26.8116   -0.1355 N   0  0  0  0  0  0  0  0  0  0  0  0
  -87.9679   26.4922    0.6053 C   0  0  0  0  0  0  0  0  0  0  0  0
  -87.1114   25.7149    0.1348 O   0  0  0  0  0  0  0  0  0  0  0  0
  -89.8180   27.4584    0.2609 H   0  0  0  0  0  0  0  0  0  0  0  0
  -89.4070   26.2845   -1.4772 C   0  0  0  0  0  0  0  0  0  0  0  0
  -89.2275   28.7624   -2.1329 N   0  0  0  0  0  0  0  0  0  0  0  0
  -89.6542   27.4384   -2.3402 C   0  0  0  0  0  0  0  0  0  0  0  0
  -90.3477   27.2082   -3.4124 O   0  0  0  0  0  0  0  0  0  0  0  0
  -88.6887   29.0659   -1.3068 H   0  0  0  0  0  0  0  0  0  0  0  0
  -89.5812   29.8113   -3.1445 C   0  0  0  0  0  0  0  0  0  0  0  0
  -88.3212   30.5065   -3.4087 C   0  0  0  0  0  0  0  0  0  0  0  0
  -87.6904   30.4758   -4.6348 O   0  0  0  0  0  0  0  0  0  0  0  0
  -87.7321   31.1806   -2.5108 O   0  0  0  0  0  0  0  0  0  0  0  0
  -86.8922   29.9234   -4.8719 H   0  0  0  0  0  0  0  0  0  0  0  0
  -90.6799   30.5766   -2.5141 C   0  0  0  0  0  0  0  0  0  0  0  0
  -92.8729   31.4350   -3.3679 C   0  0  0  0  0  0  0  0  0  0  0  0
  -92.0822   30.2645   -2.8214 C   0  0  0  0  0  0  0  0  0  0  0  0
  -92.8899   29.5027   -1.8526 C   0  0  0  0  0  0  0  0  0  0  0  0
  -90.4770   25.2576   -1.3904 C   0  0  0  0  0  0  0  0  0  0  0  0
  -90.1676   23.8586   -1.7356 C   0  0  0  0  0  0  0  0  0  0  0  0
  -89.8218   22.9806   -0.5495 C   0  0  0  0  0  0  0  0  0  0  0  0
  -91.4076   23.2258   -2.4028 C   0  0  0  0  0  0  0  0  0  0  0  0
  -87.7381   27.0621    1.9570 C   0  0  0  0  0  0  0  0  0  0  0  0
  -86.7547   28.0990    1.9586 N   0  0  0  0  0  0  0  0  0  0  0  0
  -85.3546   27.9140    2.1465 C   0  0  0  0  0  0  0  0  0  0  0  0
  -84.8444   26.7770    2.3325 O   0  0  0  0  0  0  0  0  0  0  0  0
  -87.0883   29.0902    1.8085 H   0  0  0  0  0  0  0  0  0  0  0  0
  -84.4752   28.9854    2.1335 O   0  0  0  0  0  0  0  0  0  0  0  0
  -84.9379   30.3030    2.3602 C   0  0  0  0  0  0  0  0  0  0  0  0
  -84.4961   31.2256    1.2887 C   0  0  0  0  0  0  0  0  0  0  0  0
  -83.1573   31.3183    0.9842 C   0  0  0  0  0  0  0  0  0  0  0  0
  -82.7616   32.1781   -0.0043 C   0  0  0  0  0  0  0  0  0  0  0  0
  -83.6592   32.9511   -0.7030 C   0  0  0  0  0  0  0  0  0  0  0  0
  -84.9788   32.8408   -0.3826 C   0  0  0  0  0  0  0  0  0  0  0  0
  -85.4063   31.9778    0.6144 C   0  0  0  0  0  0  0  0  0  0  0  0
  -89.0592   27.5565    2.5069 C   0  0  0  0  0  0  0  0  0  0  0  0
  -89.4617   26.8236    3.7562 C   0  0  0  0  0  0  0  0  0  0  0  0
  -90.1232   27.8167    4.6976 C   0  0  0  0  0  0  0  0  0  0  0  0
  -90.4544   25.7337    3.3756 C   0  0  0  0  0  0  0  0  0  0  0  0
 16 17  1  0  0  0
 17 18  1  0  0  0
 17 15  1  0  0  0
 15 10  1  0  0  0
 10  6  1  0  0  0
  6  7  1  0  0  0
  7  8  2  0  0  0
  7  5  1  0  0  0
  5 19  1  0  0  0
 19 20  1  0  0  0
 20 21  1  0  0  0
 20 22  1  0  0  0
  5  1  1  0  0  0
  1  2  1  0  0  0
  2  3  2  0  0  0
  2 23  1  0  0  0
 23 36  1  0  0  0
 36 37  1  0  0  0
 37 38  1  0  0  0
 37 39  1  0  0  0
 23 24  1  0  0  0
 24 25  1  0  0  0
 25 26  2  0  0  0
 25 28  1  0  0  0
 28 29  1  0  0  0
 29 30  1  0  0  0
 30 31  2  0  0  0
 31 32  1  0  0  0
 32 33  2  0  0  0
 33 34  1  0  0  0
 34 35  2  0  0  0
 10 11  1  0  0  0
 11 12  1  0  0  0
 11 13  2  0  0  0
 35 30  1  0  0  0
  6  9  1  0  0  0
  1  4  1  0  0  0
 24 27  1  0  0  0
 12 14  1  0  0  0
M  END
> <minimizedAffinity>
-7.76302

> <CNNscore>
0.1341648847

> <CNNaffinity>
6.1441774368

> <CNN_VS>
0.8243328333

> <CNNaffinity_variance>
0.4516105652

$$$$
[H]C1=C(C(=O)[O-])N2C(=O)/C(=C(\[H])c3nc4c([H])c([H])c([H])c([H])c4s3)[C@@]2([H])S1


 21 24  0  0  0  0  0  0  0  0999 V2000
  -89.7408   26.2990   -0.3118 C   0  0  0  0  0  0  0  0  0  0  0  0
  -89.2165   26.7089   -1.4455 C   0  0  0  0  0  0  0  0  0  0  0  0
  -87.7327   27.6333   -0.9591 S   0  0  0  0  0  0  0  0  0  0  0  0
  -88.3800   27.9476    0.7598 C   0  0  0  0  0  0  0  0  0  0  0  0
  -89.0434   26.6293    0.8566 N   0  0  0  0  0  0  0  0  0  0  0  0
  -88.4828   26.5718    2.1715 C   0  0  0  0  0  0  0  0  0  0  0  0
  -88.7652   25.9038    3.1910 O   0  0  0  0  0  0  0  0  0  0  0  0
  -87.4829   27.5791    1.8357 C   0  0  0  0  0  0  0  0  0  0  0  0
  -86.3160   27.9834    2.3082 C   0  0  0  0  0  0  0  0  0  0  0  0
  -85.5647   29.0979    1.7236 C   0  0  0  0  0  0  0  0  0  0  0  0
  -85.9792   30.1317    1.0256 N   0  0  0  0  0  0  0  0  0  0  0  0
  -85.1282   31.0115    0.5746 C   0  0  0  0  0  0  0  0  0  0  0  0
  -85.4426   32.1611   -0.1826 C   0  0  0  0  0  0  0  0  0  0  0  0
  -84.4622   32.9974   -0.5878 C   0  0  0  0  0  0  0  0  0  0  0  0
  -83.1046   32.8162   -0.3134 C   0  0  0  0  0  0  0  0  0  0  0  0
  -82.7979   31.6917    0.4289 C   0  0  0  0  0  0  0  0  0  0  0  0
  -83.8021   30.8066    0.8636 C   0  0  0  0  0  0  0  0  0  0  0  0
  -83.8606   29.3601    1.7665 S   0  0  0  0  0  0  0  0  0  0  0  0
  -91.3512   24.7070    0.7966 O   0  0  0  0  0  0  0  0  0  0  0  0
  -90.9886   25.4940   -0.2874 C   0  0  0  0  0  0  0  0  0  0  0  0
  -91.7904   25.4841   -1.2570 O   0  0  0  0  0  0  0  0  0  0  0  0
 19 20  1  0  0  0
 20 21  2  0  0  0
 20  1  1  0  0  0
  1  2  2  0  0  0
  2  3  1  0  0  0
  3  4  1  0  0  0
  4  5  1  0  0  0
  5  6  1  0  0  0
  6  7  2  0  0  0
  6  8  1  0  0  0
  8  9  2  0  0  0
  9 10  1  0  0  0
 10 11  2  0  0  0
 11 12  1  0  0  0
 12 13  2  0  0  0
 13 14  1  0  0  0
 14 15  2  0  0  0
 15 16  1  0  0  0
 16 17  2  0  0  0
 17 18  1  0  0  0
  5  1  1  0  0  0
 18 10  1  0  0  0
  8  4  1  0  0  0
 17 12  1  0  0  0
M  CHG 1  19  -1
M  END
> <minimizedAffinity>
-7.47744

> <CNNscore>
0.3565285802

> <CNNaffinity>
5.6389918327

> <CNN_VS>
2.0104618073

> <CNNaffinity_variance>
0.2805185616

$$$$
[H]C1=C(C(=O)[O-])N2C(=O)/C(=C(\[H])c3nc4c([H])c([H])c([H])c([H])c4s3)[C@@]2([H])S1


 21 24  0  0  0  0  0  0  0  0999 V2000
  -84.2443   29.1735    1.6682 C   0  0  0  0  0  0  0  0  0  0  0  0
  -83.9272   30.4485    1.6252 C   0  0  0  0  0  0  0  0  0  0  0  0
  -85.2897   31.2314    0.7177 S   0  0  0  0  0  0  0  0  0  0  0  0
  -85.7835   29.6331   -0.1030 C   0  0  0  0  0  0  0  0  0  0  0  0
  -85.4643   28.8111    1.0844 N   0  0  0  0  0  0  0  0  0  0  0  0
  -86.7078   28.1544    0.8220 C   0  0  0  0  0  0  0  0  0  0  0  0
  -87.1752   27.0448    1.1620 O   0  0  0  0  0  0  0  0  0  0  0  0
  -87.1823   29.2790    0.0235 C   0  0  0  0  0  0  0  0  0  0  0  0
  -88.3438   29.7429   -0.4053 C   0  0  0  0  0  0  0  0  0  0  0  0
  -88.4600   30.9301   -1.2572 C   0  0  0  0  0  0  0  0  0  0  0  0
  -88.0431   31.1412   -2.4857 N   0  0  0  0  0  0  0  0  0  0  0  0
  -88.2341   32.2961   -3.0615 C   0  0  0  0  0  0  0  0  0  0  0  0
  -87.8383   32.6490   -4.3702 C   0  0  0  0  0  0  0  0  0  0  0  0
  -88.1003   33.8842   -4.8499 C   0  0  0  0  0  0  0  0  0  0  0  0
  -88.7554   34.8884   -4.1332 C   0  0  0  0  0  0  0  0  0  0  0  0
  -89.1437   34.5419   -2.8531 C   0  0  0  0  0  0  0  0  0  0  0  0
  -88.8832   33.2607   -2.3319 C   0  0  0  0  0  0  0  0  0  0  0  0
  -89.1789   32.4471   -0.8617 S   0  0  0  0  0  0  0  0  0  0  0  0
  -83.8530   27.0351    2.9453 O   0  0  0  0  0  0  0  0  0  0  0  0
  -83.3636   28.1836    2.3392 C   0  0  0  0  0  0  0  0  0  0  0  0
  -82.1157   28.3352    2.3928 O   0  0  0  0  0  0  0  0  0  0  0  0
 19 20  1  0  0  0
 20 21  2  0  0  0
 20  1  1  0  0  0
  1  2  2  0  0  0
  2  3  1  0  0  0
  3  4  1  0  0  0
  4  5  1  0  0  0
  5  6  1  0  0  0
  6  7  2  0  0  0
  6  8  1  0  0  0
  8  9  2  0  0  0
  9 10  1  0  0  0
 10 11  2  0  0  0
 11 12  1  0  0  0
 12 13  2  0  0  0
 13 14  1  0  0  0
 14 15  2  0  0  0
 15 16  1  0  0  0
 16 17  2  0  0  0
 17 18  1  0  0  0
  5  1  1  0  0  0
 18 10  1  0  0  0
  8  4  1  0  0  0
 17 12  1  0  0  0
M  CHG 1  19  -1
M  END
> <minimizedAffinity>
-7.57566

> <CNNscore>
0.3208400011

> <CNNaffinity>
5.8125638962

> <CNN_VS>
1.8649029732

> <CNNaffinity_variance>
0.1368074715

$$$$
[H]C1=C(C(=O)[O-])N2C(=O)/C(=C(\[H])c3nc4c([H])c([H])c([H])c([H])c4s3)[C@@]2([H])S1


 21 24  0  0  0  0  0  0  0  0999 V2000
  -84.5694   30.1046    1.3659 C   0  0  0  0  0  0  0  0  0  0  0  0
  -84.0747   31.2999    1.1325 C   0  0  0  0  0  0  0  0  0  0  0  0
  -85.3217   32.1211    0.1012 S   0  0  0  0  0  0  0  0  0  0  0  0
  -86.0467   30.5030   -0.4716 C   0  0  0  0  0  0  0  0  0  0  0  0
  -85.8348   29.8347    0.8307 N   0  0  0  0  0  0  0  0  0  0  0  0
  -87.1619   29.3293    0.6576 C   0  0  0  0  0  0  0  0  0  0  0  0
  -87.7787   28.3625    1.1577 O   0  0  0  0  0  0  0  0  0  0  0  0
  -87.4802   30.3749   -0.3081 C   0  0  0  0  0  0  0  0  0  0  0  0
  -88.5685   30.9286   -0.8155 C   0  0  0  0  0  0  0  0  0  0  0  0
  -88.5239   31.9763   -1.8396 C   0  0  0  0  0  0  0  0  0  0  0  0
  -89.0290   33.1898   -1.8395 N   0  0  0  0  0  0  0  0  0  0  0  0
  -88.8899   33.9660   -2.8787 C   0  0  0  0  0  0  0  0  0  0  0  0
  -89.3809   35.2839   -3.0045 C   0  0  0  0  0  0  0  0  0  0  0  0
  -89.1648   35.9845   -4.1390 C   0  0  0  0  0  0  0  0  0  0  0  0
  -88.4696   35.4980   -5.2486 C   0  0  0  0  0  0  0  0  0  0  0  0
  -87.9883   34.2087   -5.1242 C   0  0  0  0  0  0  0  0  0  0  0  0
  -88.1994   33.4597   -3.9515 C   0  0  0  0  0  0  0  0  0  0  0  0
  -87.7926   31.8974   -3.3995 S   0  0  0  0  0  0  0  0  0  0  0  0
  -82.4512   28.9770    2.1393 O   0  0  0  0  0  0  0  0  0  0  0  0
  -83.8313   29.1134    2.1896 C   0  0  0  0  0  0  0  0  0  0  0  0
  -84.4240   28.3391    2.9847 O   0  0  0  0  0  0  0  0  0  0  0  0
 19 20  1  0  0  0
 20 21  2  0  0  0
 20  1  1  0  0  0
  1  2  2  0  0  0
  2  3  1  0  0  0
  3  4  1  0  0  0
  4  5  1  0  0  0
  5  6  1  0  0  0
  6  7  2  0  0  0
  6  8  1  0  0  0
  8  9  2  0  0  0
  9 10  1  0  0  0
 10 11  2  0  0  0
 11 12  1  0  0  0
 12 13  2  0  0  0
 13 14  1  0  0  0
 14 15  2  0  0  0
 15 16  1  0  0  0
 16 17  2  0  0  0
 17 18  1  0  0  0
  5  1  1  0  0  0
 18 10  1  0  0  0
  8  4  1  0  0  0
 17 12  1  0  0  0
M  CHG 1  19  -1
M  END
> <minimizedAffinity>
-6.76993

> <CNNscore>
0.3193590343

> <CNNaffinity>
5.6466875076

> <CNN_VS>
1.8033206463

> <CNNaffinity_variance>
0.4420853555

$$$$
[H]C1=C(C(=O)[O-])N2C(=O)/C(=C(\[H])c3nc4c([H])c([H])c([H])c([H])c4s3)[C@@]2([H])S1


 21 24  0  0  0  0  0  0  0  0999 V2000
  -89.9752   32.8650   -4.5517 C   0  0  0  0  0  0  0  0  0  0  0  0
  -88.7629   33.0798   -5.0121 C   0  0  0  0  0  0  0  0  0  0  0  0
  -87.6624   32.3344   -3.7768 S   0  0  0  0  0  0  0  0  0  0  0  0
  -88.9510   32.4333   -2.4346 C   0  0  0  0  0  0  0  0  0  0  0  0
  -90.0725   32.1450   -3.3548 N   0  0  0  0  0  0  0  0  0  0  0  0
  -90.5332   31.2575   -2.3317 C   0  0  0  0  0  0  0  0  0  0  0  0
  -91.6493   30.7509   -2.0807 O   0  0  0  0  0  0  0  0  0  0  0  0
  -89.2064   31.1940   -1.7295 C   0  0  0  0  0  0  0  0  0  0  0  0
  -88.5521   30.3934   -0.9053 C   0  0  0  0  0  0  0  0  0  0  0  0
  -87.1815   30.6599   -0.4591 C   0  0  0  0  0  0  0  0  0  0  0  0
  -86.3176   29.8800    0.1518 N   0  0  0  0  0  0  0  0  0  0  0  0
  -85.1386   30.3286    0.4838 C   0  0  0  0  0  0  0  0  0  0  0  0
  -84.1240   29.5968    1.1387 C   0  0  0  0  0  0  0  0  0  0  0  0
  -82.9404   30.1817    1.4245 C   0  0  0  0  0  0  0  0  0  0  0  0
  -82.6181   31.5058    1.1175 C   0  0  0  0  0  0  0  0  0  0  0  0
  -83.6110   32.2209    0.4754 C   0  0  0  0  0  0  0  0  0  0  0  0
  -84.8516   31.6327    0.1659 C   0  0  0  0  0  0  0  0  0  0  0  0
  -86.2960   32.1339   -0.5913 S   0  0  0  0  0  0  0  0  0  0  0  0
  -91.0917   33.9897   -6.5126 O   0  0  0  0  0  0  0  0  0  0  0  0
  -91.1742   33.3331   -5.2928 C   0  0  0  0  0  0  0  0  0  0  0  0
  -92.3385   33.1561   -4.8499 O   0  0  0  0  0  0  0  0  0  0  0  0
 19 20  1  0  0  0
 20 21  2  0  0  0
 20  1  1  0  0  0
  1  2  2  0  0  0
  2  3  1  0  0  0
  3  4  1  0  0  0
  4  5  1  0  0  0
  5  6  1  0  0  0
  6  7  2  0  0  0
  6  8  1  0  0  0
  8  9  2  0  0  0
  9 10  1  0  0  0
 10 11  2  0  0  0
 11 12  1  0  0  0
 12 13  2  0  0  0
 13 14  1  0  0  0
 14 15  2  0  0  0
 15 16  1  0  0  0
 16 17  2  0  0  0
 17 18  1  0  0  0
  5  1  1  0  0  0
 18 10  1  0  0  0
  8  4  1  0  0  0
 17 12  1  0  0  0
M  CHG 1  19  -1
M  END
> <minimizedAffinity>
-7.16669

> <CNNscore>
0.2355773896

> <CNNaffinity>
5.2151823044

> <CNN_VS>
1.2285790443

> <CNNaffinity_variance>
0.3068017662

$$$$
[H]C1=C(C(=O)[O-])N2C(=O)/C(=C(\[H])c3nc4c([H])c([H])c([H])c([H])c4s3)[C@@]2([H])S1


 21 24  0  0  0  0  0  0  0  0999 V2000
  -85.6809   31.0687    0.6658 C   0  0  0  0  0  0  0  0  0  0  0  0
  -86.6970   30.3011    0.3396 C   0  0  0  0  0  0  0  0  0  0  0  0
  -87.4328   31.1033   -1.1122 S   0  0  0  0  0  0  0  0  0  0  0  0
  -86.6979   32.7610   -0.6832 C   0  0  0  0  0  0  0  0  0  0  0  0
  -85.4453   32.1785   -0.1548 N   0  0  0  0  0  0  0  0  0  0  0  0
  -84.7877   33.2119   -0.8940 C   0  0  0  0  0  0  0  0  0  0  0  0
  -83.6507   33.7276   -0.8130 O   0  0  0  0  0  0  0  0  0  0  0  0
  -85.9546   33.4025   -1.7481 C   0  0  0  0  0  0  0  0  0  0  0  0
  -86.2154   33.9350   -2.9299 C   0  0  0  0  0  0  0  0  0  0  0  0
  -87.5666   33.9921   -3.4953 C   0  0  0  0  0  0  0  0  0  0  0  0
  -88.4737   34.9418   -3.4405 N   0  0  0  0  0  0  0  0  0  0  0  0
  -89.6391   34.7789   -4.0035 C   0  0  0  0  0  0  0  0  0  0  0  0
  -90.6946   35.7168   -4.0178 C   0  0  0  0  0  0  0  0  0  0  0  0
  -91.8561   35.4236   -4.6419 C   0  0  0  0  0  0  0  0  0  0  0  0
  -92.1176   34.2205   -5.3018 C   0  0  0  0  0  0  0  0  0  0  0  0
  -91.0836   33.3037   -5.2885 C   0  0  0  0  0  0  0  0  0  0  0  0
  -89.8638   33.5871   -4.6462 C   0  0  0  0  0  0  0  0  0  0  0  0
  -88.3844   32.7734   -4.4010 S   0  0  0  0  0  0  0  0  0  0  0  0
  -85.2651   30.0295    2.9249 O   0  0  0  0  0  0  0  0  0  0  0  0
  -84.8111   30.7431    1.8247 C   0  0  0  0  0  0  0  0  0  0  0  0
  -83.6052   31.0995    1.8696 O   0  0  0  0  0  0  0  0  0  0  0  0
 19 20  1  0  0  0
 20 21  2  0  0  0
 20  1  1  0  0  0
  1  2  2  0  0  0
  2  3  1  0  0  0
  3  4  1  0  0  0
  4  5  1  0  0  0
  5  6  1  0  0  0
  6  7  2  0  0  0
  6  8  1  0  0  0
  8  9  2  0  0  0
  9 10  1  0  0  0
 10 11  2  0  0  0
 11 12  1  0  0  0
 12 13  2  0  0  0
 13 14  1  0  0  0
 14 15  2  0  0  0
 15 16  1  0  0  0
 16 17  2  0  0  0
 17 18  1  0  0  0
  5  1  1  0  0  0
 18 10  1  0  0  0
  8  4  1  0  0  0
 17 12  1  0  0  0
M  CHG 1  19  -1
M  END
> <minimizedAffinity>
-6.61975

> <CNNscore>
0.2276483923

> <CNNaffinity>
5.2613534927

> <CNN_VS>
1.1977386475

> <CNNaffinity_variance>
0.0729441717

$$$$
[H]C1=C(C(=O)[O-])N2C(=O)/C(=C(\[H])c3nc4c([H])c([H])c([H])c([H])c4s3)[C@@]2([H])S1


 21 24  0  0  0  0  0  0  0  0999 V2000
  -86.5271   28.8490    0.3305 C   0  0  0  0  0  0  0  0  0  0  0  0
  -87.1570   28.4250   -0.7426 C   0  0  0  0  0  0  0  0  0  0  0  0
  -87.3774   29.9088   -1.7636 S   0  0  0  0  0  0  0  0  0  0  0  0
  -87.2097   31.0517   -0.3015 C   0  0  0  0  0  0  0  0  0  0  0  0
  -86.1940   30.2085    0.3653 N   0  0  0  0  0  0  0  0  0  0  0  0
  -85.5023   31.4364    0.6114 C   0  0  0  0  0  0  0  0  0  0  0  0
  -84.6169   31.7675    1.4309 O   0  0  0  0  0  0  0  0  0  0  0  0
  -86.2347   32.1120   -0.4537 C   0  0  0  0  0  0  0  0  0  0  0  0
  -86.0890   33.1981   -1.1936 C   0  0  0  0  0  0  0  0  0  0  0  0
  -87.0779   33.6197   -2.1901 C   0  0  0  0  0  0  0  0  0  0  0  0
  -86.9161   34.1995   -3.3586 N   0  0  0  0  0  0  0  0  0  0  0  0
  -87.9485   34.5139   -4.0914 C   0  0  0  0  0  0  0  0  0  0  0  0
  -87.9110   35.1352   -5.3588 C   0  0  0  0  0  0  0  0  0  0  0  0
  -89.0589   35.4055   -6.0177 C   0  0  0  0  0  0  0  0  0  0  0  0
  -90.3362   35.1135   -5.5336 C   0  0  0  0  0  0  0  0  0  0  0  0
  -90.3720   34.5042   -4.2938 C   0  0  0  0  0  0  0  0  0  0  0  0
  -89.1895   34.2113   -3.5889 C   0  0  0  0  0  0  0  0  0  0  0  0
  -88.7951   33.4930   -2.0925 S   0  0  0  0  0  0  0  0  0  0  0  0
  -86.9463   26.8305    1.7819 O   0  0  0  0  0  0  0  0  0  0  0  0
  -86.1584   27.9159    1.4256 C   0  0  0  0  0  0  0  0  0  0  0  0
  -85.1019   28.0614    2.0931 O   0  0  0  0  0  0  0  0  0  0  0  0
 19 20  1  0  0  0
 20 21  2  0  0  0
 20  1  1  0  0  0
  1  2  2  0  0  0
  2  3  1  0  0  0
  3  4  1  0  0  0
  4  5  1  0  0  0
  5  6  1  0  0  0
  6  7  2  0  0  0
  6  8  1  0  0  0
  8  9  2  0  0  0
  9 10  1  0  0  0
 10 11  2  0  0  0
 11 12  1  0  0  0
 12 13  2  0  0  0
 13 14  1  0  0  0
 14 15  2  0  0  0
 15 16  1  0  0  0
 16 17  2  0  0  0
 17 18  1  0  0  0
  5  1  1  0  0  0
 18 10  1  0  0  0
  8  4  1  0  0  0
 17 12  1  0  0  0
M  CHG 1  19  -1
M  END
> <minimizedAffinity>
-6.70569

> <CNNscore>
0.2201827317

> <CNNaffinity>
5.3649859428

> <CNN_VS>
1.1812772751

> <CNNaffinity_variance>
0.1688446999

$$$$
[H]C1=C(C(=O)[O-])N2C(=O)/C(=C(\[H])c3nc4c([H])c([H])c([H])c([H])c4s3)[C@@]2([H])S1


 21 24  0  0  0  0  0  0  0  0999 V2000
  -85.8913   31.3000    0.3418 C   0  0  0  0  0  0  0  0  0  0  0  0
  -84.9547   32.1945    0.1167 C   0  0  0  0  0  0  0  0  0  0  0  0
  -85.7089   33.3692   -1.0425 S   0  0  0  0  0  0  0  0  0  0  0  0
  -86.9670   32.1255   -1.6277 C   0  0  0  0  0  0  0  0  0  0  0  0
  -87.1219   31.5081   -0.2927 N   0  0  0  0  0  0  0  0  0  0  0  0
  -88.5259   31.5455   -0.5649 C   0  0  0  0  0  0  0  0  0  0  0  0
  -89.5036   30.9247   -0.0915 O   0  0  0  0  0  0  0  0  0  0  0  0
  -88.3443   32.5717   -1.5852 C   0  0  0  0  0  0  0  0  0  0  0  0
  -89.0930   33.4709   -2.2011 C   0  0  0  0  0  0  0  0  0  0  0  0
  -88.5733   34.3553   -3.2482 C   0  0  0  0  0  0  0  0  0  0  0  0
  -87.8849   35.4713   -3.1567 N   0  0  0  0  0  0  0  0  0  0  0  0
  -87.5339   36.1237   -4.2303 C   0  0  0  0  0  0  0  0  0  0  0  0
  -86.7962   37.3272   -4.2687 C   0  0  0  0  0  0  0  0  0  0  0  0
  -86.4947   37.9023   -5.4532 C   0  0  0  0  0  0  0  0  0  0  0  0
  -86.8663   37.3899   -6.6984 C   0  0  0  0  0  0  0  0  0  0  0  0
  -87.5870   36.2115   -6.6600 C   0  0  0  0  0  0  0  0  0  0  0  0
  -87.9119   35.5929   -5.4383 C   0  0  0  0  0  0  0  0  0  0  0  0
  -88.7496   34.1872   -4.9555 S   0  0  0  0  0  0  0  0  0  0  0  0
  -84.7032   30.1812    2.2637 O   0  0  0  0  0  0  0  0  0  0  0  0
  -85.6564   30.1529    1.2555 C   0  0  0  0  0  0  0  0  0  0  0  0
  -86.3165   29.0857    1.1632 O   0  0  0  0  0  0  0  0  0  0  0  0
 19 20  1  0  0  0
 20 21  2  0  0  0
 20  1  1  0  0  0
  1  2  2  0  0  0
  2  3  1  0  0  0
  3  4  1  0  0  0
  4  5  1  0  0  0
  5  6  1  0  0  0
  6  7  2  0  0  0
  6  8  1  0  0  0
  8  9  2  0  0  0
  9 10  1  0  0  0
 10 11  2  0  0  0
 11 12  1  0  0  0
 12 13  2  0  0  0
 13 14  1  0  0  0
 14 15  2  0  0  0
 15 16  1  0  0  0
 16 17  2  0  0  0
 17 18  1  0  0  0
  5  1  1  0  0  0
 18 10  1  0  0  0
  8  4  1  0  0  0
 17 12  1  0  0  0
M  CHG 1  19  -1
M  END
> <minimizedAffinity>
-6.65030

> <CNNscore>
0.2105823457

> <CNNaffinity>
5.1651039124

> <CNN_VS>
1.0876797438

> <CNNaffinity_variance>
0.1971484125

$$$$
[H]C1=C(C(=O)[O-])N2C(=O)/C(=C(\[H])c3nc4c([H])c([H])c([H])c([H])c4s3)[C@@]2([H])S1


 21 24  0  0  0  0  0  0  0  0999 V2000
  -90.5787   27.0164   -1.7354 C   0  0  0  0  0  0  0  0  0  0  0  0
  -89.6800   27.3715   -2.6266 C   0  0  0  0  0  0  0  0  0  0  0  0
  -88.1966   27.7586   -1.6558 S   0  0  0  0  0  0  0  0  0  0  0  0
  -89.1806   28.0648   -0.1033 C   0  0  0  0  0  0  0  0  0  0  0  0
  -90.1627   26.9991   -0.3986 N   0  0  0  0  0  0  0  0  0  0  0  0
  -90.0131   26.6384    0.9777 C   0  0  0  0  0  0  0  0  0  0  0  0
  -90.7233   25.9789    1.7689 O   0  0  0  0  0  0  0  0  0  0  0  0
  -88.7348   27.3350    1.0658 C   0  0  0  0  0  0  0  0  0  0  0  0
  -87.6759   27.3234    1.8576 C   0  0  0  0  0  0  0  0  0  0  0  0
  -86.5330   28.2218    1.6699 C   0  0  0  0  0  0  0  0  0  0  0  0
  -86.4700   29.4190    1.1309 N   0  0  0  0  0  0  0  0  0  0  0  0
  -85.3302   30.0473    1.0428 C   0  0  0  0  0  0  0  0  0  0  0  0
  -85.1282   31.3309    0.4901 C   0  0  0  0  0  0  0  0  0  0  0  0
  -83.8908   31.8720    0.4621 C   0  0  0  0  0  0  0  0  0  0  0  0
  -82.7423   31.2453    0.9513 C   0  0  0  0  0  0  0  0  0  0  0  0
  -82.9410   29.9897    1.4933 C   0  0  0  0  0  0  0  0  0  0  0  0
  -84.2210   29.4059    1.5351 C   0  0  0  0  0  0  0  0  0  0  0  0
  -84.8859   27.9377    2.0946 S   0  0  0  0  0  0  0  0  0  0  0  0
  -93.0508   27.4481   -1.9783 O   0  0  0  0  0  0  0  0  0  0  0  0
  -91.9505   26.6183   -2.1421 C   0  0  0  0  0  0  0  0  0  0  0  0
  -92.1891   25.4979   -2.6624 O   0  0  0  0  0  0  0  0  0  0  0  0
 19 20  1  0  0  0
 20 21  2  0  0  0
 20  1  1  0  0  0
  1  2  2  0  0  0
  2  3  1  0  0  0
  3  4  1  0  0  0
  4  5  1  0  0  0
  5  6  1  0  0  0
  6  7  2  0  0  0
  6  8  1  0  0  0
  8  9  2  0  0  0
  9 10  1  0  0  0
 10 11  2  0  0  0
 11 12  1  0  0  0
 12 13  2  0  0  0
 13 14  1  0  0  0
 14 15  2  0  0  0
 15 16  1  0  0  0
 16 17  2  0  0  0
 17 18  1  0  0  0
  5  1  1  0  0  0
 18 10  1  0  0  0
  8  4  1  0  0  0
 17 12  1  0  0  0
M  CHG 1  19  -1
M  END
> <minimizedAffinity>
-7.21155

> <CNNscore>
0.2003125846

> <CNNaffinity>
5.4063611031

> <CNN_VS>
1.0829621553

> <CNNaffinity_variance>
0.3224664927

$$$$
[H]C1=C(C(=O)[O-])N2C(=O)/C(=C(\[H])c3nc4c([H])c([H])c([H])c([H])c4s3)[C@@]2([H])S1


 21 24  0  0  0  0  0  0  0  0999 V2000
  -89.9450   26.1786    0.8559 C   0  0  0  0  0  0  0  0  0  0  0  0
  -88.9694   26.0393    1.7259 C   0  0  0  0  0  0  0  0  0  0  0  0
  -87.9958   27.5630    1.5738 S   0  0  0  0  0  0  0  0  0  0  0  0
  -88.6266   27.9035   -0.1461 C   0  0  0  0  0  0  0  0  0  0  0  0
  -89.9805   27.3823    0.1417 N   0  0  0  0  0  0  0  0  0  0  0  0
  -90.4497   28.5441   -0.5488 C   0  0  0  0  0  0  0  0  0  0  0  0
  -91.5378   28.8299   -1.0962 O   0  0  0  0  0  0  0  0  0  0  0  0
  -89.1763   29.2276   -0.3527 C   0  0  0  0  0  0  0  0  0  0  0  0
  -88.7288   30.4715   -0.3775 C   0  0  0  0  0  0  0  0  0  0  0  0
  -87.3197   30.8139   -0.1632 C   0  0  0  0  0  0  0  0  0  0  0  0
  -86.3821   30.1823    0.5074 N   0  0  0  0  0  0  0  0  0  0  0  0
  -85.1786   30.6785    0.5915 C   0  0  0  0  0  0  0  0  0  0  0  0
  -84.0868   30.1018    1.2764 C   0  0  0  0  0  0  0  0  0  0  0  0
  -82.8857   30.7199    1.2841 C   0  0  0  0  0  0  0  0  0  0  0  0
  -82.6172   31.9341    0.6478 C   0  0  0  0  0  0  0  0  0  0  0  0
  -83.6858   32.4972   -0.0234 C   0  0  0  0  0  0  0  0  0  0  0  0
  -84.9461   31.8712   -0.0469 C   0  0  0  0  0  0  0  0  0  0  0  0
  -86.4736   32.2061   -0.7290 S   0  0  0  0  0  0  0  0  0  0  0  0
  -91.4676   24.3712    1.7344 O   0  0  0  0  0  0  0  0  0  0  0  0
  -90.9734   25.1221    0.6771 C   0  0  0  0  0  0  0  0  0  0  0  0
  -91.4560   24.8509   -0.4528 O   0  0  0  0  0  0  0  0  0  0  0  0
 19 20  1  0  0  0
 20 21  2  0  0  0
 20  1  1  0  0  0
  1  2  2  0  0  0
  2  3  1  0  0  0
  3  4  1  0  0  0
  4  5  1  0  0  0
  5  6  1  0  0  0
  6  7  2  0  0  0
  6  8  1  0  0  0
  8  9  2  0  0  0
  9 10  1  0  0  0
 10 11  2  0  0  0
 11 12  1  0  0  0
 12 13  2  0  0  0
 13 14  1  0  0  0
 14 15  2  0  0  0
 15 16  1  0  0  0
 16 17  2  0  0  0
 17 18  1  0  0  0
  5  1  1  0  0  0
 18 10  1  0  0  0
  8  4  1  0  0  0
 17 12  1  0  0  0
M  CHG 1  19  -1
M  END
> <minimizedAffinity>
-7.49577

> <CNNscore>
0.1705632508

> <CNNaffinity>
5.3842043877

> <CNN_VS>
0.9183474183

> <CNNaffinity_variance>
0.2268100232

$$$$
[H]OC(c1c([H])c([H])c(-c2c([H])c([H])c(S(=O)(=O)C([H])([H])[H])c([H])c2[H])c([H])c1[H])(C(F)(F)F)C(F)(F)F


 27 28  0  0  0  0  0  0  0  0999 V2000
  -87.1235   32.8991   -1.4304 C   0  0  0  0  0  0  0  0  0  0  0  0
  -88.5079   32.8925   -1.5531 C   0  0  0  0  0  0  0  0  0  0  0  0
  -89.1525   33.7769   -2.4183 C   0  0  0  0  0  0  0  0  0  0  0  0
  -88.4523   34.6861   -3.1813 C   0  0  0  0  0  0  0  0  0  0  0  0
  -87.0771   34.6886   -3.0559 C   0  0  0  0  0  0  0  0  0  0  0  0
  -86.4464   33.8083   -2.1956 C   0  0  0  0  0  0  0  0  0  0  0  0
  -85.3319   30.0351    1.2062 C   0  0  0  0  0  0  0  0  0  0  0  0
  -86.5055   29.7682    0.5024 C   0  0  0  0  0  0  0  0  0  0  0  0
  -87.0644   30.7010   -0.3399 C   0  0  0  0  0  0  0  0  0  0  0  0
  -86.4780   31.9583   -0.5272 C   0  0  0  0  0  0  0  0  0  0  0  0
  -85.3327   32.2156    0.1597 C   0  0  0  0  0  0  0  0  0  0  0  0
  -84.7669   31.2818    1.0091 C   0  0  0  0  0  0  0  0  0  0  0  0
  -82.8346   28.9933    2.0704 C   0  0  0  0  0  0  0  0  0  0  0  0
  -84.6125   28.8381    2.2678 S   0  0  0  0  0  0  0  0  0  0  0  0
  -84.9417   29.0386    3.6946 O   0  0  0  0  0  0  0  0  0  0  0  0
  -85.0641   27.4684    1.8375 O   0  0  0  0  0  0  0  0  0  0  0  0
  -89.1653   35.5915   -4.0639 C   0  0  0  0  0  0  0  0  0  0  0  0
  -90.5380   35.5021   -3.7249 O   0  0  0  0  0  0  0  0  0  0  0  0
  -90.6086   35.6223   -2.7409 H   0  0  0  0  0  0  0  0  0  0  0  0
  -88.8112   37.0420   -3.9609 C   0  0  0  0  0  0  0  0  0  0  0  0
  -87.6978   37.3334   -4.7488 F   0  0  0  0  0  0  0  0  0  0  0  0
  -88.3096   37.2221   -2.6484 F   0  0  0  0  0  0  0  0  0  0  0  0
  -89.8355   37.9191   -4.0768 F   0  0  0  0  0  0  0  0  0  0  0  0
  -89.0523   35.1436   -5.5032 C   0  0  0  0  0  0  0  0  0  0  0  0
  -89.6604   36.0471   -6.3679 F   0  0  0  0  0  0  0  0  0  0  0  0
  -89.6911   33.9370   -5.7433 F   0  0  0  0  0  0  0  0  0  0  0  0
  -87.7337   35.0388   -5.8717 F   0  0  0  0  0  0  0  0  0  0  0  0
 13 14  1  0  0  0
 14 15  2  0  0  0
 14 16  2  0  0  0
 14  7  1  0  0  0
  7  8  2  0  0  0
  8  9  1  0  0  0
  9 10  2  0  0  0
 10 11  1  0  0  0
 11 12  2  0  0  0
 10  1  1  0  0  0
  1  2  2  0  0  0
  2  3  1  0  0  0
  3  4  2  0  0  0
  4  5  1  0  0  0
  5  6  2  0  0  0
  4 17  1  0  0  0
 17 18  1  0  0  0
 17 20  1  0  0  0
 20 21  1  0  0  0
 20 22  1  0  0  0
 20 23  1  0  0  0
 17 24  1  0  0  0
 24 25  1  0  0  0
 24 26  1  0  0  0
 24 27  1  0  0  0
 12  7  1  0  0  0
  6  1  1  0  0  0
 18 19  1  0  0  0
M  END
> <minimizedAffinity>
-8.14796

> <CNNscore>
0.6296572089

> <CNNaffinity>
5.5921964645

> <CNN_VS>
3.5211668015

> <CNNaffinity_variance>
0.1743592322

$$$$
[H]OC(c1c([H])c([H])c(-c2c([H])c([H])c(S(=O)(=O)C([H])([H])[H])c([H])c2[H])c([H])c1[H])(C(F)(F)F)C(F)(F)F


 27 28  0  0  0  0  0  0  0  0999 V2000
  -86.8907   32.4981   -1.0467 C   0  0  0  0  0  0  0  0  0  0  0  0
  -87.1750   31.1397   -0.9722 C   0  0  0  0  0  0  0  0  0  0  0  0
  -86.4219   30.2961   -0.1553 C   0  0  0  0  0  0  0  0  0  0  0  0
  -85.3742   30.7677    0.6055 C   0  0  0  0  0  0  0  0  0  0  0  0
  -85.0958   32.1181    0.5281 C   0  0  0  0  0  0  0  0  0  0  0  0
  -85.8478   32.9470   -0.2845 C   0  0  0  0  0  0  0  0  0  0  0  0
  -89.1579   35.1104   -3.5766 C   0  0  0  0  0  0  0  0  0  0  0  0
  -87.8051   35.3187   -3.3115 C   0  0  0  0  0  0  0  0  0  0  0  0
  -87.0947   34.4679   -2.4969 C   0  0  0  0  0  0  0  0  0  0  0  0
  -87.6998   33.3555   -1.9000 C   0  0  0  0  0  0  0  0  0  0  0  0
  -89.0192   33.1541   -2.1612 C   0  0  0  0  0  0  0  0  0  0  0  0
  -89.7388   34.0072   -2.9785 C   0  0  0  0  0  0  0  0  0  0  0  0
  -88.9884   37.5960   -4.9411 C   0  0  0  0  0  0  0  0  0  0  0  0
  -90.0579   36.1881   -4.6283 S   0  0  0  0  0  0  0  0  0  0  0  0
  -90.4206   35.5815   -5.9263 O   0  0  0  0  0  0  0  0  0  0  0  0
  -91.3074   36.6341   -3.9176 O   0  0  0  0  0  0  0  0  0  0  0  0
  -84.6138   29.8523    1.4369 C   0  0  0  0  0  0  0  0  0  0  0  0
  -84.7579   28.5626    0.8685 O   0  0  0  0  0  0  0  0  0  0  0  0
  -84.5416   28.6391   -0.0985 H   0  0  0  0  0  0  0  0  0  0  0  0
  -83.1403   30.0983    1.5269 C   0  0  0  0  0  0  0  0  0  0  0  0
  -82.8844   31.3567    2.0710 F   0  0  0  0  0  0  0  0  0  0  0  0
  -82.6943   30.2491    0.1908 F   0  0  0  0  0  0  0  0  0  0  0  0
  -82.3948   29.0931    2.0424 F   0  0  0  0  0  0  0  0  0  0  0  0
  -85.1998   29.7722    2.8280 C   0  0  0  0  0  0  0  0  0  0  0  0
  -86.5046   29.2920    2.8051 F   0  0  0  0  0  0  0  0  0  0  0  0
  -85.2873   31.0092    3.4474 F   0  0  0  0  0  0  0  0  0  0  0  0
  -84.4586   28.9242    3.6135 F   0  0  0  0  0  0  0  0  0  0  0  0
 13 14  1  0  0  0
 14 15  2  0  0  0
 14 16  2  0  0  0
 14  7  1  0  0  0
  7  8  2  0  0  0
  8  9  1  0  0  0
  9 10  2  0  0  0
 10 11  1  0  0  0
 11 12  2  0  0  0
 10  1  1  0  0  0
  1  2  2  0  0  0
  2  3  1  0  0  0
  3  4  2  0  0  0
  4  5  1  0  0  0
  5  6  2  0  0  0
  4 17  1  0  0  0
 17 18  1  0  0  0
 17 20  1  0  0  0
 20 21  1  0  0  0
 20 22  1  0  0  0
 20 23  1  0  0  0
 17 24  1  0  0  0
 24 25  1  0  0  0
 24 26  1  0  0  0
 24 27  1  0  0  0
 12  7  1  0  0  0
  6  1  1  0  0  0
 18 19  1  0  0  0
M  END
> <minimizedAffinity>
-8.84238

> <CNNscore>
0.3375278115

> <CNNaffinity>
5.2987189293

> <CNN_VS>
1.7884650230

> <CNNaffinity_variance>
0.3846879601

$$$$
[H]OC(c1c([H])c([H])c(-c2c([H])c([H])c(S(=O)(=O)C([H])([H])[H])c([H])c2[H])c([H])c1[H])(C(F)(F)F)C(F)(F)F


 27 28  0  0  0  0  0  0  0  0999 V2000
  -88.9720   29.7443   -0.1429 C   0  0  0  0  0  0  0  0  0  0  0  0
  -89.8096   30.8534   -0.1513 C   0  0  0  0  0  0  0  0  0  0  0  0
  -89.5778   31.9169   -1.0239 C   0  0  0  0  0  0  0  0  0  0  0  0
  -88.5196   31.9144   -1.9065 C   0  0  0  0  0  0  0  0  0  0  0  0
  -87.6905   30.8101   -1.8945 C   0  0  0  0  0  0  0  0  0  0  0  0
  -87.9277   29.7603   -1.0259 C   0  0  0  0  0  0  0  0  0  0  0  0
  -89.9048   26.5665    2.5766 C   0  0  0  0  0  0  0  0  0  0  0  0
  -90.8200   27.5697    2.2604 C   0  0  0  0  0  0  0  0  0  0  0  0
  -90.5013   28.5809    1.3843 C   0  0  0  0  0  0  0  0  0  0  0  0
  -89.2443   28.6456    0.7715 C   0  0  0  0  0  0  0  0  0  0  0  0
  -88.3539   27.6652    1.0809 C   0  0  0  0  0  0  0  0  0  0  0  0
  -88.6685   26.6466    1.9624 C   0  0  0  0  0  0  0  0  0  0  0  0
  -91.1253   24.0043    2.6954 C   0  0  0  0  0  0  0  0  0  0  0  0
  -90.3190   25.2691    3.6823 S   0  0  0  0  0  0  0  0  0  0  0  0
  -89.1474   24.6631    4.3488 O   0  0  0  0  0  0  0  0  0  0  0  0
  -91.2688   25.7982    4.7231 O   0  0  0  0  0  0  0  0  0  0  0  0
  -88.3132   33.0457   -2.7925 C   0  0  0  0  0  0  0  0  0  0  0  0
  -89.4430   33.8892   -2.6540 O   0  0  0  0  0  0  0  0  0  0  0  0
  -89.5772   34.0477   -1.6821 H   0  0  0  0  0  0  0  0  0  0  0  0
  -87.1219   33.9066   -2.5107 C   0  0  0  0  0  0  0  0  0  0  0  0
  -85.9619   33.3223   -3.0189 F   0  0  0  0  0  0  0  0  0  0  0  0
  -86.9137   33.8272   -1.1117 F   0  0  0  0  0  0  0  0  0  0  0  0
  -87.2587   35.2262   -2.7785 F   0  0  0  0  0  0  0  0  0  0  0  0
  -88.2874   32.6026   -4.2375 C   0  0  0  0  0  0  0  0  0  0  0  0
  -87.2263   31.7394   -4.4876 F   0  0  0  0  0  0  0  0  0  0  0  0
  -88.1045   33.6556   -5.1203 F   0  0  0  0  0  0  0  0  0  0  0  0
  -89.4466   31.9399   -4.5576 F   0  0  0  0  0  0  0  0  0  0  0  0
 13 14  1  0  0  0
 14 15  2  0  0  0
 14 16  2  0  0  0
 14  7  1  0  0  0
  7  8  2  0  0  0
  8  9  1  0  0  0
  9 10  2  0  0  0
 10 11  1  0  0  0
 11 12  2  0  0  0
 10  1  1  0  0  0
  1  2  2  0  0  0
  2  3  1  0  0  0
  3  4  2  0  0  0
  4  5  1  0  0  0
  5  6  2  0  0  0
  4 17  1  0  0  0
 17 18  1  0  0  0
 17 20  1  0  0  0
 20 21  1  0  0  0
 20 22  1  0  0  0
 20 23  1  0  0  0
 17 24  1  0  0  0
 24 25  1  0  0  0
 24 26  1  0  0  0
 24 27  1  0  0  0
 12  7  1  0  0  0
  6  1  1  0  0  0
 18 19  1  0  0  0
M  END
> <minimizedAffinity>
-7.84319

> <CNNscore>
0.2046904415

> <CNNaffinity>
5.1531763077

> <CNN_VS>
1.0548058748

> <CNNaffinity_variance>
0.1882130802

$$$$
[H]OC(c1c([H])c([H])c(-c2c([H])c([H])c(S(=O)(=O)C([H])([H])[H])c([H])c2[H])c([H])c1[H])(C(F)(F)F)C(F)(F)F


 27 28  0  0  0  0  0  0  0  0999 V2000
  -87.0908   32.0316   -1.4318 C   0  0  0  0  0  0  0  0  0  0  0  0
  -86.2461   32.8163   -0.6555 C   0  0  0  0  0  0  0  0  0  0  0  0
  -85.5033   32.2544    0.3831 C   0  0  0  0  0  0  0  0  0  0  0  0
  -85.5737   30.9109    0.6817 C   0  0  0  0  0  0  0  0  0  0  0  0
  -86.4142   30.1356   -0.0925 C   0  0  0  0  0  0  0  0  0  0  0  0
  -87.1469   30.7012   -1.1202 C   0  0  0  0  0  0  0  0  0  0  0  0
  -89.3710   33.9277   -4.5253 C   0  0  0  0  0  0  0  0  0  0  0  0
  -89.3773   34.3847   -3.2081 C   0  0  0  0  0  0  0  0  0  0  0  0
  -88.6376   33.7623   -2.2296 C   0  0  0  0  0  0  0  0  0  0  0  0
  -87.8458   32.6436   -2.5149 C   0  0  0  0  0  0  0  0  0  0  0  0
  -87.8406   32.2007   -3.8007 C   0  0  0  0  0  0  0  0  0  0  0  0
  -88.5836   32.8219   -4.7885 C   0  0  0  0  0  0  0  0  0  0  0  0
  -91.4741   35.7950   -4.9239 C   0  0  0  0  0  0  0  0  0  0  0  0
  -90.3029   34.7327   -5.7747 S   0  0  0  0  0  0  0  0  0  0  0  0
  -89.4844   35.5702   -6.6763 O   0  0  0  0  0  0  0  0  0  0  0  0
  -91.0358   33.6957   -6.5826 O   0  0  0  0  0  0  0  0  0  0  0  0
  -84.7872   30.3704    1.7755 C   0  0  0  0  0  0  0  0  0  0  0  0
  -84.9785   31.2302    2.8851 O   0  0  0  0  0  0  0  0  0  0  0  0
  -85.9582   31.3513    3.0009 H   0  0  0  0  0  0  0  0  0  0  0  0
  -85.1562   28.9999    2.2505 C   0  0  0  0  0  0  0  0  0  0  0  0
  -86.5057   28.9474    2.5992 F   0  0  0  0  0  0  0  0  0  0  0  0
  -84.5130   28.8419    3.5028 F   0  0  0  0  0  0  0  0  0  0  0  0
  -84.7237   27.9657    1.4922 F   0  0  0  0  0  0  0  0  0  0  0  0
  -83.3111   30.4141    1.4528 C   0  0  0  0  0  0  0  0  0  0  0  0
  -83.0753   30.1558    0.1069 F   0  0  0  0  0  0  0  0  0  0  0  0
  -82.5826   29.4503    2.1324 F   0  0  0  0  0  0  0  0  0  0  0  0
  -82.7942   31.6545    1.7347 F   0  0  0  0  0  0  0  0  0  0  0  0
 13 14  1  0  0  0
 14 15  2  0  0  0
 14 16  2  0  0  0
 14  7  1  0  0  0
  7  8  2  0  0  0
  8  9  1  0  0  0
  9 10  2  0  0  0
 10 11  1  0  0  0
 11 12  2  0  0  0
 10  1  1  0  0  0
  1  2  2  0  0  0
  2  3  1  0  0  0
  3  4  2  0  0  0
  4  5  1  0  0  0
  5  6  2  0  0  0
  4 17  1  0  0  0
 17 18  1  0  0  0
 17 20  1  0  0  0
 20 21  1  0  0  0
 20 22  1  0  0  0
 20 23  1  0  0  0
 17 24  1  0  0  0
 24 25  1  0  0  0
 24 26  1  0  0  0
 24 27  1  0  0  0
 12  7  1  0  0  0
  6  1  1  0  0  0
 18 19  1  0  0  0
M  END
> <minimizedAffinity>
-8.87443

> <CNNscore>
0.2029897124

> <CNNaffinity>
4.9929924011

> <CNN_VS>
1.0135260820

> <CNNaffinity_variance>
0.5529987812

$$$$
[H]OC(c1c([H])c([H])c(-c2c([H])c([H])c(S(=O)(=O)C([H])([H])[H])c([H])c2[H])c([H])c1[H])(C(F)(F)F)C(F)(F)F


 27 28  0  0  0  0  0  0  0  0999 V2000
  -87.3847   31.7575   -1.3869 C   0  0  0  0  0  0  0  0  0  0  0  0
  -86.4729   32.4920   -0.6379 C   0  0  0  0  0  0  0  0  0  0  0  0
  -85.6059   31.8587    0.2530 C   0  0  0  0  0  0  0  0  0  0  0  0
  -85.6155   30.4919    0.4276 C   0  0  0  0  0  0  0  0  0  0  0  0
  -86.5232   29.7667   -0.3188 C   0  0  0  0  0  0  0  0  0  0  0  0
  -87.3790   30.4028   -1.1997 C   0  0  0  0  0  0  0  0  0  0  0  0
  -90.0094   33.6545   -4.1935 C   0  0  0  0  0  0  0  0  0  0  0  0
  -89.7328   32.2887   -4.2373 C   0  0  0  0  0  0  0  0  0  0  0  0
  -88.8877   31.6986   -3.3265 C   0  0  0  0  0  0  0  0  0  0  0  0
  -88.2699   32.4443   -2.3155 C   0  0  0  0  0  0  0  0  0  0  0  0
  -88.5423   33.7761   -2.2745 C   0  0  0  0  0  0  0  0  0  0  0  0
  -89.3902   34.3751   -3.1887 C   0  0  0  0  0  0  0  0  0  0  0  0
  -90.6429   36.1369   -5.4204 C   0  0  0  0  0  0  0  0  0  0  0  0
  -91.0997   34.4020   -5.3467 S   0  0  0  0  0  0  0  0  0  0  0  0
  -90.9995   33.8360   -6.7083 O   0  0  0  0  0  0  0  0  0  0  0  0
  -92.5124   34.2587   -4.8477 O   0  0  0  0  0  0  0  0  0  0  0  0
  -84.6993   29.8761    1.3703 C   0  0  0  0  0  0  0  0  0  0  0  0
  -84.5400   28.5268    0.9689 O   0  0  0  0  0  0  0  0  0  0  0  0
  -84.3158   28.5301    0.0006 H   0  0  0  0  0  0  0  0  0  0  0  0
  -83.3188   30.4508    1.4330 C   0  0  0  0  0  0  0  0  0  0  0  0
  -82.7513   30.5065    0.1601 F   0  0  0  0  0  0  0  0  0  0  0  0
  -82.5242   29.4706    2.0768 F   0  0  0  0  0  0  0  0  0  0  0  0
  -83.1701   31.5749    2.1720 F   0  0  0  0  0  0  0  0  0  0  0  0
  -85.2961   29.8395    2.7586 C   0  0  0  0  0  0  0  0  0  0  0  0
  -84.5478   29.0390    3.6147 F   0  0  0  0  0  0  0  0  0  0  0  0
  -86.5695   29.2923    2.7829 F   0  0  0  0  0  0  0  0  0  0  0  0
  -85.3355   31.1016    3.2980 F   0  0  0  0  0  0  0  0  0  0  0  0
 13 14  1  0  0  0
 14 15  2  0  0  0
 14 16  2  0  0  0
 14  7  1  0  0  0
  7  8  2  0  0  0
  8  9  1  0  0  0
  9 10  2  0  0  0
 10 11  1  0  0  0
 11 12  2  0  0  0
 10  1  1  0  0  0
  1  2  2  0  0  0
  2  3  1  0  0  0
  3  4  2  0  0  0
  4  5  1  0  0  0
  5  6  2  0  0  0
  4 17  1  0  0  0
 17 18  1  0  0  0
 17 20  1  0  0  0
 20 21  1  0  0  0
 20 22  1  0  0  0
 20 23  1  0  0  0
 17 24  1  0  0  0
 24 25  1  0  0  0
 24 26  1  0  0  0
 24 27  1  0  0  0
 12  7  1  0  0  0
  6  1  1  0  0  0
 18 19  1  0  0  0
M  END
> <minimizedAffinity>
-8.38488

> <CNNscore>
0.1923755109

> <CNNaffinity>
5.0667567253

> <CNN_VS>
0.9747199416

> <CNNaffinity_variance>
0.3799347878

$$$$
[H]OC(c1c([H])c([H])c(-c2c([H])c([H])c(S(=O)(=O)C([H])([H])[H])c([H])c2[H])c([H])c1[H])(C(F)(F)F)C(F)(F)F


 27 28  0  0  0  0  0  0  0  0999 V2000
  -88.2016   29.2237   -1.1068 C   0  0  0  0  0  0  0  0  0  0  0  0
  -88.1497   30.5089   -0.5804 C   0  0  0  0  0  0  0  0  0  0  0  0
  -86.9699   31.0070   -0.0271 C   0  0  0  0  0  0  0  0  0  0  0  0
  -85.8165   30.2545    0.0213 C   0  0  0  0  0  0  0  0  0  0  0  0
  -85.8732   28.9783   -0.5032 C   0  0  0  0  0  0  0  0  0  0  0  0
  -87.0472   28.4927   -1.0497 C   0  0  0  0  0  0  0  0  0  0  0  0
  -91.9267   27.9017   -2.7622 C   0  0  0  0  0  0  0  0  0  0  0  0
  -91.7963   29.1223   -2.1011 C   0  0  0  0  0  0  0  0  0  0  0  0
  -90.5912   29.5288   -1.5773 C   0  0  0  0  0  0  0  0  0  0  0  0
  -89.4436   28.7346   -1.6864 C   0  0  0  0  0  0  0  0  0  0  0  0
  -89.5735   27.5450   -2.3327 C   0  0  0  0  0  0  0  0  0  0  0  0
  -90.7832   27.1305   -2.8603 C   0  0  0  0  0  0  0  0  0  0  0  0
  -93.3245   25.6246   -3.7266 C   0  0  0  0  0  0  0  0  0  0  0  0
  -93.4612   27.3924   -3.4432 S   0  0  0  0  0  0  0  0  0  0  0  0
  -94.6138   27.6330   -2.5499 O   0  0  0  0  0  0  0  0  0  0  0  0
  -93.6799   28.1111   -4.7474 O   0  0  0  0  0  0  0  0  0  0  0  0
  -84.6130   30.8115    0.6118 C   0  0  0  0  0  0  0  0  0  0  0  0
  -83.5188   30.0856    0.0799 O   0  0  0  0  0  0  0  0  0  0  0  0
  -83.6200   30.0791   -0.9088 H   0  0  0  0  0  0  0  0  0  0  0  0
  -84.3303   32.2518    0.3199 C   0  0  0  0  0  0  0  0  0  0  0  0
  -85.4335   33.0436    0.6381 F   0  0  0  0  0  0  0  0  0  0  0  0
  -84.2805   32.3544   -1.0922 F   0  0  0  0  0  0  0  0  0  0  0  0
  -83.1417   32.7301    0.7562 F   0  0  0  0  0  0  0  0  0  0  0  0
  -84.5889   30.5834    2.1059 C   0  0  0  0  0  0  0  0  0  0  0  0
  -84.5895   31.7851    2.8056 F   0  0  0  0  0  0  0  0  0  0  0  0
  -83.4458   29.9250    2.5317 F   0  0  0  0  0  0  0  0  0  0  0  0
  -85.6948   29.8718    2.5012 F   0  0  0  0  0  0  0  0  0  0  0  0
 13 14  1  0  0  0
 14 15  2  0  0  0
 14 16  2  0  0  0
 14  7  1  0  0  0
  7  8  2  0  0  0
  8  9  1  0  0  0
  9 10  2  0  0  0
 10 11  1  0  0  0
 11 12  2  0  0  0
 10  1  1  0  0  0
  1  2  2  0  0  0
  2  3  1  0  0  0
  3  4  2  0  0  0
  4  5  1  0  0  0
  5  6  2  0  0  0
  4 17  1  0  0  0
 17 18  1  0  0  0
 17 20  1  0  0  0
 20 21  1  0  0  0
 20 22  1  0  0  0
 20 23  1  0  0  0
 17 24  1  0  0  0
 24 25  1  0  0  0
 24 26  1  0  0  0
 24 27  1  0  0  0
 12  7  1  0  0  0
  6  1  1  0  0  0
 18 19  1  0  0  0
M  END
> <minimizedAffinity>
-7.28119

> <CNNscore>
0.1691884249

> <CNNaffinity>
5.0554356575

> <CNN_VS>
0.8553211689

> <CNNaffinity_variance>
0.3137854934

$$$$
[H]OC(c1c([H])c([H])c(-c2c([H])c([H])c(S(=O)(=O)C([H])([H])[H])c([H])c2[H])c([H])c1[H])(C(F)(F)F)C(F)(F)F


 27 28  0  0  0  0  0  0  0  0999 V2000
  -89.1484   29.7420   -0.3791 C   0  0  0  0  0  0  0  0  0  0  0  0
  -88.3714   29.3477   -1.4620 C   0  0  0  0  0  0  0  0  0  0  0  0
  -88.0838   30.2383   -2.4966 C   0  0  0  0  0  0  0  0  0  0  0  0
  -88.5525   31.5342   -2.4903 C   0  0  0  0  0  0  0  0  0  0  0  0
  -89.3238   31.9210   -1.4122 C   0  0  0  0  0  0  0  0  0  0  0  0
  -89.6040   31.0314   -0.3909 C   0  0  0  0  0  0  0  0  0  0  0  0
  -89.8181   26.9147    2.7709 C   0  0  0  0  0  0  0  0  0  0  0  0
  -88.5477   27.1699    2.2561 C   0  0  0  0  0  0  0  0  0  0  0  0
  -88.3537   28.0821    1.2451 C   0  0  0  0  0  0  0  0  0  0  0  0
  -89.4237   28.7942    0.6903 C   0  0  0  0  0  0  0  0  0  0  0  0
  -90.6615   28.5440    1.1951 C   0  0  0  0  0  0  0  0  0  0  0  0
  -90.8627   27.6268    2.2108 C   0  0  0  0  0  0  0  0  0  0  0  0
  -89.9297   26.6935    5.6006 C   0  0  0  0  0  0  0  0  0  0  0  0
  -90.0609   25.7623    4.0711 S   0  0  0  0  0  0  0  0  0  0  0  0
  -91.3838   25.1041    4.0388 O   0  0  0  0  0  0  0  0  0  0  0  0
  -88.9799   24.7171    4.0063 O   0  0  0  0  0  0  0  0  0  0  0  0
  -88.2332   32.4247   -3.5913 C   0  0  0  0  0  0  0  0  0  0  0  0
  -87.2669   31.7638   -4.3892 O   0  0  0  0  0  0  0  0  0  0  0  0
  -87.6148   30.8530   -4.5824 H   0  0  0  0  0  0  0  0  0  0  0  0
  -89.3574   32.7750   -4.5151 C   0  0  0  0  0  0  0  0  0  0  0  0
  -88.9276   33.6691   -5.4954 F   0  0  0  0  0  0  0  0  0  0  0  0
  -90.2487   33.5679   -3.7511 F   0  0  0  0  0  0  0  0  0  0  0  0
  -90.1007   31.7413   -4.9742 F   0  0  0  0  0  0  0  0  0  0  0  0
  -87.5769   33.6906   -3.0895 C   0  0  0  0  0  0  0  0  0  0  0  0
  -86.6845   33.4274   -2.0560 F   0  0  0  0  0  0  0  0  0  0  0  0
  -88.4842   34.5919   -2.5546 F   0  0  0  0  0  0  0  0  0  0  0  0
  -86.8748   34.3007   -4.0995 F   0  0  0  0  0  0  0  0  0  0  0  0
 13 14  1  0  0  0
 14 15  2  0  0  0
 14 16  2  0  0  0
 14  7  1  0  0  0
  7  8  2  0  0  0
  8  9  1  0  0  0
  9 10  2  0  0  0
 10 11  1  0  0  0
 11 12  2  0  0  0
 10  1  1  0  0  0
  1  2  2  0  0  0
  2  3  1  0  0  0
  3  4  2  0  0  0
  4  5  1  0  0  0
  5  6  2  0  0  0
  4 17  1  0  0  0
 17 18  1  0  0  0
 17 20  1  0  0  0
 20 21  1  0  0  0
 20 22  1  0  0  0
 20 23  1  0  0  0
 17 24  1  0  0  0
 24 25  1  0  0  0
 24 26  1  0  0  0
 24 27  1  0  0  0
 12  7  1  0  0  0
  6  1  1  0  0  0
 18 19  1  0  0  0
M  END
> <minimizedAffinity>
-7.19264

> <CNNscore>
0.1495352834

> <CNNaffinity>
5.1012697220

> <CNN_VS>
0.7628198266

> <CNNaffinity_variance>
0.1698525250

$$$$
[H]OC(c1c([H])c([H])c(-c2c([H])c([H])c(S(=O)(=O)C([H])([H])[H])c([H])c2[H])c([H])c1[H])(C(F)(F)F)C(F)(F)F


 27 28  0  0  0  0  0  0  0  0999 V2000
  -88.9045   29.5130   -0.3725 C   0  0  0  0  0  0  0  0  0  0  0  0
  -89.6055   30.7131   -0.3705 C   0  0  0  0  0  0  0  0  0  0  0  0
  -89.3675   31.6809   -1.3467 C   0  0  0  0  0  0  0  0  0  0  0  0
  -88.4369   31.4914   -2.3452 C   0  0  0  0  0  0  0  0  0  0  0  0
  -87.7432   30.2974   -2.3429 C   0  0  0  0  0  0  0  0  0  0  0  0
  -87.9856   29.3435   -1.3711 C   0  0  0  0  0  0  0  0  0  0  0  0
  -89.8518   26.6402    2.6629 C   0  0  0  0  0  0  0  0  0  0  0  0
  -90.7775   27.5799    2.2111 C   0  0  0  0  0  0  0  0  0  0  0  0
  -90.4538   28.4933    1.2351 C   0  0  0  0  0  0  0  0  0  0  0  0
  -89.1810   28.5180    0.6527 C   0  0  0  0  0  0  0  0  0  0  0  0
  -88.2805   27.5996    1.0945 C   0  0  0  0  0  0  0  0  0  0  0  0
  -88.6000   26.6795    2.0767 C   0  0  0  0  0  0  0  0  0  0  0  0
  -91.0417   24.0886    3.0401 C   0  0  0  0  0  0  0  0  0  0  0  0
  -90.2719   25.4660    3.8968 S   0  0  0  0  0  0  0  0  0  0  0  0
  -89.1063   24.9543    4.6477 O   0  0  0  0  0  0  0  0  0  0  0  0
  -91.2492   26.0920    4.8549 O   0  0  0  0  0  0  0  0  0  0  0  0
  -88.2179   32.5285   -3.3370 C   0  0  0  0  0  0  0  0  0  0  0  0
  -87.0563   32.1664   -4.0627 O   0  0  0  0  0  0  0  0  0  0  0  0
  -87.1729   31.2246   -4.3580 H   0  0  0  0  0  0  0  0  0  0  0  0
  -89.2967   32.7160   -4.3573 C   0  0  0  0  0  0  0  0  0  0  0  0
  -90.5502   32.7497   -3.7466 F   0  0  0  0  0  0  0  0  0  0  0  0
  -89.3480   31.5036   -5.0883 F   0  0  0  0  0  0  0  0  0  0  0  0
  -89.0874   33.6830   -5.2808 F   0  0  0  0  0  0  0  0  0  0  0  0
  -87.9110   33.8526   -2.6755 C   0  0  0  0  0  0  0  0  0  0  0  0
  -87.0528   34.6239   -3.4516 F   0  0  0  0  0  0  0  0  0  0  0  0
  -87.2590   33.7091   -1.4606 F   0  0  0  0  0  0  0  0  0  0  0  0
  -89.0637   34.5747   -2.4880 F   0  0  0  0  0  0  0  0  0  0  0  0
 13 14  1  0  0  0
 14 15  2  0  0  0
 14 16  2  0  0  0
 14  7  1  0  0  0
  7  8  2  0  0  0
  8  9  1  0  0  0
  9 10  2  0  0  0
 10 11  1  0  0  0
 11 12  2  0  0  0
 10  1  1  0  0  0
  1  2  2  0  0  0
  2  3  1  0  0  0
  3  4  2  0  0  0
  4  5  1  0  0  0
  5  6  2  0  0  0
  4 17  1  0  0  0
 17 18  1  0  0  0
 17 20  1  0  0  0
 20 21  1  0  0  0
 20 22  1  0  0  0
 20 23  1  0  0  0
 17 24  1  0  0  0
 24 25  1  0  0  0
 24 26  1  0  0  0
 24 27  1  0  0  0
 12  7  1  0  0  0
  6  1  1  0  0  0
 18 19  1  0  0  0
M  END
> <minimizedAffinity>
-7.53488

> <CNNscore>
0.1443983018

> <CNNaffinity>
5.1241765022

> <CNN_VS>
0.7399224043

> <CNNaffinity_variance>
0.1779254228

$$$$
[H]OC(c1c([H])c([H])c(-c2c([H])c([H])c(S(=O)(=O)C([H])([H])[H])c([H])c2[H])c([H])c1[H])(C(F)(F)F)C(F)(F)F


 27 28  0  0  0  0  0  0  0  0999 V2000
  -87.2398   27.8198    1.1748 C   0  0  0  0  0  0  0  0  0  0  0  0
  -86.9050   28.1937   -0.1213 C   0  0  0  0  0  0  0  0  0  0  0  0
  -85.9635   29.1964   -0.3549 C   0  0  0  0  0  0  0  0  0  0  0  0
  -85.3309   29.8531    0.6783 C   0  0  0  0  0  0  0  0  0  0  0  0
  -85.6668   29.4779    1.9641 C   0  0  0  0  0  0  0  0  0  0  0  0
  -86.6014   28.4828    2.1863 C   0  0  0  0  0  0  0  0  0  0  0  0
  -90.1105   24.7329    1.9453 C   0  0  0  0  0  0  0  0  0  0  0  0
  -89.5590   25.5089    2.9639 C   0  0  0  0  0  0  0  0  0  0  0  0
  -88.6392   26.4957    2.6956 C   0  0  0  0  0  0  0  0  0  0  0  0
  -88.2181   26.7638    1.3877 C   0  0  0  0  0  0  0  0  0  0  0  0
  -88.7585   26.0061    0.3960 C   0  0  0  0  0  0  0  0  0  0  0  0
  -89.6828   25.0115    0.6602 C   0  0  0  0  0  0  0  0  0  0  0  0
  -90.5183   21.9229    1.8651 C   0  0  0  0  0  0  0  0  0  0  0  0
  -91.2952   23.4853    2.2884 S   0  0  0  0  0  0  0  0  0  0  0  0
  -91.7045   23.4324    3.7076 O   0  0  0  0  0  0  0  0  0  0  0  0
  -92.5076   23.7119    1.4258 O   0  0  0  0  0  0  0  0  0  0  0  0
  -84.3620   30.8944    0.3885 C   0  0  0  0  0  0  0  0  0  0  0  0
  -83.5298   30.4062   -0.6489 O   0  0  0  0  0  0  0  0  0  0  0  0
  -84.1234   30.0755   -1.3742 H   0  0  0  0  0  0  0  0  0  0  0  0
  -84.9087   32.1977   -0.1037 C   0  0  0  0  0  0  0  0  0  0  0  0
  -85.9621   31.9845   -0.9926 F   0  0  0  0  0  0  0  0  0  0  0  0
  -83.9068   32.7406   -0.9453 F   0  0  0  0  0  0  0  0  0  0  0  0
  -85.1396   33.1444    0.8356 F   0  0  0  0  0  0  0  0  0  0  0  0
  -83.4608   31.1399    1.5771 C   0  0  0  0  0  0  0  0  0  0  0  0
  -82.8433   29.9678    1.9997 F   0  0  0  0  0  0  0  0  0  0  0  0
  -84.1493   31.5996    2.6889 F   0  0  0  0  0  0  0  0  0  0  0  0
  -82.4728   32.0369    1.2538 F   0  0  0  0  0  0  0  0  0  0  0  0
 13 14  1  0  0  0
 14 15  2  0  0  0
 14 16  2  0  0  0
 14  7  1  0  0  0
  7  8  2  0  0  0
  8  9  1  0  0  0
  9 10  2  0  0  0
 10 11  1  0  0  0
 11 12  2  0  0  0
 10  1  1  0  0  0
  1  2  2  0  0  0
  2  3  1  0  0  0
  3  4  2  0  0  0
  4  5  1  0  0  0
  5  6  2  0  0  0
  4 17  1  0  0  0
 17 18  1  0  0  0
 17 20  1  0  0  0
 20 21  1  0  0  0
 20 22  1  0  0  0
 20 23  1  0  0  0
 17 24  1  0  0  0
 24 25  1  0  0  0
 24 26  1  0  0  0
 24 27  1  0  0  0
 12  7  1  0  0  0
  6  1  1  0  0  0
 18 19  1  0  0  0
M  END
> <minimizedAffinity>
-8.62581

> <CNNscore>
0.1374380440

> <CNNaffinity>
5.1481499672

> <CNN_VS>
0.7075516582

> <CNNaffinity_variance>
0.3585876822

$$$$
[H]ON([H])C(=O)/C([H])=C(\[H])c1c([H])c([H])c([H])c(S(=O)(=O)c2c([H])c([H])c([H])c([H])c2[H])c1[H]


 23 24  0  0  0  0  0  0  0  0999 V2000
  -88.3144   27.0173    1.1247 C   0  0  0  0  0  0  0  0  0  0  0  0
  -88.2757   27.1870   -0.2364 C   0  0  0  0  0  0  0  0  0  0  0  0
  -87.2768   27.9232   -0.8627 C   0  0  0  0  0  0  0  0  0  0  0  0
  -86.2898   28.5053   -0.1056 C   0  0  0  0  0  0  0  0  0  0  0  0
  -86.2864   28.3630    1.2635 C   0  0  0  0  0  0  0  0  0  0  0  0
  -87.2810   27.6350    1.8401 C   0  0  0  0  0  0  0  0  0  0  0  0
  -85.0302   29.0993    2.2712 S   0  0  0  0  0  0  0  0  0  0  0  0
  -85.7570   29.6675    3.4689 O   0  0  0  0  0  0  0  0  0  0  0  0
  -84.0863   28.0517    2.7805 O   0  0  0  0  0  0  0  0  0  0  0  0
  -84.2085   30.3622    1.4282 C   0  0  0  0  0  0  0  0  0  0  0  0
  -84.9561   31.3747    0.8415 C   0  0  0  0  0  0  0  0  0  0  0  0
  -84.3615   32.4092    0.1559 C   0  0  0  0  0  0  0  0  0  0  0  0
  -82.9838   32.4559    0.0392 C   0  0  0  0  0  0  0  0  0  0  0  0
  -82.2547   31.4550    0.6198 C   0  0  0  0  0  0  0  0  0  0  0  0
  -82.8344   30.4124    1.3095 C   0  0  0  0  0  0  0  0  0  0  0  0
  -89.4722   26.2009    3.1431 C   0  0  0  0  0  0  0  0  0  0  0  0
  -89.3334   26.2587    1.8365 C   0  0  0  0  0  0  0  0  0  0  0  0
  -91.7588   23.3485    3.9006 O   0  0  0  0  0  0  0  0  0  0  0  0
  -90.8057   24.1276    3.3398 N   0  0  0  0  0  0  0  0  0  0  0  0
  -90.5120   25.4242    3.7988 C   0  0  0  0  0  0  0  0  0  0  0  0
  -91.1467   25.8957    4.7642 O   0  0  0  0  0  0  0  0  0  0  0  0
  -92.4013   23.9204    4.4250 H   0  0  0  0  0  0  0  0  0  0  0  0
  -90.2706   23.7447    2.5346 H   0  0  0  0  0  0  0  0  0  0  0  0
 18 19  1  0  0  0
 19 20  1  0  0  0
 20 21  2  0  0  0
 20 16  1  0  0  0
 16 17  2  0  0  0
 17  1  1  0  0  0
  1  2  2  0  0  0
  2  3  1  0  0  0
  3  4  2  0  0  0
  4  5  1  0  0  0
  5  6  2  0  0  0
  5  7  1  0  0  0
  7  8  2  0  0  0
  7  9  2  0  0  0
  7 10  1  0  0  0
 10 11  2  0  0  0
 11 12  1  0  0  0
 12 13  2  0  0  0
 13 14  1  0  0  0
 14 15  2  0  0  0
  6  1  1  0  0  0
 15 10  1  0  0  0
 18 22  1  0  0  0
 19 23  1  0  0  0
M  END
> <minimizedAffinity>
-8.66864

> <CNNscore>
0.7675325274

> <CNNaffinity>
5.9957046509

> <CNN_VS>
4.6018981934

> <CNNaffinity_variance>
0.0818386301

$$$$
[H]ON([H])C(=O)/C([H])=C(\[H])c1c([H])c([H])c([H])c(S(=O)(=O)c2c([H])c([H])c([H])c([H])c2[H])c1[H]


 23 24  0  0  0  0  0  0  0  0999 V2000
  -85.2382   30.7762    0.2534 C   0  0  0  0  0  0  0  0  0  0  0  0
  -84.5444   31.9597    0.2237 C   0  0  0  0  0  0  0  0  0  0  0  0
  -85.1148   33.1411   -0.2358 C   0  0  0  0  0  0  0  0  0  0  0  0
  -86.4151   33.1373   -0.6777 C   0  0  0  0  0  0  0  0  0  0  0  0
  -87.1514   31.9743   -0.6672 C   0  0  0  0  0  0  0  0  0  0  0  0
  -86.5583   30.8381   -0.2101 C   0  0  0  0  0  0  0  0  0  0  0  0
  -88.8301   31.9320   -1.2293 S   0  0  0  0  0  0  0  0  0  0  0  0
  -89.1613   30.4664   -1.3968 O   0  0  0  0  0  0  0  0  0  0  0  0
  -89.7486   32.4773   -0.1773 O   0  0  0  0  0  0  0  0  0  0  0  0
  -89.0081   32.7517   -2.7382 C   0  0  0  0  0  0  0  0  0  0  0  0
  -88.8559   32.0314   -3.9156 C   0  0  0  0  0  0  0  0  0  0  0  0
  -88.9854   32.6260   -5.1499 C   0  0  0  0  0  0  0  0  0  0  0  0
  -89.2746   33.9761   -5.2367 C   0  0  0  0  0  0  0  0  0  0  0  0
  -89.4231   34.6784   -4.0726 C   0  0  0  0  0  0  0  0  0  0  0  0
  -89.2967   34.0983   -2.8292 C   0  0  0  0  0  0  0  0  0  0  0  0
  -84.3121   29.2489    1.9536 C   0  0  0  0  0  0  0  0  0  0  0  0
  -84.6954   29.5091    0.7227 C   0  0  0  0  0  0  0  0  0  0  0  0
  -81.8326   26.6650    3.0087 O   0  0  0  0  0  0  0  0  0  0  0  0
  -82.4001   27.8308    2.6233 N   0  0  0  0  0  0  0  0  0  0  0  0
  -83.7764   27.9611    2.3644 C   0  0  0  0  0  0  0  0  0  0  0  0
  -84.5244   26.9702    2.4896 O   0  0  0  0  0  0  0  0  0  0  0  0
  -82.4364   25.8957    2.7669 H   0  0  0  0  0  0  0  0  0  0  0  0
  -81.7860   28.6631    2.5159 H   0  0  0  0  0  0  0  0  0  0  0  0
 18 19  1  0  0  0
 19 20  1  0  0  0
 20 21  2  0  0  0
 20 16  1  0  0  0
 16 17  2  0  0  0
 17  1  1  0  0  0
  1  2  2  0  0  0
  2  3  1  0  0  0
  3  4  2  0  0  0
  4  5  1  0  0  0
  5  6  2  0  0  0
  5  7  1  0  0  0
  7  8  2  0  0  0
  7  9  2  0  0  0
  7 10  1  0  0  0
 10 11  2  0  0  0
 11 12  1  0  0  0
 12 13  2  0  0  0
 13 14  1  0  0  0
 14 15  2  0  0  0
  6  1  1  0  0  0
 15 10  1  0  0  0
 18 22  1  0  0  0
 19 23  1  0  0  0
M  END
> <minimizedAffinity>
-7.95364

> <CNNscore>
0.6194652915

> <CNNaffinity>
5.6058835983

> <CNN_VS>
3.4726502895

> <CNNaffinity_variance>
0.0812532529

$$$$
[H]ON([H])C(=O)/C([H])=C(\[H])c1c([H])c([H])c([H])c(S(=O)(=O)c2c([H])c([H])c([H])c([H])c2[H])c1[H]


 23 24  0  0  0  0  0  0  0  0999 V2000
  -87.9874   26.3505   -0.2032 C   0  0  0  0  0  0  0  0  0  0  0  0
  -88.1680   27.1347   -1.3147 C   0  0  0  0  0  0  0  0  0  0  0  0
  -87.5159   28.3516   -1.4761 C   0  0  0  0  0  0  0  0  0  0  0  0
  -86.6600   28.7954   -0.4982 C   0  0  0  0  0  0  0  0  0  0  0  0
  -86.4467   28.0436    0.6350 C   0  0  0  0  0  0  0  0  0  0  0  0
  -87.1031   26.8579    0.7569 C   0  0  0  0  0  0  0  0  0  0  0  0
  -85.3504   28.5842    1.9163 S   0  0  0  0  0  0  0  0  0  0  0  0
  -86.2448   28.9975    3.0629 O   0  0  0  0  0  0  0  0  0  0  0  0
  -84.5069   27.4430    2.4000 O   0  0  0  0  0  0  0  0  0  0  0  0
  -84.3958   29.9273    1.4010 C   0  0  0  0  0  0  0  0  0  0  0  0
  -85.0373   31.0819    0.9725 C   0  0  0  0  0  0  0  0  0  0  0  0
  -84.3338   32.1864    0.5497 C   0  0  0  0  0  0  0  0  0  0  0  0
  -82.9506   32.1616    0.5453 C   0  0  0  0  0  0  0  0  0  0  0  0
  -82.3264   31.0208    0.9688 C   0  0  0  0  0  0  0  0  0  0  0  0
  -83.0158   29.9065    1.3952 C   0  0  0  0  0  0  0  0  0  0  0  0
  -89.4002   24.4338   -0.8445 C   0  0  0  0  0  0  0  0  0  0  0  0
  -88.6414   25.0690    0.0218 C   0  0  0  0  0  0  0  0  0  0  0  0
  -89.7501   20.8421    0.1125 O   0  0  0  0  0  0  0  0  0  0  0  0
  -89.2349   22.0616   -0.1657 N   0  0  0  0  0  0  0  0  0  0  0  0
  -90.0283   23.1531   -0.5626 C   0  0  0  0  0  0  0  0  0  0  0  0
  -91.2635   23.0118   -0.6689 O   0  0  0  0  0  0  0  0  0  0  0  0
  -90.6622   20.7540   -0.3060 H   0  0  0  0  0  0  0  0  0  0  0  0
  -88.2066   22.1905   -0.0803 H   0  0  0  0  0  0  0  0  0  0  0  0
 18 19  1  0  0  0
 19 20  1  0  0  0
 20 21  2  0  0  0
 20 16  1  0  0  0
 16 17  2  0  0  0
 17  1  1  0  0  0
  1  2  2  0  0  0
  2  3  1  0  0  0
  3  4  2  0  0  0
  4  5  1  0  0  0
  5  6  2  0  0  0
  5  7  1  0  0  0
  7  8  2  0  0  0
  7  9  2  0  0  0
  7 10  1  0  0  0
 10 11  2  0  0  0
 11 12  1  0  0  0
 12 13  2  0  0  0
 13 14  1  0  0  0
 14 15  2  0  0  0
  6  1  1  0  0  0
 15 10  1  0  0  0
 18 22  1  0  0  0
 19 23  1  0  0  0
M  END
> <minimizedAffinity>
-7.89029

> <CNNscore>
0.5692206025

> <CNNaffinity>
5.6751937866

> <CNN_VS>
3.2304372787

> <CNNaffinity_variance>
0.0990980268

$$$$
[H]ON([H])C(=O)/C([H])=C(\[H])c1c([H])c([H])c([H])c(S(=O)(=O)c2c([H])c([H])c([H])c([H])c2[H])c1[H]


 23 24  0  0  0  0  0  0  0  0999 V2000
  -84.5743   32.4557   -0.1943 C   0  0  0  0  0  0  0  0  0  0  0  0
  -83.2161   32.6498   -0.2194 C   0  0  0  0  0  0  0  0  0  0  0  0
  -82.3369   31.8203    0.4670 C   0  0  0  0  0  0  0  0  0  0  0  0
  -82.8309   30.7682    1.1984 C   0  0  0  0  0  0  0  0  0  0  0  0
  -84.1861   30.5333    1.2538 C   0  0  0  0  0  0  0  0  0  0  0  0
  -85.0150   31.3670    0.5686 C   0  0  0  0  0  0  0  0  0  0  0  0
  -84.8586   29.1866    2.1865 S   0  0  0  0  0  0  0  0  0  0  0  0
  -83.6710   28.3389    2.5822 O   0  0  0  0  0  0  0  0  0  0  0  0
  -85.4875   29.6882    3.4517 O   0  0  0  0  0  0  0  0  0  0  0  0
  -85.9581   28.2528    1.2380 C   0  0  0  0  0  0  0  0  0  0  0  0
  -86.4200   27.0439    1.7417 C   0  0  0  0  0  0  0  0  0  0  0  0
  -87.2974   26.2534    1.0353 C   0  0  0  0  0  0  0  0  0  0  0  0
  -87.7401   26.6597   -0.2108 C   0  0  0  0  0  0  0  0  0  0  0  0
  -87.2806   27.8514   -0.6997 C   0  0  0  0  0  0  0  0  0  0  0  0
  -86.4023   28.6546   -0.0054 C   0  0  0  0  0  0  0  0  0  0  0  0
  -86.6429   32.8624   -1.4736 C   0  0  0  0  0  0  0  0  0  0  0  0
  -85.5435   33.2894   -0.8916 C   0  0  0  0  0  0  0  0  0  0  0  0
  -89.8661   34.1894   -2.8109 O   0  0  0  0  0  0  0  0  0  0  0  0
  -88.9426   33.4167   -2.1945 N   0  0  0  0  0  0  0  0  0  0  0  0
  -87.5754   33.7446   -2.1565 C   0  0  0  0  0  0  0  0  0  0  0  0
  -87.1757   34.7895   -2.7094 O   0  0  0  0  0  0  0  0  0  0  0  0
  -89.4135   34.7985   -3.4733 H   0  0  0  0  0  0  0  0  0  0  0  0
  -89.2646   32.5436   -1.7305 H   0  0  0  0  0  0  0  0  0  0  0  0
 18 19  1  0  0  0
 19 20  1  0  0  0
 20 21  2  0  0  0
 20 16  1  0  0  0
 16 17  2  0  0  0
 17  1  1  0  0  0
  1  2  2  0  0  0
  2  3  1  0  0  0
  3  4  2  0  0  0
  4  5  1  0  0  0
  5  6  2  0  0  0
  5  7  1  0  0  0
  7  8  2  0  0  0
  7  9  2  0  0  0
  7 10  1  0  0  0
 10 11  2  0  0  0
 11 12  1  0  0  0
 12 13  2  0  0  0
 13 14  1  0  0  0
 14 15  2  0  0  0
  6  1  1  0  0  0
 15 10  1  0  0  0
 18 22  1  0  0  0
 19 23  1  0  0  0
M  END
> <minimizedAffinity>
-8.55163

> <CNNscore>
0.4978374243

> <CNNaffinity>
5.7177581787

> <CNN_VS>
2.8465139866

> <CNNaffinity_variance>
0.1970692426

$$$$
[H]ON([H])C(=O)/C([H])=C(\[H])c1c([H])c([H])c([H])c(S(=O)(=O)c2c([H])c([H])c([H])c([H])c2[H])c1[H]


 23 24  0  0  0  0  0  0  0  0999 V2000
  -85.8629   31.1711    0.2406 C   0  0  0  0  0  0  0  0  0  0  0  0
  -84.8203   32.0626    0.2075 C   0  0  0  0  0  0  0  0  0  0  0  0
  -84.8018   33.1484   -0.6602 C   0  0  0  0  0  0  0  0  0  0  0  0
  -85.8557   33.3468   -1.5180 C   0  0  0  0  0  0  0  0  0  0  0  0
  -86.9243   32.4792   -1.5215 C   0  0  0  0  0  0  0  0  0  0  0  0
  -86.9062   31.4280   -0.6576 C   0  0  0  0  0  0  0  0  0  0  0  0
  -88.3001   32.7038   -2.6135 S   0  0  0  0  0  0  0  0  0  0  0  0
  -88.2145   31.5677   -3.6073 O   0  0  0  0  0  0  0  0  0  0  0  0
  -89.5915   32.5456   -1.8684 O   0  0  0  0  0  0  0  0  0  0  0  0
  -88.2059   34.2167   -3.4399 C   0  0  0  0  0  0  0  0  0  0  0  0
  -87.8009   34.2321   -4.7681 C   0  0  0  0  0  0  0  0  0  0  0  0
  -87.7054   35.4045   -5.4821 C   0  0  0  0  0  0  0  0  0  0  0  0
  -88.0174   36.6078   -4.8750 C   0  0  0  0  0  0  0  0  0  0  0  0
  -88.4154   36.5842   -3.5668 C   0  0  0  0  0  0  0  0  0  0  0  0
  -88.5163   35.4192   -2.8379 C   0  0  0  0  0  0  0  0  0  0  0  0
  -85.7381   28.7663    0.7721 C   0  0  0  0  0  0  0  0  0  0  0  0
  -85.9386   30.0172    1.1256 C   0  0  0  0  0  0  0  0  0  0  0  0
  -87.2205   25.9697    2.7520 O   0  0  0  0  0  0  0  0  0  0  0  0
  -87.0630   27.0108    1.9028 N   0  0  0  0  0  0  0  0  0  0  0  0
  -85.8276   27.6527    1.7029 C   0  0  0  0  0  0  0  0  0  0  0  0
  -84.8203   27.2605    2.3262 O   0  0  0  0  0  0  0  0  0  0  0  0
  -86.4622   25.9530    3.4150 H   0  0  0  0  0  0  0  0  0  0  0  0
  -87.8959   27.3459    1.3781 H   0  0  0  0  0  0  0  0  0  0  0  0
 18 19  1  0  0  0
 19 20  1  0  0  0
 20 21  2  0  0  0
 20 16  1  0  0  0
 16 17  2  0  0  0
 17  1  1  0  0  0
  1  2  2  0  0  0
  2  3  1  0  0  0
  3  4  2  0  0  0
  4  5  1  0  0  0
  5  6  2  0  0  0
  5  7  1  0  0  0
  7  8  2  0  0  0
  7  9  2  0  0  0
  7 10  1  0  0  0
 10 11  2  0  0  0
 11 12  1  0  0  0
 12 13  2  0  0  0
 13 14  1  0  0  0
 14 15  2  0  0  0
  6  1  1  0  0  0
 15 10  1  0  0  0
 18 22  1  0  0  0
 19 23  1  0  0  0
M  END
> <minimizedAffinity>
-6.96650

> <CNNscore>
0.4650816321

> <CNNaffinity>
5.7535624504

> <CNN_VS>
2.6758761406

> <CNNaffinity_variance>
0.1554597318

$$$$
[H]ON([H])C(=O)/C([H])=C(\[H])c1c([H])c([H])c([H])c(S(=O)(=O)c2c([H])c([H])c([H])c([H])c2[H])c1[H]


 23 24  0  0  0  0  0  0  0  0999 V2000
  -87.3098   27.9976   -0.4346 C   0  0  0  0  0  0  0  0  0  0  0  0
  -87.4909   26.7689    0.1490 C   0  0  0  0  0  0  0  0  0  0  0  0
  -86.7900   26.3777    1.2839 C   0  0  0  0  0  0  0  0  0  0  0  0
  -85.8832   27.2401    1.8497 C   0  0  0  0  0  0  0  0  0  0  0  0
  -85.6673   28.4835    1.3000 C   0  0  0  0  0  0  0  0  0  0  0  0
  -86.3724   28.8303    0.1891 C   0  0  0  0  0  0  0  0  0  0  0  0
  -84.5062   29.6212    2.0024 S   0  0  0  0  0  0  0  0  0  0  0  0
  -85.1262   30.0764    3.3039 O   0  0  0  0  0  0  0  0  0  0  0  0
  -83.2254   28.9197    2.3420 O   0  0  0  0  0  0  0  0  0  0  0  0
  -84.2508   30.9781    0.9661 C   0  0  0  0  0  0  0  0  0  0  0  0
  -85.3381   31.7655    0.6107 C   0  0  0  0  0  0  0  0  0  0  0  0
  -85.2009   32.8604   -0.2116 C   0  0  0  0  0  0  0  0  0  0  0  0
  -83.9537   33.1985   -0.7056 C   0  0  0  0  0  0  0  0  0  0  0  0
  -82.8881   32.4180   -0.3510 C   0  0  0  0  0  0  0  0  0  0  0  0
  -83.0083   31.3189    0.4712 C   0  0  0  0  0  0  0  0  0  0  0  0
  -87.7912   29.5976   -2.2482 C   0  0  0  0  0  0  0  0  0  0  0  0
  -88.0133   28.4627   -1.6216 C   0  0  0  0  0  0  0  0  0  0  0  0
  -88.4880   31.1384   -5.5766 O   0  0  0  0  0  0  0  0  0  0  0  0
  -87.8673   30.7234   -4.4487 N   0  0  0  0  0  0  0  0  0  0  0  0
  -88.5275   30.0097   -3.4324 C   0  0  0  0  0  0  0  0  0  0  0  0
  -89.7388   29.7370   -3.5566 O   0  0  0  0  0  0  0  0  0  0  0  0
  -89.4845   31.1573   -5.4299 H   0  0  0  0  0  0  0  0  0  0  0  0
  -86.8577   30.9451   -4.3347 H   0  0  0  0  0  0  0  0  0  0  0  0
 18 19  1  0  0  0
 19 20  1  0  0  0
 20 21  2  0  0  0
 20 16  1  0  0  0
 16 17  2  0  0  0
 17  1  1  0  0  0
  1  2  2  0  0  0
  2  3  1  0  0  0
  3  4  2  0  0  0
  4  5  1  0  0  0
  5  6  2  0  0  0
  5  7  1  0  0  0
  7  8  2  0  0  0
  7  9  2  0  0  0
  7 10  1  0  0  0
 10 11  2  0  0  0
 11 12  1  0  0  0
 12 13  2  0  0  0
 13 14  1  0  0  0
 14 15  2  0  0  0
  6  1  1  0  0  0
 15 10  1  0  0  0
 18 22  1  0  0  0
 19 23  1  0  0  0
M  END
> <minimizedAffinity>
-8.87826

> <CNNscore>
0.4507846534

> <CNNaffinity>
5.7396330833

> <CNN_VS>
2.5873384476

> <CNNaffinity_variance>
0.1299278438

$$$$
[H]ON([H])C(=O)/C([H])=C(\[H])c1c([H])c([H])c([H])c(S(=O)(=O)c2c([H])c([H])c([H])c([H])c2[H])c1[H]


 23 24  0  0  0  0  0  0  0  0999 V2000
  -84.6501   31.5166    0.1344 C   0  0  0  0  0  0  0  0  0  0  0  0
  -83.3479   31.5126    0.5674 C   0  0  0  0  0  0  0  0  0  0  0  0
  -82.8440   30.5112    1.3892 C   0  0  0  0  0  0  0  0  0  0  0  0
  -83.6660   29.4861    1.7883 C   0  0  0  0  0  0  0  0  0  0  0  0
  -84.9799   29.4470    1.3797 C   0  0  0  0  0  0  0  0  0  0  0  0
  -85.4367   30.4452    0.5756 C   0  0  0  0  0  0  0  0  0  0  0  0
  -86.0686   28.1410    1.8746 S   0  0  0  0  0  0  0  0  0  0  0  0
  -85.1720   26.9600    2.1696 O   0  0  0  0  0  0  0  0  0  0  0  0
  -86.7678   28.4977    3.1520 O   0  0  0  0  0  0  0  0  0  0  0  0
  -87.1783   27.7371    0.6152 C   0  0  0  0  0  0  0  0  0  0  0  0
  -88.0420   28.7161    0.1419 C   0  0  0  0  0  0  0  0  0  0  0  0
  -88.9495   28.4580   -0.8598 C   0  0  0  0  0  0  0  0  0  0  0  0
  -89.0156   27.1949   -1.4202 C   0  0  0  0  0  0  0  0  0  0  0  0
  -88.1617   26.2363   -0.9486 C   0  0  0  0  0  0  0  0  0  0  0  0
  -87.2475   26.4783    0.0535 C   0  0  0  0  0  0  0  0  0  0  0  0
  -86.4006   32.4541   -1.3276 C   0  0  0  0  0  0  0  0  0  0  0  0
  -85.2341   32.5362   -0.7257 C   0  0  0  0  0  0  0  0  0  0  0  0
  -86.5789   34.9958   -4.0564 O   0  0  0  0  0  0  0  0  0  0  0  0
  -86.1491   34.0171   -3.2275 N   0  0  0  0  0  0  0  0  0  0  0  0
  -86.9332   33.5074   -2.1769 C   0  0  0  0  0  0  0  0  0  0  0  0
  -88.0782   33.9642   -1.9836 O   0  0  0  0  0  0  0  0  0  0  0  0
  -87.3406   35.4960   -3.6270 H   0  0  0  0  0  0  0  0  0  0  0  0
  -85.1964   33.6291   -3.3794 H   0  0  0  0  0  0  0  0  0  0  0  0
 18 19  1  0  0  0
 19 20  1  0  0  0
 20 21  2  0  0  0
 20 16  1  0  0  0
 16 17  2  0  0  0
 17  1  1  0  0  0
  1  2  2  0  0  0
  2  3  1  0  0  0
  3  4  2  0  0  0
  4  5  1  0  0  0
  5  6  2  0  0  0
  5  7  1  0  0  0
  7  8  2  0  0  0
  7  9  2  0  0  0
  7 10  1  0  0  0
 10 11  2  0  0  0
 11 12  1  0  0  0
 12 13  2  0  0  0
 13 14  1  0  0  0
 14 15  2  0  0  0
  6  1  1  0  0  0
 15 10  1  0  0  0
 18 22  1  0  0  0
 19 23  1  0  0  0
M  END
> <minimizedAffinity>
-7.83478

> <CNNscore>
0.4241199791

> <CNNaffinity>
5.7415432930

> <CNN_VS>
2.4351031780

> <CNNaffinity_variance>
0.2221651524

$$$$
[H]ON([H])C(=O)/C([H])=C(\[H])c1c([H])c([H])c([H])c(S(=O)(=O)c2c([H])c([H])c([H])c([H])c2[H])c1[H]


 23 24  0  0  0  0  0  0  0  0999 V2000
  -85.0527   29.3369    1.1195 C   0  0  0  0  0  0  0  0  0  0  0  0
  -83.8140   29.5815    1.6567 C   0  0  0  0  0  0  0  0  0  0  0  0
  -83.1418   30.7808    1.4519 C   0  0  0  0  0  0  0  0  0  0  0  0
  -83.7256   31.7617    0.6884 C   0  0  0  0  0  0  0  0  0  0  0  0
  -84.9673   31.5626    0.1285 C   0  0  0  0  0  0  0  0  0  0  0  0
  -85.5939   30.3755    0.3516 C   0  0  0  0  0  0  0  0  0  0  0  0
  -85.7505   32.8046   -0.8613 S   0  0  0  0  0  0  0  0  0  0  0  0
  -85.8839   34.0116    0.0393 O   0  0  0  0  0  0  0  0  0  0  0  0
  -84.8642   33.1994   -2.0043 O   0  0  0  0  0  0  0  0  0  0  0  0
  -87.3108   32.2922   -1.3935 C   0  0  0  0  0  0  0  0  0  0  0  0
  -87.4590   31.8346   -2.6962 C   0  0  0  0  0  0  0  0  0  0  0  0
  -88.6757   31.4122   -3.1810 C   0  0  0  0  0  0  0  0  0  0  0  0
  -89.7900   31.4381   -2.3615 C   0  0  0  0  0  0  0  0  0  0  0  0
  -89.6357   31.8901   -1.0800 C   0  0  0  0  0  0  0  0  0  0  0  0
  -88.4249   32.3164   -0.5792 C   0  0  0  0  0  0  0  0  0  0  0  0
  -86.9964   27.8529    0.8016 C   0  0  0  0  0  0  0  0  0  0  0  0
  -85.8046   28.1028    1.2986 C   0  0  0  0  0  0  0  0  0  0  0  0
  -88.3145   24.4230    0.1410 O   0  0  0  0  0  0  0  0  0  0  0  0
  -87.6831   25.6123    0.0119 N   0  0  0  0  0  0  0  0  0  0  0  0
  -87.6999   26.5983    1.0148 C   0  0  0  0  0  0  0  0  0  0  0  0
  -88.3183   26.3871    2.0777 O   0  0  0  0  0  0  0  0  0  0  0  0
  -89.0206   24.4879    0.8566 H   0  0  0  0  0  0  0  0  0  0  0  0
  -87.1645   25.7990   -0.8699 H   0  0  0  0  0  0  0  0  0  0  0  0
 18 19  1  0  0  0
 19 20  1  0  0  0
 20 21  2  0  0  0
 20 16  1  0  0  0
 16 17  2  0  0  0
 17  1  1  0  0  0
  1  2  2  0  0  0
  2  3  1  0  0  0
  3  4  2  0  0  0
  4  5  1  0  0  0
  5  6  2  0  0  0
  5  7  1  0  0  0
  7  8  2  0  0  0
  7  9  2  0  0  0
  7 10  1  0  0  0
 10 11  2  0  0  0
 11 12  1  0  0  0
 12 13  2  0  0  0
 13 14  1  0  0  0
 14 15  2  0  0  0
  6  1  1  0  0  0
 15 10  1  0  0  0
 18 22  1  0  0  0
 19 23  1  0  0  0
M  END
> <minimizedAffinity>
-7.82861

> <CNNscore>
0.3992106915

> <CNNaffinity>
5.5359368324

> <CNN_VS>
2.2100052834

> <CNNaffinity_variance>
0.2280744761

$$$$
[H]ON([H])C(=O)/C([H])=C(\[H])c1c([H])c([H])c([H])c(S(=O)(=O)c2c([H])c([H])c([H])c([H])c2[H])c1[H]


 23 24  0  0  0  0  0  0  0  0999 V2000
  -86.0801   32.7680   -0.8112 C   0  0  0  0  0  0  0  0  0  0  0  0
  -84.9041   33.3981   -1.1320 C   0  0  0  0  0  0  0  0  0  0  0  0
  -83.6804   32.9911   -0.6131 C   0  0  0  0  0  0  0  0  0  0  0  0
  -83.6330   31.9243    0.2504 C   0  0  0  0  0  0  0  0  0  0  0  0
  -84.7865   31.2605    0.6020 C   0  0  0  0  0  0  0  0  0  0  0  0
  -85.9651   31.6884    0.0734 C   0  0  0  0  0  0  0  0  0  0  0  0
  -84.7634   29.8813    1.7124 S   0  0  0  0  0  0  0  0  0  0  0  0
  -83.3263   29.4128    1.7421 O   0  0  0  0  0  0  0  0  0  0  0  0
  -85.1157   30.3214    3.1017 O   0  0  0  0  0  0  0  0  0  0  0  0
  -85.7860   28.6076    1.1536 C   0  0  0  0  0  0  0  0  0  0  0  0
  -86.3713   28.7179   -0.1009 C   0  0  0  0  0  0  0  0  0  0  0  0
  -87.1958   27.7376   -0.6037 C   0  0  0  0  0  0  0  0  0  0  0  0
  -87.4585   26.6064    0.1481 C   0  0  0  0  0  0  0  0  0  0  0  0
  -86.8783   26.5053    1.3825 C   0  0  0  0  0  0  0  0  0  0  0  0
  -86.0505   27.4774    1.9004 C   0  0  0  0  0  0  0  0  0  0  0  0
  -87.6432   33.5717   -2.5408 C   0  0  0  0  0  0  0  0  0  0  0  0
  -87.3898   33.1480   -1.3218 C   0  0  0  0  0  0  0  0  0  0  0  0
  -91.1740   33.1964   -3.6946 O   0  0  0  0  0  0  0  0  0  0  0  0
  -89.9177   32.9303   -3.2694 N   0  0  0  0  0  0  0  0  0  0  0  0
  -88.9752   33.9376   -2.9948 C   0  0  0  0  0  0  0  0  0  0  0  0
  -89.2912   35.1355   -3.1434 O   0  0  0  0  0  0  0  0  0  0  0  0
  -91.2134   34.1262   -4.0803 H   0  0  0  0  0  0  0  0  0  0  0  0
  -89.6436   31.9354   -3.1420 H   0  0  0  0  0  0  0  0  0  0  0  0
 18 19  1  0  0  0
 19 20  1  0  0  0
 20 21  2  0  0  0
 20 16  1  0  0  0
 16 17  2  0  0  0
 17  1  1  0  0  0
  1  2  2  0  0  0
  2  3  1  0  0  0
  3  4  2  0  0  0
  4  5  1  0  0  0
  5  6  2  0  0  0
  5  7  1  0  0  0
  7  8  2  0  0  0
  7  9  2  0  0  0
  7 10  1  0  0  0
 10 11  2  0  0  0
 11 12  1  0  0  0
 12 13  2  0  0  0
 13 14  1  0  0  0
 14 15  2  0  0  0
  6  1  1  0  0  0
 15 10  1  0  0  0
 18 22  1  0  0  0
 19 23  1  0  0  0
M  END
> <minimizedAffinity>
-7.96622

> <CNNscore>
0.3557100296

> <CNNaffinity>
5.4658813477

> <CNN_VS>
1.9442688227

> <CNNaffinity_variance>
0.1534084082

$$$$
[H]OC(=O)C([H])([H])C([H])([H])[C@@]([H])(C(=O)N([H])[C@]([H])(C(=O)N([H])[C@]([H])(C(=O)C([H])([H])SC([H])([H])c1c([H])c([H])c([H])c([H])c1[H])C([H])([H])C(=O)O[H])C([H])(C([H])([H])[H])C([H])([H])[H])N([H])C(=O)C([H])([H])[H]


 41 41  0  0  0  0  0  0  0  0999 V2000
  -88.0429   28.7246   -0.5360 C   0  0  0  0  0  0  0  0  0  0  0  0
  -86.8204   28.7389   -0.8314 O   0  0  0  0  0  0  0  0  0  0  0  0
  -88.8709   29.6927   -1.1653 N   0  0  0  0  0  0  0  0  0  0  0  0
  -89.8962   29.6756   -0.9014 H   0  0  0  0  0  0  0  0  0  0  0  0
  -88.4563   30.6751   -2.1082 C   0  0  0  0  0  0  0  0  0  0  0  0
  -88.0328   31.9810   -1.4676 C   0  0  0  0  0  0  0  0  0  0  0  0
  -88.7050   32.5333   -0.6239 O   0  0  0  0  0  0  0  0  0  0  0  0
  -86.7666   32.6425   -1.8498 C   0  0  0  0  0  0  0  0  0  0  0  0
  -85.8529   33.3245   -0.4646 S   0  0  0  0  0  0  0  0  0  0  0  0
  -84.1667   32.7322   -0.3732 C   0  0  0  0  0  0  0  0  0  0  0  0
  -84.0146   31.5754    0.5423 C   0  0  0  0  0  0  0  0  0  0  0  0
  -85.1289   31.1926    1.2458 C   0  0  0  0  0  0  0  0  0  0  0  0
  -85.1438   30.1414    2.1335 C   0  0  0  0  0  0  0  0  0  0  0  0
  -83.9318   29.4753    2.2774 C   0  0  0  0  0  0  0  0  0  0  0  0
  -82.7952   29.8279    1.5922 C   0  0  0  0  0  0  0  0  0  0  0  0
  -82.8406   30.8916    0.7141 C   0  0  0  0  0  0  0  0  0  0  0  0
  -89.3619   30.8973   -3.2601 C   0  0  0  0  0  0  0  0  0  0  0  0
  -88.7067   31.1364   -4.5417 C   0  0  0  0  0  0  0  0  0  0  0  0
  -89.3181   32.0473   -5.4109 O   0  0  0  0  0  0  0  0  0  0  0  0
  -87.6447   30.6101   -4.9510 O   0  0  0  0  0  0  0  0  0  0  0  0
  -89.3959   33.0042   -5.0453 H   0  0  0  0  0  0  0  0  0  0  0  0
  -88.5765   27.7311    0.4315 C   0  0  0  0  0  0  0  0  0  0  0  0
  -88.5849   26.4211   -0.1511 N   0  0  0  0  0  0  0  0  0  0  0  0
  -89.7194   25.5993   -0.0692 C   0  0  0  0  0  0  0  0  0  0  0  0
  -90.7669   26.0342    0.5194 O   0  0  0  0  0  0  0  0  0  0  0  0
  -87.7356   26.0953   -0.6405 H   0  0  0  0  0  0  0  0  0  0  0  0
  -89.7619   24.2084   -0.6520 C   0  0  0  0  0  0  0  0  0  0  0  0
  -90.3477   23.3349    0.2878 N   0  0  0  0  0  0  0  0  0  0  0  0
  -89.9119   21.9905    0.5080 C   0  0  0  0  0  0  0  0  0  0  0  0
  -90.5299   21.0958    1.4897 C   0  0  0  0  0  0  0  0  0  0  0  0
  -88.9395   21.5557   -0.1848 O   0  0  0  0  0  0  0  0  0  0  0  0
  -91.1371   23.6589    0.9061 H   0  0  0  0  0  0  0  0  0  0  0  0
  -90.2452   24.2643   -2.0404 C   0  0  0  0  0  0  0  0  0  0  0  0
  -91.6869   24.1168   -2.3242 C   0  0  0  0  0  0  0  0  0  0  0  0
  -92.1669   22.7622   -2.5251 C   0  0  0  0  0  0  0  0  0  0  0  0
  -92.2459   22.2015   -3.8179 O   0  0  0  0  0  0  0  0  0  0  0  0
  -92.5361   22.0077   -1.6088 O   0  0  0  0  0  0  0  0  0  0  0  0
  -93.1358   22.2947   -4.3287 H   0  0  0  0  0  0  0  0  0  0  0  0
  -86.7277   26.6627    1.6841 C   0  0  0  0  0  0  0  0  0  0  0  0
  -87.7783   27.7568    1.7034 C   0  0  0  0  0  0  0  0  0  0  0  0
  -88.6857   27.5263    2.9154 C   0  0  0  0  0  0  0  0  0  0  0  0
 39 40  1  0  0  0
 40 41  1  0  0  0
 40 22  1  0  0  0
 22 23  1  0  0  0
 23 24  1  0  0  0
 24 25  2  0  0  0
 24 27  1  0  0  0
 27 33  1  0  0  0
 33 34  1  0  0  0
 34 35  1  0  0  0
 35 36  1  0  0  0
 35 37  2  0  0  0
 27 28  1  0  0  0
 28 29  1  0  0  0
 29 30  1  0  0  0
 29 31  2  0  0  0
 22  1  1  0  0  0
  1  2  2  0  0  0
  1  3  1  0  0  0
  3  5  1  0  0  0
  5 17  1  0  0  0
 17 18  1  0  0  0
 18 19  1  0  0  0
 18 20  2  0  0  0
  5  6  1  0  0  0
  6  7  2  0  0  0
  6  8  1  0  0  0
  8  9  1  0  0  0
  9 10  1  0  0  0
 10 11  1  0  0  0
 11 12  2  0  0  0
 12 13  1  0  0  0
 13 14  2  0  0  0
 14 15  1  0  0  0
 15 16  2  0  0  0
 16 11  1  0  0  0
 23 26  1  0  0  0
 36 38  1  0  0  0
 28 32  1  0  0  0
  3  4  1  0  0  0
 19 21  1  0  0  0
M  END
> <minimizedAffinity>
-7.92811

> <CNNscore>
0.2535566092

> <CNNaffinity>
6.1923637390

> <CNN_VS>
1.5701147318

> <CNNaffinity_variance>
0.2667784989

$$$$
[H]OC(=O)C([H])([H])C([H])([H])[C@@]([H])(C(=O)N([H])[C@]([H])(C(=O)N([H])[C@]([H])(C(=O)C([H])([H])SC([H])([H])c1c([H])c([H])c([H])c([H])c1[H])C([H])([H])C(=O)O[H])C([H])(C([H])([H])[H])C([H])([H])[H])N([H])C(=O)C([H])([H])[H]


 41 41  0  0  0  0  0  0  0  0999 V2000
  -86.2472   29.5748    0.3366 C   0  0  0  0  0  0  0  0  0  0  0  0
  -86.6560   30.6480    0.8494 O   0  0  0  0  0  0  0  0  0  0  0  0
  -84.8759   29.2518    0.5213 N   0  0  0  0  0  0  0  0  0  0  0  0
  -84.5425   28.3503    0.0772 H   0  0  0  0  0  0  0  0  0  0  0  0
  -83.9161   30.0189    1.2400 C   0  0  0  0  0  0  0  0  0  0  0  0
  -83.3076   31.1388    0.4209 C   0  0  0  0  0  0  0  0  0  0  0  0
  -82.3917   30.9498   -0.3499 O   0  0  0  0  0  0  0  0  0  0  0  0
  -83.8130   32.5243    0.5293 C   0  0  0  0  0  0  0  0  0  0  0  0
  -84.6287   33.1213   -0.9529 S   0  0  0  0  0  0  0  0  0  0  0  0
  -86.2910   33.7119   -0.6526 C   0  0  0  0  0  0  0  0  0  0  0  0
  -87.2537   33.2650   -1.6884 C   0  0  0  0  0  0  0  0  0  0  0  0
  -86.7341   32.9367   -2.9153 C   0  0  0  0  0  0  0  0  0  0  0  0
  -87.4996   32.5085   -3.9755 C   0  0  0  0  0  0  0  0  0  0  0  0
  -88.8642   32.4271   -3.7212 C   0  0  0  0  0  0  0  0  0  0  0  0
  -89.4224   32.7469   -2.5079 C   0  0  0  0  0  0  0  0  0  0  0  0
  -88.6040   33.1705   -1.4806 C   0  0  0  0  0  0  0  0  0  0  0  0
  -82.8821   29.2502    1.9722 C   0  0  0  0  0  0  0  0  0  0  0  0
  -83.3232   27.9814    2.5416 C   0  0  0  0  0  0  0  0  0  0  0  0
  -82.3316   27.0482    2.8658 O   0  0  0  0  0  0  0  0  0  0  0  0
  -84.5054   27.6346    2.7752 O   0  0  0  0  0  0  0  0  0  0  0  0
  -81.6610   27.3635    3.5774 H   0  0  0  0  0  0  0  0  0  0  0  0
  -87.1740   28.6984   -0.4255 C   0  0  0  0  0  0  0  0  0  0  0  0
  -88.0726   28.0258    0.4667 N   0  0  0  0  0  0  0  0  0  0  0  0
  -87.9366   26.6550    0.7341 C   0  0  0  0  0  0  0  0  0  0  0  0
  -86.9851   26.0012    0.1861 O   0  0  0  0  0  0  0  0  0  0  0  0
  -88.8227   28.5758    0.9158 H   0  0  0  0  0  0  0  0  0  0  0  0
  -88.8722   25.9069    1.6511 C   0  0  0  0  0  0  0  0  0  0  0  0
  -89.3964   26.8051    2.6038 N   0  0  0  0  0  0  0  0  0  0  0  0
  -89.6000   26.4787    3.9815 C   0  0  0  0  0  0  0  0  0  0  0  0
  -90.1441   27.4238    4.9595 C   0  0  0  0  0  0  0  0  0  0  0  0
  -89.2912   25.3093    4.3712 O   0  0  0  0  0  0  0  0  0  0  0  0
  -89.6397   27.7946    2.3353 H   0  0  0  0  0  0  0  0  0  0  0  0
  -89.7571   25.0383    0.8594 C   0  0  0  0  0  0  0  0  0  0  0  0
  -91.2040   25.3263    0.7933 C   0  0  0  0  0  0  0  0  0  0  0  0
  -91.5893   26.5158    0.0569 C   0  0  0  0  0  0  0  0  0  0  0  0
  -91.7071   27.7657    0.7018 O   0  0  0  0  0  0  0  0  0  0  0  0
  -91.8396   26.5345   -1.1606 O   0  0  0  0  0  0  0  0  0  0  0  0
  -92.6324   28.0321    1.0683 H   0  0  0  0  0  0  0  0  0  0  0  0
  -89.4078   29.4882   -1.1434 C   0  0  0  0  0  0  0  0  0  0  0  0
  -87.9230   29.4961   -1.4542 C   0  0  0  0  0  0  0  0  0  0  0  0
  -87.7242   28.8993   -2.8505 C   0  0  0  0  0  0  0  0  0  0  0  0
 39 40  1  0  0  0
 40 41  1  0  0  0
 40 22  1  0  0  0
 22 23  1  0  0  0
 23 24  1  0  0  0
 24 25  2  0  0  0
 24 27  1  0  0  0
 27 33  1  0  0  0
 33 34  1  0  0  0
 34 35  1  0  0  0
 35 36  1  0  0  0
 35 37  2  0  0  0
 27 28  1  0  0  0
 28 29  1  0  0  0
 29 30  1  0  0  0
 29 31  2  0  0  0
 22  1  1  0  0  0
  1  2  2  0  0  0
  1  3  1  0  0  0
  3  5  1  0  0  0
  5 17  1  0  0  0
 17 18  1  0  0  0
 18 19  1  0  0  0
 18 20  2  0  0  0
  5  6  1  0  0  0
  6  7  2  0  0  0
  6  8  1  0  0  0
  8  9  1  0  0  0
  9 10  1  0  0  0
 10 11  1  0  0  0
 11 12  2  0  0  0
 12 13  1  0  0  0
 13 14  2  0  0  0
 14 15  1  0  0  0
 15 16  2  0  0  0
 16 11  1  0  0  0
 23 26  1  0  0  0
 36 38  1  0  0  0
 28 32  1  0  0  0
  3  4  1  0  0  0
 19 21  1  0  0  0
M  END
> <minimizedAffinity>
-7.51845

> <CNNscore>
0.2210327089

> <CNNaffinity>
6.5155782700

> <CNN_VS>
1.4401558638

> <CNNaffinity_variance>
0.2824824452

$$$$
[H]OC(=O)C([H])([H])C([H])([H])[C@@]([H])(C(=O)N([H])[C@]([H])(C(=O)N([H])[C@]([H])(C(=O)C([H])([H])SC([H])([H])c1c([H])c([H])c([H])c([H])c1[H])C([H])([H])C(=O)O[H])C([H])(C([H])([H])[H])C([H])([H])[H])N([H])C(=O)C([H])([H])[H]


 41 41  0  0  0  0  0  0  0  0999 V2000
  -90.0284   26.7980    2.4157 C   0  0  0  0  0  0  0  0  0  0  0  0
  -90.4525   27.9047    2.8366 O   0  0  0  0  0  0  0  0  0  0  0  0
  -88.9673   26.8296    1.4713 N   0  0  0  0  0  0  0  0  0  0  0  0
  -88.6255   25.8917    1.1184 H   0  0  0  0  0  0  0  0  0  0  0  0
  -88.3261   27.9925    0.9589 C   0  0  0  0  0  0  0  0  0  0  0  0
  -89.0344   28.5894   -0.2400 C   0  0  0  0  0  0  0  0  0  0  0  0
  -90.1968   28.9299   -0.1988 O   0  0  0  0  0  0  0  0  0  0  0  0
  -88.3277   28.7838   -1.5244 C   0  0  0  0  0  0  0  0  0  0  0  0
  -87.8858   30.4894   -1.8629 S   0  0  0  0  0  0  0  0  0  0  0  0
  -87.4769   31.4169   -0.3882 C   0  0  0  0  0  0  0  0  0  0  0  0
  -86.0402   31.7784   -0.3188 C   0  0  0  0  0  0  0  0  0  0  0  0
  -85.6712   32.9626   -0.9058 C   0  0  0  0  0  0  0  0  0  0  0  0
  -84.3776   33.4310   -0.9253 C   0  0  0  0  0  0  0  0  0  0  0  0
  -83.4453   32.6113   -0.2990 C   0  0  0  0  0  0  0  0  0  0  0  0
  -83.7746   31.4197    0.2989 C   0  0  0  0  0  0  0  0  0  0  0  0
  -85.0896   31.0010    0.2875 C   0  0  0  0  0  0  0  0  0  0  0  0
  -86.8647   27.8877    0.7367 C   0  0  0  0  0  0  0  0  0  0  0  0
  -86.0805   27.4517    1.8873 C   0  0  0  0  0  0  0  0  0  0  0  0
  -85.2325   28.3965    2.4766 O   0  0  0  0  0  0  0  0  0  0  0  0
  -86.0858   26.3121    2.4103 O   0  0  0  0  0  0  0  0  0  0  0  0
  -85.7094   29.2210    2.8615 H   0  0  0  0  0  0  0  0  0  0  0  0
  -90.6256   25.5254    2.8972 C   0  0  0  0  0  0  0  0  0  0  0  0
  -90.2762   24.4463    2.0202 N   0  0  0  0  0  0  0  0  0  0  0  0
  -91.1856   23.4137    1.7444 C   0  0  0  0  0  0  0  0  0  0  0  0
  -92.3496   23.4468    2.2708 O   0  0  0  0  0  0  0  0  0  0  0  0
  -89.3380   24.4479    1.5883 H   0  0  0  0  0  0  0  0  0  0  0  0
  -90.8501   22.2515    0.8430 C   0  0  0  0  0  0  0  0  0  0  0  0
  -90.7945   22.7066   -0.4909 N   0  0  0  0  0  0  0  0  0  0  0  0
  -91.9180   22.7238   -1.3760 C   0  0  0  0  0  0  0  0  0  0  0  0
  -91.8445   23.2015   -2.7589 C   0  0  0  0  0  0  0  0  0  0  0  0
  -93.0332   22.3033   -0.9355 O   0  0  0  0  0  0  0  0  0  0  0  0
  -89.8997   23.0920   -0.8923 H   0  0  0  0  0  0  0  0  0  0  0  0
  -89.7472   21.4713    1.4253 C   0  0  0  0  0  0  0  0  0  0  0  0
  -89.9079   20.8487    2.7547 C   0  0  0  0  0  0  0  0  0  0  0  0
  -88.8340   19.9747    3.1890 C   0  0  0  0  0  0  0  0  0  0  0  0
  -87.6804   19.7891    2.3974 O   0  0  0  0  0  0  0  0  0  0  0  0
  -88.8387   19.3379    4.2566 O   0  0  0  0  0  0  0  0  0  0  0  0
  -87.6755   19.0026    1.7318 H   0  0  0  0  0  0  0  0  0  0  0  0
  -90.1939   26.5237    5.1212 C   0  0  0  0  0  0  0  0  0  0  0  0
  -90.1925   25.2435    4.3074 C   0  0  0  0  0  0  0  0  0  0  0  0
  -88.7751   24.6638    4.3315 C   0  0  0  0  0  0  0  0  0  0  0  0
 39 40  1  0  0  0
 40 41  1  0  0  0
 40 22  1  0  0  0
 22 23  1  0  0  0
 23 24  1  0  0  0
 24 25  2  0  0  0
 24 27  1  0  0  0
 27 33  1  0  0  0
 33 34  1  0  0  0
 34 35  1  0  0  0
 35 36  1  0  0  0
 35 37  2  0  0  0
 27 28  1  0  0  0
 28 29  1  0  0  0
 29 30  1  0  0  0
 29 31  2  0  0  0
 22  1  1  0  0  0
  1  2  2  0  0  0
  1  3  1  0  0  0
  3  5  1  0  0  0
  5 17  1  0  0  0
 17 18  1  0  0  0
 18 19  1  0  0  0
 18 20  2  0  0  0
  5  6  1  0  0  0
  6  7  2  0  0  0
  6  8  1  0  0  0
  8  9  1  0  0  0
  9 10  1  0  0  0
 10 11  1  0  0  0
 11 12  2  0  0  0
 12 13  1  0  0  0
 13 14  2  0  0  0
 14 15  1  0  0  0
 15 16  2  0  0  0
 16 11  1  0  0  0
 23 26  1  0  0  0
 36 38  1  0  0  0
 28 32  1  0  0  0
  3  4  1  0  0  0
 19 21  1  0  0  0
M  END
> <minimizedAffinity>
-7.37055

> <CNNscore>
0.1288708448

> <CNNaffinity>
5.9469671249

> <CNN_VS>
0.7663906813

> <CNNaffinity_variance>
0.1403246820

$$$$
[H]OC(=O)C([H])([H])C([H])([H])[C@@]([H])(C(=O)N([H])[C@]([H])(C(=O)N([H])[C@]([H])(C(=O)C([H])([H])SC([H])([H])c1c([H])c([H])c([H])c([H])c1[H])C([H])([H])C(=O)O[H])C([H])(C([H])([H])[H])C([H])([H])[H])N([H])C(=O)C([H])([H])[H]


 41 41  0  0  0  0  0  0  0  0999 V2000
  -88.2466   29.3394   -2.4562 C   0  0  0  0  0  0  0  0  0  0  0  0
  -87.7475   29.0809   -3.5814 O   0  0  0  0  0  0  0  0  0  0  0  0
  -88.3097   30.7070   -2.0762 N   0  0  0  0  0  0  0  0  0  0  0  0
  -88.7239   30.9103   -1.1232 H   0  0  0  0  0  0  0  0  0  0  0  0
  -87.8722   31.8199   -2.8483 C   0  0  0  0  0  0  0  0  0  0  0  0
  -86.8967   32.7151   -2.1118 C   0  0  0  0  0  0  0  0  0  0  0  0
  -86.8088   33.9014   -2.3435 O   0  0  0  0  0  0  0  0  0  0  0  0
  -86.0020   32.1714   -1.0674 C   0  0  0  0  0  0  0  0  0  0  0  0
  -84.6312   33.2500   -0.6476 S   0  0  0  0  0  0  0  0  0  0  0  0
  -83.2376   32.3759    0.0570 C   0  0  0  0  0  0  0  0  0  0  0  0
  -83.6488   31.3065    0.9986 C   0  0  0  0  0  0  0  0  0  0  0  0
  -84.6456   31.6163    1.8894 C   0  0  0  0  0  0  0  0  0  0  0  0
  -85.1319   30.7315    2.8244 C   0  0  0  0  0  0  0  0  0  0  0  0
  -84.5370   29.4749    2.8108 C   0  0  0  0  0  0  0  0  0  0  0  0
  -83.5372   29.1267    1.9362 C   0  0  0  0  0  0  0  0  0  0  0  0
  -83.0899   30.0564    1.0196 C   0  0  0  0  0  0  0  0  0  0  0  0
  -88.9335   32.6034   -3.5235 C   0  0  0  0  0  0  0  0  0  0  0  0
  -89.1695   32.2710   -4.9245 C   0  0  0  0  0  0  0  0  0  0  0  0
  -88.5867   31.0939   -5.4081 O   0  0  0  0  0  0  0  0  0  0  0  0
  -89.8455   32.9316   -5.7486 O   0  0  0  0  0  0  0  0  0  0  0  0
  -88.9045   30.2347   -4.9433 H   0  0  0  0  0  0  0  0  0  0  0  0
  -88.7416   28.2473   -1.5785 C   0  0  0  0  0  0  0  0  0  0  0  0
  -89.6603   27.4098   -2.2929 N   0  0  0  0  0  0  0  0  0  0  0  0
  -91.0448   27.5163   -2.0907 C   0  0  0  0  0  0  0  0  0  0  0  0
  -91.4929   28.3864   -1.2690 O   0  0  0  0  0  0  0  0  0  0  0  0
  -89.2799   26.7267   -2.9678 H   0  0  0  0  0  0  0  0  0  0  0  0
  -92.0428   26.6412   -2.8078 C   0  0  0  0  0  0  0  0  0  0  0  0
  -91.9201   26.8492   -4.1974 N   0  0  0  0  0  0  0  0  0  0  0  0
  -92.8435   27.6171   -4.9744 C   0  0  0  0  0  0  0  0  0  0  0  0
  -92.7012   27.8255   -6.4174 C   0  0  0  0  0  0  0  0  0  0  0  0
  -93.8347   28.1430   -4.3780 O   0  0  0  0  0  0  0  0  0  0  0  0
  -91.0997   26.4582   -4.7309 H   0  0  0  0  0  0  0  0  0  0  0  0
  -92.0165   25.2850   -2.2381 C   0  0  0  0  0  0  0  0  0  0  0  0
  -92.7784   24.1993   -2.8872 C   0  0  0  0  0  0  0  0  0  0  0  0
  -92.2172   22.8657   -2.7771 C   0  0  0  0  0  0  0  0  0  0  0  0
  -91.4840   22.4757   -1.6358 O   0  0  0  0  0  0  0  0  0  0  0  0
  -92.3302   21.9851   -3.6471 O   0  0  0  0  0  0  0  0  0  0  0  0
  -90.4616   22.6018   -1.6552 H   0  0  0  0  0  0  0  0  0  0  0  0
  -88.1035   26.2281   -0.2961 C   0  0  0  0  0  0  0  0  0  0  0  0
  -87.5911   27.4518   -1.0318 C   0  0  0  0  0  0  0  0  0  0  0  0
  -86.7722   28.2926   -0.0478 C   0  0  0  0  0  0  0  0  0  0  0  0
 39 40  1  0  0  0
 40 41  1  0  0  0
 40 22  1  0  0  0
 22 23  1  0  0  0
 23 24  1  0  0  0
 24 25  2  0  0  0
 24 27  1  0  0  0
 27 33  1  0  0  0
 33 34  1  0  0  0
 34 35  1  0  0  0
 35 36  1  0  0  0
 35 37  2  0  0  0
 27 28  1  0  0  0
 28 29  1  0  0  0
 29 30  1  0  0  0
 29 31  2  0  0  0
 22  1  1  0  0  0
  1  2  2  0  0  0
  1  3  1  0  0  0
  3  5  1  0  0  0
  5 17  1  0  0  0
 17 18  1  0  0  0
 18 19  1  0  0  0
 18 20  2  0  0  0
  5  6  1  0  0  0
  6  7  2  0  0  0
  6  8  1  0  0  0
  8  9  1  0  0  0
  9 10  1  0  0  0
 10 11  1  0  0  0
 11 12  2  0  0  0
 12 13  1  0  0  0
 13 14  2  0  0  0
 14 15  1  0  0  0
 15 16  2  0  0  0
 16 11  1  0  0  0
 23 26  1  0  0  0
 36 38  1  0  0  0
 28 32  1  0  0  0
  3  4  1  0  0  0
 19 21  1  0  0  0
M  END
> <minimizedAffinity>
-7.54091

> <CNNscore>
0.0985517427

> <CNNaffinity>
5.7966012955

> <CNN_VS>
0.5712651610

> <CNNaffinity_variance>
0.3469780982

$$$$
[H]OC(=O)C([H])([H])C([H])([H])[C@@]([H])(C(=O)N([H])[C@]([H])(C(=O)N([H])[C@]([H])(C(=O)C([H])([H])SC([H])([H])c1c([H])c([H])c([H])c([H])c1[H])C([H])([H])C(=O)O[H])C([H])(C([H])([H])[H])C([H])([H])[H])N([H])C(=O)C([H])([H])[H]


 41 41  0  0  0  0  0  0  0  0999 V2000
  -91.0985   30.4413   -3.5211 C   0  0  0  0  0  0  0  0  0  0  0  0
  -91.5838   31.1293   -2.5867 O   0  0  0  0  0  0  0  0  0  0  0  0
  -90.1005   31.0554   -4.3247 N   0  0  0  0  0  0  0  0  0  0  0  0
  -89.7066   30.4687   -5.1131 H   0  0  0  0  0  0  0  0  0  0  0  0
  -89.5850   32.3733   -4.1718 C   0  0  0  0  0  0  0  0  0  0  0  0
  -88.7943   32.5641   -2.8936 C   0  0  0  0  0  0  0  0  0  0  0  0
  -89.0955   33.3979   -2.0673 O   0  0  0  0  0  0  0  0  0  0  0  0
  -87.6091   31.7304   -2.5985 C   0  0  0  0  0  0  0  0  0  0  0  0
  -87.3511   31.4224   -0.8500 S   0  0  0  0  0  0  0  0  0  0  0  0
  -85.9362   32.2918   -0.1830 C   0  0  0  0  0  0  0  0  0  0  0  0
  -84.9749   31.3877    0.4935 C   0  0  0  0  0  0  0  0  0  0  0  0
  -83.6466   31.7216    0.4084 C   0  0  0  0  0  0  0  0  0  0  0  0
  -82.6381   30.9812    0.9812 C   0  0  0  0  0  0  0  0  0  0  0  0
  -83.0576   29.8470    1.6675 C   0  0  0  0  0  0  0  0  0  0  0  0
  -84.3762   29.4790    1.7748 C   0  0  0  0  0  0  0  0  0  0  0  0
  -85.3446   30.2615    1.1794 C   0  0  0  0  0  0  0  0  0  0  0  0
  -90.5458   33.4797   -4.3928 C   0  0  0  0  0  0  0  0  0  0  0  0
  -91.0474   33.6178   -5.7560 C   0  0  0  0  0  0  0  0  0  0  0  0
  -91.9431   32.6421   -6.2084 O   0  0  0  0  0  0  0  0  0  0  0  0
  -90.7608   34.5254   -6.5724 O   0  0  0  0  0  0  0  0  0  0  0  0
  -92.8211   32.5857   -5.6779 H   0  0  0  0  0  0  0  0  0  0  0  0
  -91.5634   29.0499   -3.7573 C   0  0  0  0  0  0  0  0  0  0  0  0
  -91.1317   28.1915   -2.6931 N   0  0  0  0  0  0  0  0  0  0  0  0
  -89.7717   27.9035   -2.5014 C   0  0  0  0  0  0  0  0  0  0  0  0
  -88.9043   28.4298   -3.2783 O   0  0  0  0  0  0  0  0  0  0  0  0
  -91.8461   27.7921   -2.0631 H   0  0  0  0  0  0  0  0  0  0  0  0
  -89.2785   26.9907   -1.4062 C   0  0  0  0  0  0  0  0  0  0  0  0
  -89.3474   25.6557   -1.8559 N   0  0  0  0  0  0  0  0  0  0  0  0
  -90.0526   24.6175   -1.1699 C   0  0  0  0  0  0  0  0  0  0  0  0
  -90.1162   23.2353   -1.6511 C   0  0  0  0  0  0  0  0  0  0  0  0
  -90.6526   24.9145   -0.0899 O   0  0  0  0  0  0  0  0  0  0  0  0
  -88.8908   25.3673   -2.7608 H   0  0  0  0  0  0  0  0  0  0  0  0
  -88.0405   27.5330   -0.8252 C   0  0  0  0  0  0  0  0  0  0  0  0
  -87.1025   26.6349   -0.1221 C   0  0  0  0  0  0  0  0  0  0  0  0
  -87.3491   26.4287    1.2929 C   0  0  0  0  0  0  0  0  0  0  0  0
  -88.4510   25.6666    1.7370 O   0  0  0  0  0  0  0  0  0  0  0  0
  -86.6367   26.8891    2.2016 O   0  0  0  0  0  0  0  0  0  0  0  0
  -89.3290   26.1652    1.9419 H   0  0  0  0  0  0  0  0  0  0  0  0
  -93.6808   28.1977   -2.7986 C   0  0  0  0  0  0  0  0  0  0  0  0
  -93.0567   29.0154   -3.9135 C   0  0  0  0  0  0  0  0  0  0  0  0
  -93.4455   28.3761   -5.2498 C   0  0  0  0  0  0  0  0  0  0  0  0
 39 40  1  0  0  0
 40 41  1  0  0  0
 40 22  1  0  0  0
 22 23  1  0  0  0
 23 24  1  0  0  0
 24 25  2  0  0  0
 24 27  1  0  0  0
 27 33  1  0  0  0
 33 34  1  0  0  0
 34 35  1  0  0  0
 35 36  1  0  0  0
 35 37  2  0  0  0
 27 28  1  0  0  0
 28 29  1  0  0  0
 29 30  1  0  0  0
 29 31  2  0  0  0
 22  1  1  0  0  0
  1  2  2  0  0  0
  1  3  1  0  0  0
  3  5  1  0  0  0
  5 17  1  0  0  0
 17 18  1  0  0  0
 18 19  1  0  0  0
 18 20  2  0  0  0
  5  6  1  0  0  0
  6  7  2  0  0  0
  6  8  1  0  0  0
  8  9  1  0  0  0
  9 10  1  0  0  0
 10 11  1  0  0  0
 11 12  2  0  0  0
 12 13  1  0  0  0
 13 14  2  0  0  0
 14 15  1  0  0  0
 15 16  2  0  0  0
 16 11  1  0  0  0
 23 26  1  0  0  0
 36 38  1  0  0  0
 28 32  1  0  0  0
  3  4  1  0  0  0
 19 21  1  0  0  0
M  END
> <minimizedAffinity>
-6.77660

> <CNNscore>
0.0977807194

> <CNNaffinity>
5.7979397774

> <CNN_VS>
0.5669267178

> <CNNaffinity_variance>
0.2348956168

$$$$
[H]OC(=O)C([H])([H])C([H])([H])[C@@]([H])(C(=O)N([H])[C@]([H])(C(=O)N([H])[C@]([H])(C(=O)C([H])([H])SC([H])([H])c1c([H])c([H])c([H])c([H])c1[H])C([H])([H])C(=O)O[H])C([H])(C([H])([H])[H])C([H])([H])[H])N([H])C(=O)C([H])([H])[H]


 41 41  0  0  0  0  0  0  0  0999 V2000
  -88.2743   31.8581   -1.5121 C   0  0  0  0  0  0  0  0  0  0  0  0
  -89.0747   32.0993   -0.5724 O   0  0  0  0  0  0  0  0  0  0  0  0
  -88.4782   30.6563   -2.2421 N   0  0  0  0  0  0  0  0  0  0  0  0
  -87.7923   30.4608   -3.0246 H   0  0  0  0  0  0  0  0  0  0  0  0
  -89.5078   29.6982   -2.0225 C   0  0  0  0  0  0  0  0  0  0  0  0
  -89.0922   28.2816   -2.3629 C   0  0  0  0  0  0  0  0  0  0  0  0
  -89.6063   27.6581   -3.2660 O   0  0  0  0  0  0  0  0  0  0  0  0
  -88.0291   27.5943   -1.5985 C   0  0  0  0  0  0  0  0  0  0  0  0
  -88.6355   26.3221   -0.4882 S   0  0  0  0  0  0  0  0  0  0  0  0
  -88.1659   26.5936    1.2172 C   0  0  0  0  0  0  0  0  0  0  0  0
  -89.2066   27.3138    1.9903 C   0  0  0  0  0  0  0  0  0  0  0  0
  -90.0967   28.0721    1.2722 C   0  0  0  0  0  0  0  0  0  0  0  0
  -91.1144   28.7981    1.8472 C   0  0  0  0  0  0  0  0  0  0  0  0
  -91.1869   28.7142    3.2332 C   0  0  0  0  0  0  0  0  0  0  0  0
  -90.3154   27.9671    3.9870 C   0  0  0  0  0  0  0  0  0  0  0  0
  -89.3139   27.2589    3.3544 C   0  0  0  0  0  0  0  0  0  0  0  0
  -90.8384   30.0297   -2.5844 C   0  0  0  0  0  0  0  0  0  0  0  0
  -90.8283   30.6805   -3.8903 C   0  0  0  0  0  0  0  0  0  0  0  0
  -91.2112   29.9067   -4.9919 O   0  0  0  0  0  0  0  0  0  0  0  0
  -90.5119   31.8693   -4.1335 O   0  0  0  0  0  0  0  0  0  0  0  0
  -92.1745   29.5519   -4.9537 H   0  0  0  0  0  0  0  0  0  0  0  0
  -87.1705   32.8016   -1.8276 C   0  0  0  0  0  0  0  0  0  0  0  0
  -87.6987   34.0501   -2.2946 N   0  0  0  0  0  0  0  0  0  0  0  0
  -87.8885   34.2892   -3.6642 C   0  0  0  0  0  0  0  0  0  0  0  0
  -87.6019   33.3715   -4.5060 O   0  0  0  0  0  0  0  0  0  0  0  0
  -87.9435   34.7718   -1.5974 H   0  0  0  0  0  0  0  0  0  0  0  0
  -88.4233   35.5953   -4.1970 C   0  0  0  0  0  0  0  0  0  0  0  0
  -87.6725   36.6561   -3.6490 N   0  0  0  0  0  0  0  0  0  0  0  0
  -88.2057   37.9557   -3.3792 C   0  0  0  0  0  0  0  0  0  0  0  0
  -87.4129   39.0470   -2.8079 C   0  0  0  0  0  0  0  0  0  0  0  0
  -89.4288   38.1685   -3.6500 O   0  0  0  0  0  0  0  0  0  0  0  0
  -86.6626   36.5197   -3.3807 H   0  0  0  0  0  0  0  0  0  0  0  0
  -88.6411   35.4899   -5.6482 C   0  0  0  0  0  0  0  0  0  0  0  0
  -89.9520   35.0488   -6.1654 C   0  0  0  0  0  0  0  0  0  0  0  0
  -91.1090   35.3907   -5.3591 C   0  0  0  0  0  0  0  0  0  0  0  0
  -91.6933   34.4477   -4.4865 O   0  0  0  0  0  0  0  0  0  0  0  0
  -91.6640   36.5030   -5.3680 O   0  0  0  0  0  0  0  0  0  0  0  0
  -92.4658   33.8708   -4.8498 H   0  0  0  0  0  0  0  0  0  0  0  0
  -84.9875   33.6606   -1.0366 C   0  0  0  0  0  0  0  0  0  0  0  0
  -86.2891   32.9975   -0.6275 C   0  0  0  0  0  0  0  0  0  0  0  0
  -85.9556   31.6518    0.0233 C   0  0  0  0  0  0  0  0  0  0  0  0
 39 40  1  0  0  0
 40 41  1  0  0  0
 40 22  1  0  0  0
 22 23  1  0  0  0
 23 24  1  0  0  0
 24 25  2  0  0  0
 24 27  1  0  0  0
 27 33  1  0  0  0
 33 34  1  0  0  0
 34 35  1  0  0  0
 35 36  1  0  0  0
 35 37  2  0  0  0
 27 28  1  0  0  0
 28 29  1  0  0  0
 29 30  1  0  0  0
 29 31  2  0  0  0
 22  1  1  0  0  0
  1  2  2  0  0  0
  1  3  1  0  0  0
  3  5  1  0  0  0
  5 17  1  0  0  0
 17 18  1  0  0  0
 18 19  1  0  0  0
 18 20  2  0  0  0
  5  6  1  0  0  0
  6  7  2  0  0  0
  6  8  1  0  0  0
  8  9  1  0  0  0
  9 10  1  0  0  0
 10 11  1  0  0  0
 11 12  2  0  0  0
 12 13  1  0  0  0
 13 14  2  0  0  0
 14 15  1  0  0  0
 15 16  2  0  0  0
 16 11  1  0  0  0
 23 26  1  0  0  0
 36 38  1  0  0  0
 28 32  1  0  0  0
  3  4  1  0  0  0
 19 21  1  0  0  0
M  END
> <minimizedAffinity>
-6.51142

> <CNNscore>
0.0790117383

> <CNNaffinity>
5.5796194077

> <CNN_VS>
0.4408554137

> <CNNaffinity_variance>
0.3591221869

$$$$
[H]OC(=O)C([H])([H])C([H])([H])[C@@]([H])(C(=O)N([H])[C@]([H])(C(=O)N([H])[C@]([H])(C(=O)C([H])([H])SC([H])([H])c1c([H])c([H])c([H])c([H])c1[H])C([H])([H])C(=O)O[H])C([H])(C([H])([H])[H])C([H])([H])[H])N([H])C(=O)C([H])([H])[H]


 41 41  0  0  0  0  0  0  0  0999 V2000
  -89.1530   29.4271   -2.7454 C   0  0  0  0  0  0  0  0  0  0  0  0
  -88.1618   28.8111   -3.2143 O   0  0  0  0  0  0  0  0  0  0  0  0
  -88.9809   30.8091   -2.4640 N   0  0  0  0  0  0  0  0  0  0  0  0
  -89.8201   31.3139   -2.0615 H   0  0  0  0  0  0  0  0  0  0  0  0
  -87.7972   31.5726   -2.6697 C   0  0  0  0  0  0  0  0  0  0  0  0
  -87.2801   32.2302   -1.4066 C   0  0  0  0  0  0  0  0  0  0  0  0
  -87.7621   33.2518   -0.9676 O   0  0  0  0  0  0  0  0  0  0  0  0
  -86.1532   31.6450   -0.6486 C   0  0  0  0  0  0  0  0  0  0  0  0
  -85.0220   32.8605    0.0311 S   0  0  0  0  0  0  0  0  0  0  0  0
  -83.5128   32.1395    0.6674 C   0  0  0  0  0  0  0  0  0  0  0  0
  -83.7552   30.9102    1.4608 C   0  0  0  0  0  0  0  0  0  0  0  0
  -84.8725   30.8985    2.2574 C   0  0  0  0  0  0  0  0  0  0  0  0
  -85.2289   29.8329    3.0518 C   0  0  0  0  0  0  0  0  0  0  0  0
  -84.3669   28.7434    2.9965 C   0  0  0  0  0  0  0  0  0  0  0  0
  -83.2394   28.7167    2.2129 C   0  0  0  0  0  0  0  0  0  0  0  0
  -82.9328   29.8155    1.4362 C   0  0  0  0  0  0  0  0  0  0  0  0
  -87.8204   32.5180   -3.8106 C   0  0  0  0  0  0  0  0  0  0  0  0
  -88.7264   32.1709   -4.9003 C   0  0  0  0  0  0  0  0  0  0  0  0
  -88.5028   30.9529   -5.5528 O   0  0  0  0  0  0  0  0  0  0  0  0
  -89.6932   32.8517   -5.3179 O   0  0  0  0  0  0  0  0  0  0  0  0
  -88.5852   30.1228   -4.9532 H   0  0  0  0  0  0  0  0  0  0  0  0
  -90.4380   28.7212   -2.5032 C   0  0  0  0  0  0  0  0  0  0  0  0
  -90.4570   28.1564   -1.1855 N   0  0  0  0  0  0  0  0  0  0  0  0
  -90.1483   26.8042   -0.9726 C   0  0  0  0  0  0  0  0  0  0  0  0
  -89.8283   26.0702   -1.9686 O   0  0  0  0  0  0  0  0  0  0  0  0
  -90.6981   28.7706   -0.3908 H   0  0  0  0  0  0  0  0  0  0  0  0
  -90.1755   26.1675    0.3949 C   0  0  0  0  0  0  0  0  0  0  0  0
  -90.8294   27.0369    1.2927 N   0  0  0  0  0  0  0  0  0  0  0  0
  -90.2839   27.4429    2.5510 C   0  0  0  0  0  0  0  0  0  0  0  0
  -90.9751   28.3483    3.4721 C   0  0  0  0  0  0  0  0  0  0  0  0
  -89.1422   26.9933    2.8812 O   0  0  0  0  0  0  0  0  0  0  0  0
  -91.7642   27.4587    1.0505 H   0  0  0  0  0  0  0  0  0  0  0  0
  -90.5734   24.7559    0.2796 C   0  0  0  0  0  0  0  0  0  0  0  0
  -90.4131   23.8495    1.4343 C   0  0  0  0  0  0  0  0  0  0  0  0
  -91.6018   23.6065    2.2303 C   0  0  0  0  0  0  0  0  0  0  0  0
  -92.8224   23.2397    1.6239 O   0  0  0  0  0  0  0  0  0  0  0  0
  -91.6448   23.6975    3.4693 O   0  0  0  0  0  0  0  0  0  0  0  0
  -93.4813   23.9921    1.3765 H   0  0  0  0  0  0  0  0  0  0  0  0
  -92.8445   29.0940   -2.0575 C   0  0  0  0  0  0  0  0  0  0  0  0
  -91.5962   29.6538   -2.7131 C   0  0  0  0  0  0  0  0  0  0  0  0
  -91.8811   29.8336   -4.2071 C   0  0  0  0  0  0  0  0  0  0  0  0
 39 40  1  0  0  0
 40 41  1  0  0  0
 40 22  1  0  0  0
 22 23  1  0  0  0
 23 24  1  0  0  0
 24 25  2  0  0  0
 24 27  1  0  0  0
 27 33  1  0  0  0
 33 34  1  0  0  0
 34 35  1  0  0  0
 35 36  1  0  0  0
 35 37  2  0  0  0
 27 28  1  0  0  0
 28 29  1  0  0  0
 29 30  1  0  0  0
 29 31  2  0  0  0
 22  1  1  0  0  0
  1  2  2  0  0  0
  1  3  1  0  0  0
  3  5  1  0  0  0
  5 17  1  0  0  0
 17 18  1  0  0  0
 18 19  1  0  0  0
 18 20  2  0  0  0
  5  6  1  0  0  0
  6  7  2  0  0  0
  6  8  1  0  0  0
  8  9  1  0  0  0
  9 10  1  0  0  0
 10 11  1  0  0  0
 11 12  2  0  0  0
 12 13  1  0  0  0
 13 14  2  0  0  0
 14 15  1  0  0  0
 15 16  2  0  0  0
 16 11  1  0  0  0
 23 26  1  0  0  0
 36 38  1  0  0  0
 28 32  1  0  0  0
  3  4  1  0  0  0
 19 21  1  0  0  0
M  END
> <minimizedAffinity>
-8.17499

> <CNNscore>
0.0675425380

> <CNNaffinity>
5.7326741219

> <CNN_VS>
0.3871993721

> <CNNaffinity_variance>
0.3015996218

$$$$
[H]OC(=O)C([H])([H])C([H])([H])[C@@]([H])(C(=O)N([H])[C@]([H])(C(=O)N([H])[C@]([H])(C(=O)C([H])([H])SC([H])([H])c1c([H])c([H])c([H])c([H])c1[H])C([H])([H])C(=O)O[H])C([H])(C([H])([H])[H])C([H])([H])[H])N([H])C(=O)C([H])([H])[H]


 41 41  0  0  0  0  0  0  0  0999 V2000
  -90.5305   29.7864   -1.7530 C   0  0  0  0  0  0  0  0  0  0  0  0
  -91.0333   29.5563   -0.6234 O   0  0  0  0  0  0  0  0  0  0  0  0
  -89.8716   28.7060   -2.3992 N   0  0  0  0  0  0  0  0  0  0  0  0
  -89.4451   28.9153   -3.3454 H   0  0  0  0  0  0  0  0  0  0  0  0
  -89.7313   27.3808   -1.8990 C   0  0  0  0  0  0  0  0  0  0  0  0
  -88.3703   27.1095   -1.2913 C   0  0  0  0  0  0  0  0  0  0  0  0
  -87.3663   27.6624   -1.6850 O   0  0  0  0  0  0  0  0  0  0  0  0
  -88.2096   26.1480   -0.1793 C   0  0  0  0  0  0  0  0  0  0  0  0
  -89.7555   25.4678    0.4259 S   0  0  0  0  0  0  0  0  0  0  0  0
  -90.7851   26.6801    1.2460 C   0  0  0  0  0  0  0  0  0  0  0  0
  -90.4923   26.7939    2.6954 C   0  0  0  0  0  0  0  0  0  0  0  0
  -90.2613   25.6235    3.3736 C   0  0  0  0  0  0  0  0  0  0  0  0
  -89.9795   25.5673    4.7193 C   0  0  0  0  0  0  0  0  0  0  0  0
  -89.9425   26.7983    5.3648 C   0  0  0  0  0  0  0  0  0  0  0  0
  -90.1685   27.9905    4.7219 C   0  0  0  0  0  0  0  0  0  0  0  0
  -90.4463   27.9848    3.3700 C   0  0  0  0  0  0  0  0  0  0  0  0
  -90.1522   26.2911   -2.8109 C   0  0  0  0  0  0  0  0  0  0  0  0
  -91.4335   26.4873   -3.4807 C   0  0  0  0  0  0  0  0  0  0  0  0
  -92.4856   25.6439   -3.1055 O   0  0  0  0  0  0  0  0  0  0  0  0
  -91.6961   27.3388   -4.3629 O   0  0  0  0  0  0  0  0  0  0  0  0
  -92.7633   25.7161   -2.1191 H   0  0  0  0  0  0  0  0  0  0  0  0
  -90.6318   31.1361   -2.3663 C   0  0  0  0  0  0  0  0  0  0  0  0
  -89.3264   31.6472   -2.6672 N   0  0  0  0  0  0  0  0  0  0  0  0
  -88.6364   32.4559   -1.7512 C   0  0  0  0  0  0  0  0  0  0  0  0
  -89.1747   32.7255   -0.6240 O   0  0  0  0  0  0  0  0  0  0  0  0
  -88.8996   31.4014   -3.5750 H   0  0  0  0  0  0  0  0  0  0  0  0
  -87.2705   33.0288   -2.0374 C   0  0  0  0  0  0  0  0  0  0  0  0
  -87.4202   34.3191   -2.5869 N   0  0  0  0  0  0  0  0  0  0  0  0
  -87.6902   34.5721   -3.9686 C   0  0  0  0  0  0  0  0  0  0  0  0
  -87.8447   35.9188   -4.5239 C   0  0  0  0  0  0  0  0  0  0  0  0
  -87.8011   33.5753   -4.7488 O   0  0  0  0  0  0  0  0  0  0  0  0
  -87.3660   35.1754   -1.9751 H   0  0  0  0  0  0  0  0  0  0  0  0
  -86.3799   32.7907   -0.8909 C   0  0  0  0  0  0  0  0  0  0  0  0
  -85.0552   33.4412   -0.8406 C   0  0  0  0  0  0  0  0  0  0  0  0
  -84.0237   32.7419   -0.0971 C   0  0  0  0  0  0  0  0  0  0  0  0
  -82.6600   33.0665   -0.2615 O   0  0  0  0  0  0  0  0  0  0  0  0
  -84.2454   31.8302    0.7183 O   0  0  0  0  0  0  0  0  0  0  0  0
  -82.1214   32.5381   -0.9631 H   0  0  0  0  0  0  0  0  0  0  0  0
  -91.0756   32.1736   -4.5697 C   0  0  0  0  0  0  0  0  0  0  0  0
  -91.4956   31.0907   -3.5939 C   0  0  0  0  0  0  0  0  0  0  0  0
  -92.9652   31.3203   -3.2292 C   0  0  0  0  0  0  0  0  0  0  0  0
 39 40  1  0  0  0
 40 41  1  0  0  0
 40 22  1  0  0  0
 22 23  1  0  0  0
 23 24  1  0  0  0
 24 25  2  0  0  0
 24 27  1  0  0  0
 27 33  1  0  0  0
 33 34  1  0  0  0
 34 35  1  0  0  0
 35 36  1  0  0  0
 35 37  2  0  0  0
 27 28  1  0  0  0
 28 29  1  0  0  0
 29 30  1  0  0  0
 29 31  2  0  0  0
 22  1  1  0  0  0
  1  2  2  0  0  0
  1  3  1  0  0  0
  3  5  1  0  0  0
  5 17  1  0  0  0
 17 18  1  0  0  0
 18 19  1  0  0  0
 18 20  2  0  0  0
  5  6  1  0  0  0
  6  7  2  0  0  0
  6  8  1  0  0  0
  8  9  1  0  0  0
  9 10  1  0  0  0
 10 11  1  0  0  0
 11 12  2  0  0  0
 12 13  1  0  0  0
 13 14  2  0  0  0
 14 15  1  0  0  0
 15 16  2  0  0  0
 16 11  1  0  0  0
 23 26  1  0  0  0
 36 38  1  0  0  0
 28 32  1  0  0  0
  3  4  1  0  0  0
 19 21  1  0  0  0
M  END
> <minimizedAffinity>
-6.70447

> <CNNscore>
0.0533156693

> <CNNaffinity>
5.5339288712

> <CNN_VS>
0.2950451076

> <CNNaffinity_variance>
0.1454885304

$$$$
[H]OC(=O)C([H])([H])C([H])([H])[C@@]([H])(C(=O)N([H])[C@]([H])(C(=O)N([H])[C@]([H])(C(=O)C([H])([H])SC([H])([H])c1c([H])c([H])c([H])c([H])c1[H])C([H])([H])C(=O)O[H])C([H])(C([H])([H])[H])C([H])([H])[H])N([H])C(=O)C([H])([H])[H]


 41 41  0  0  0  0  0  0  0  0999 V2000
  -89.2495   29.3895   -0.9114 C   0  0  0  0  0  0  0  0  0  0  0  0
  -90.0199   28.9019   -0.0451 O   0  0  0  0  0  0  0  0  0  0  0  0
  -87.9891   28.7568   -1.0846 N   0  0  0  0  0  0  0  0  0  0  0  0
  -87.3466   29.1823   -1.8106 H   0  0  0  0  0  0  0  0  0  0  0  0
  -87.5124   27.6154   -0.3803 C   0  0  0  0  0  0  0  0  0  0  0  0
  -88.3272   26.3651   -0.6418 C   0  0  0  0  0  0  0  0  0  0  0  0
  -88.8102   26.1254   -1.7271 O   0  0  0  0  0  0  0  0  0  0  0  0
  -88.5685   25.3743    0.4292 C   0  0  0  0  0  0  0  0  0  0  0  0
  -90.3010   24.9862    0.6869 S   0  0  0  0  0  0  0  0  0  0  0  0
  -90.6831   24.5628    2.3831 C   0  0  0  0  0  0  0  0  0  0  0  0
  -90.4755   25.6960    3.3171 C   0  0  0  0  0  0  0  0  0  0  0  0
  -90.6802   26.9567    2.8152 C   0  0  0  0  0  0  0  0  0  0  0  0
  -90.5250   28.1050    3.5573 C   0  0  0  0  0  0  0  0  0  0  0  0
  -90.1389   27.9046    4.8780 C   0  0  0  0  0  0  0  0  0  0  0  0
  -89.9239   26.6600    5.4170 C   0  0  0  0  0  0  0  0  0  0  0  0
  -90.0956   25.5437    4.6239 C   0  0  0  0  0  0  0  0  0  0  0  0
  -87.2464   27.8046    1.0653 C   0  0  0  0  0  0  0  0  0  0  0  0
  -85.8402   27.9061    1.4408 C   0  0  0  0  0  0  0  0  0  0  0  0
  -85.3040   26.8569    2.1962 O   0  0  0  0  0  0  0  0  0  0  0  0
  -85.0532   28.8398    1.1558 O   0  0  0  0  0  0  0  0  0  0  0  0
  -85.3204   25.9408    1.7316 H   0  0  0  0  0  0  0  0  0  0  0  0
  -89.6588   30.5759   -1.7071 C   0  0  0  0  0  0  0  0  0  0  0  0
  -88.5044   31.2898   -2.1691 N   0  0  0  0  0  0  0  0  0  0  0  0
  -88.0686   32.4572   -1.5238 C   0  0  0  0  0  0  0  0  0  0  0  0
  -88.7019   32.8793   -0.4972 O   0  0  0  0  0  0  0  0  0  0  0  0
  -87.9939   30.9216   -2.9880 H   0  0  0  0  0  0  0  0  0  0  0  0
  -86.8711   33.2475   -1.9900 C   0  0  0  0  0  0  0  0  0  0  0  0
  -87.3050   34.2636   -2.8666 N   0  0  0  0  0  0  0  0  0  0  0  0
  -87.6449   34.0432   -4.2384 C   0  0  0  0  0  0  0  0  0  0  0  0
  -88.0959   35.1094   -5.1360 C   0  0  0  0  0  0  0  0  0  0  0  0
  -87.5498   32.8616   -4.6959 O   0  0  0  0  0  0  0  0  0  0  0  0
  -87.4278   35.2533   -2.5262 H   0  0  0  0  0  0  0  0  0  0  0  0
  -85.9996   33.5539   -0.8449 C   0  0  0  0  0  0  0  0  0  0  0  0
  -84.5549   33.2575   -0.9197 C   0  0  0  0  0  0  0  0  0  0  0  0
  -84.0652   32.2193   -0.0320 C   0  0  0  0  0  0  0  0  0  0  0  0
  -84.8185   31.8015    1.0861 O   0  0  0  0  0  0  0  0  0  0  0  0
  -82.9797   31.6308   -0.1755 O   0  0  0  0  0  0  0  0  0  0  0  0
  -84.6398   32.2677    1.9874 H   0  0  0  0  0  0  0  0  0  0  0  0
  -90.1535   30.9204   -4.1081 C   0  0  0  0  0  0  0  0  0  0  0  0
  -90.5376   30.1614   -2.8522 C   0  0  0  0  0  0  0  0  0  0  0  0
  -92.0068   30.4632   -2.5423 C   0  0  0  0  0  0  0  0  0  0  0  0
 39 40  1  0  0  0
 40 41  1  0  0  0
 40 22  1  0  0  0
 22 23  1  0  0  0
 23 24  1  0  0  0
 24 25  2  0  0  0
 24 27  1  0  0  0
 27 33  1  0  0  0
 33 34  1  0  0  0
 34 35  1  0  0  0
 35 36  1  0  0  0
 35 37  2  0  0  0
 27 28  1  0  0  0
 28 29  1  0  0  0
 29 30  1  0  0  0
 29 31  2  0  0  0
 22  1  1  0  0  0
  1  2  2  0  0  0
  1  3  1  0  0  0
  3  5  1  0  0  0
  5 17  1  0  0  0
 17 18  1  0  0  0
 18 19  1  0  0  0
 18 20  2  0  0  0
  5  6  1  0  0  0
  6  7  2  0  0  0
  6  8  1  0  0  0
  8  9  1  0  0  0
  9 10  1  0  0  0
 10 11  1  0  0  0
 11 12  2  0  0  0
 12 13  1  0  0  0
 13 14  2  0  0  0
 14 15  1  0  0  0
 15 16  2  0  0  0
 16 11  1  0  0  0
 23 26  1  0  0  0
 36 38  1  0  0  0
 28 32  1  0  0  0
  3  4  1  0  0  0
 19 21  1  0  0  0
M  END
> <minimizedAffinity>
-6.69164

> <CNNscore>
0.0486027412

> <CNNaffinity>
5.6375284195

> <CNN_VS>
0.2739993334

> <CNNaffinity_variance>
0.3944472373

$$$$
[H]OP(=O)(O[H])C(F)(F)c1c([H])c(-c2c([H])c([H])c(-c3c(C([H])([H])c4c([H])c([H])c([H])c([H])c4[H])sc4c([H])c([H])c([H])c([H])c34)c([H])c2[H])c([H])c([H])c1F


 38 42  0  0  0  0  0  0  0  0999 V2000
  -89.9552   28.3816   -1.9040 C   0  0  0  0  0  0  0  0  0  0  0  0
  -90.4542   29.5627   -1.3497 C   0  0  0  0  0  0  0  0  0  0  0  0
  -89.6965   30.7014   -1.4074 C   0  0  0  0  0  0  0  0  0  0  0  0
  -88.4517   30.7330   -1.9936 C   0  0  0  0  0  0  0  0  0  0  0  0
  -87.9615   29.5727   -2.5383 C   0  0  0  0  0  0  0  0  0  0  0  0
  -88.7237   28.4273   -2.4806 C   0  0  0  0  0  0  0  0  0  0  0  0
  -87.6725   32.0146   -2.0224 C   0  0  0  0  0  0  0  0  0  0  0  0
  -86.8093   32.2807   -0.9928 C   0  0  0  0  0  0  0  0  0  0  0  0
  -86.1527   33.7937   -1.4057 S   0  0  0  0  0  0  0  0  0  0  0  0
  -86.9801   34.0638   -2.8722 C   0  0  0  0  0  0  0  0  0  0  0  0
  -86.9893   35.0976   -3.8297 C   0  0  0  0  0  0  0  0  0  0  0  0
  -87.7890   35.0277   -4.9456 C   0  0  0  0  0  0  0  0  0  0  0  0
  -88.5722   33.8984   -5.0702 C   0  0  0  0  0  0  0  0  0  0  0  0
  -88.5802   32.8828   -4.1544 C   0  0  0  0  0  0  0  0  0  0  0  0
  -87.7594   32.9501   -3.0044 C   0  0  0  0  0  0  0  0  0  0  0  0
  -86.5306   31.4078    0.2122 C   0  0  0  0  0  0  0  0  0  0  0  0
  -85.0733   31.3317    0.3922 C   0  0  0  0  0  0  0  0  0  0  0  0
  -84.2061   32.2126   -0.2100 C   0  0  0  0  0  0  0  0  0  0  0  0
  -82.8396   32.0737    0.0085 C   0  0  0  0  0  0  0  0  0  0  0  0
  -82.3674   31.0473    0.8316 C   0  0  0  0  0  0  0  0  0  0  0  0
  -83.2445   30.1612    1.4370 C   0  0  0  0  0  0  0  0  0  0  0  0
  -84.5989   30.3043    1.2165 C   0  0  0  0  0  0  0  0  0  0  0  0
  -91.0659   24.7945   -1.8180 C   0  0  0  0  0  0  0  0  0  0  0  0
  -90.2696   25.9104   -1.9005 C   0  0  0  0  0  0  0  0  0  0  0  0
  -90.7891   27.1954   -1.8212 C   0  0  0  0  0  0  0  0  0  0  0  0
  -92.1465   27.3391   -1.6549 C   0  0  0  0  0  0  0  0  0  0  0  0
  -92.9954   26.2386   -1.5656 C   0  0  0  0  0  0  0  0  0  0  0  0
  -92.4174   24.9783   -1.6517 C   0  0  0  0  0  0  0  0  0  0  0  0
  -93.2610   23.9155   -1.5620 F   0  0  0  0  0  0  0  0  0  0  0  0
  -90.5022   23.4288   -1.9005 C   0  0  0  0  0  0  0  0  0  0  0  0
  -89.2481   23.4649   -2.4895 F   0  0  0  0  0  0  0  0  0  0  0  0
  -91.3024   22.6214   -2.7202 F   0  0  0  0  0  0  0  0  0  0  0  0
  -91.4651   21.3338   -0.2196 O   0  0  0  0  0  0  0  0  0  0  0  0
  -90.3616   22.6128   -0.3124 P   0  0  0  0  0  0  0  0  0  0  0  0
  -88.7917   21.9540   -0.1830 O   0  0  0  0  0  0  0  0  0  0  0  0
  -90.6116   23.5626    0.8380 O   0  0  0  0  0  0  0  0  0  0  0  0
  -92.1892   21.5242   -0.8841 H   0  0  0  0  0  0  0  0  0  0  0  0
  -88.8434   21.0240    0.1466 H   0  0  0  0  0  0  0  0  0  0  0  0
 33 34  1  0  0  0
 34 35  1  0  0  0
 34 36  2  0  0  0
 34 30  1  0  0  0
 30 31  1  0  0  0
 30 32  1  0  0  0
 30 23  1  0  0  0
 23 24  2  0  0  0
 24 25  1  0  0  0
 25 26  2  0  0  0
 26 27  1  0  0  0
 27 28  2  0  0  0
 28 29  1  0  0  0
 25  1  1  0  0  0
  1  2  2  0  0  0
  2  3  1  0  0  0
  3  4  2  0  0  0
  4  5  1  0  0  0
  5  6  2  0  0  0
  4  7  1  0  0  0
  7  8  2  0  0  0
  8 16  1  0  0  0
 16 17  1  0  0  0
 17 18  2  0  0  0
 18 19  1  0  0  0
 19 20  2  0  0  0
 20 21  1  0  0  0
 21 22  2  0  0  0
  8  9  1  0  0  0
  9 10  1  0  0  0
 10 11  2  0  0  0
 11 12  1  0  0  0
 12 13  2  0  0  0
 13 14  1  0  0  0
 14 15  2  0  0  0
 28 23  1  0  0  0
  6  1  1  0  0  0
 15  7  1  0  0  0
 22 17  1  0  0  0
 15 10  1  0  0  0
 33 37  1  0  0  0
 35 38  1  0  0  0
M  END
> <minimizedAffinity>
-10.39725

> <CNNscore>
0.3510946631

> <CNNaffinity>
6.5756502151

> <CNN_VS>
2.3086757660

> <CNNaffinity_variance>
0.1287190020

$$$$
[H]OP(=O)(O[H])C(F)(F)c1c([H])c(-c2c([H])c([H])c(-c3c(C([H])([H])c4c([H])c([H])c([H])c([H])c4[H])sc4c([H])c([H])c([H])c([H])c34)c([H])c2[H])c([H])c([H])c1F


 38 42  0  0  0  0  0  0  0  0999 V2000
  -86.8591   32.6048   -1.4045 C   0  0  0  0  0  0  0  0  0  0  0  0
  -86.7332   32.7788   -2.7848 C   0  0  0  0  0  0  0  0  0  0  0  0
  -87.8508   33.0399   -3.5311 C   0  0  0  0  0  0  0  0  0  0  0  0
  -89.1057   33.1392   -2.9746 C   0  0  0  0  0  0  0  0  0  0  0  0
  -89.2293   32.9685   -1.6186 C   0  0  0  0  0  0  0  0  0  0  0  0
  -88.1052   32.7061   -0.8678 C   0  0  0  0  0  0  0  0  0  0  0  0
  -90.2897   33.4268   -3.8498 C   0  0  0  0  0  0  0  0  0  0  0  0
  -90.5963   34.7319   -4.1303 C   0  0  0  0  0  0  0  0  0  0  0  0
  -91.9724   34.6125   -5.1217 S   0  0  0  0  0  0  0  0  0  0  0  0
  -92.1365   32.9156   -5.1647 C   0  0  0  0  0  0  0  0  0  0  0  0
  -93.0371   32.0216   -5.7773 C   0  0  0  0  0  0  0  0  0  0  0  0
  -92.9068   30.6620   -5.6227 C   0  0  0  0  0  0  0  0  0  0  0  0
  -91.8543   30.2306   -4.8415 C   0  0  0  0  0  0  0  0  0  0  0  0
  -90.9680   31.0789   -4.2371 C   0  0  0  0  0  0  0  0  0  0  0  0
  -91.0978   32.4788   -4.3929 C   0  0  0  0  0  0  0  0  0  0  0  0
  -89.8589   35.9648   -3.6529 C   0  0  0  0  0  0  0  0  0  0  0  0
  -88.8133   36.2799   -4.6374 C   0  0  0  0  0  0  0  0  0  0  0  0
  -87.5285   36.6078   -4.2736 C   0  0  0  0  0  0  0  0  0  0  0  0
  -86.5962   36.8947   -5.2649 C   0  0  0  0  0  0  0  0  0  0  0  0
  -86.9739   36.8470   -6.6099 C   0  0  0  0  0  0  0  0  0  0  0  0
  -88.2699   36.5162   -6.9731 C   0  0  0  0  0  0  0  0  0  0  0  0
  -89.1901   36.2323   -5.9850 C   0  0  0  0  0  0  0  0  0  0  0  0
  -84.4410   31.0896    1.0378 C   0  0  0  0  0  0  0  0  0  0  0  0
  -85.5900   31.3461    0.3305 C   0  0  0  0  0  0  0  0  0  0  0  0
  -85.6501   32.3283   -0.6488 C   0  0  0  0  0  0  0  0  0  0  0  0
  -84.5146   33.0595   -0.9073 C   0  0  0  0  0  0  0  0  0  0  0  0
  -83.3255   32.8369   -0.2172 C   0  0  0  0  0  0  0  0  0  0  0  0
  -83.3268   31.8408    0.7511 C   0  0  0  0  0  0  0  0  0  0  0  0
  -82.1573   31.6369    1.4145 F   0  0  0  0  0  0  0  0  0  0  0  0
  -84.3860   30.0384    2.0777 C   0  0  0  0  0  0  0  0  0  0  0  0
  -84.7951   30.5524    3.2982 F   0  0  0  0  0  0  0  0  0  0  0  0
  -83.0673   29.5981    2.2547 F   0  0  0  0  0  0  0  0  0  0  0  0
  -85.6003   28.4686    0.0277 O   0  0  0  0  0  0  0  0  0  0  0  0
  -85.3877   28.6023    1.7008 P   0  0  0  0  0  0  0  0  0  0  0  0
  -84.5534   27.2101    2.2307 O   0  0  0  0  0  0  0  0  0  0  0  0
  -86.7449   28.6665    2.3655 O   0  0  0  0  0  0  0  0  0  0  0  0
  -85.4503   29.3794   -0.3594 H   0  0  0  0  0  0  0  0  0  0  0  0
  -84.5699   26.5190    1.5247 H   0  0  0  0  0  0  0  0  0  0  0  0
 33 34  1  0  0  0
 34 35  1  0  0  0
 34 36  2  0  0  0
 34 30  1  0  0  0
 30 31  1  0  0  0
 30 32  1  0  0  0
 30 23  1  0  0  0
 23 24  2  0  0  0
 24 25  1  0  0  0
 25 26  2  0  0  0
 26 27  1  0  0  0
 27 28  2  0  0  0
 28 29  1  0  0  0
 25  1  1  0  0  0
  1  2  2  0  0  0
  2  3  1  0  0  0
  3  4  2  0  0  0
  4  5  1  0  0  0
  5  6  2  0  0  0
  4  7  1  0  0  0
  7  8  2  0  0  0
  8 16  1  0  0  0
 16 17  1  0  0  0
 17 18  2  0  0  0
 18 19  1  0  0  0
 19 20  2  0  0  0
 20 21  1  0  0  0
 21 22  2  0  0  0
  8  9  1  0  0  0
  9 10  1  0  0  0
 10 11  2  0  0  0
 11 12  1  0  0  0
 12 13  2  0  0  0
 13 14  1  0  0  0
 14 15  2  0  0  0
 28 23  1  0  0  0
  6  1  1  0  0  0
 15  7  1  0  0  0
 22 17  1  0  0  0
 15 10  1  0  0  0
 33 37  1  0  0  0
 35 38  1  0  0  0
M  END
> <minimizedAffinity>
-10.31513

> <CNNscore>
0.2411403656

> <CNNaffinity>
6.3270654678

> <CNN_VS>
1.5257108212

> <CNNaffinity_variance>
0.3199849427

$$$$
[H]OP(=O)(O[H])C(F)(F)c1c([H])c(-c2c([H])c([H])c(-c3c(C([H])([H])c4c([H])c([H])c([H])c([H])c4[H])sc4c([H])c([H])c([H])c([H])c34)c([H])c2[H])c([H])c([H])c1F


 38 42  0  0  0  0  0  0  0  0999 V2000
  -86.1961   32.6599   -1.1529 C   0  0  0  0  0  0  0  0  0  0  0  0
  -85.7322   33.1876   -2.3603 C   0  0  0  0  0  0  0  0  0  0  0  0
  -86.6124   33.8205   -3.1962 C   0  0  0  0  0  0  0  0  0  0  0  0
  -87.9482   33.9605   -2.8955 C   0  0  0  0  0  0  0  0  0  0  0  0
  -88.4039   33.4422   -1.7093 C   0  0  0  0  0  0  0  0  0  0  0  0
  -87.5185   32.8059   -0.8683 C   0  0  0  0  0  0  0  0  0  0  0  0
  -88.8598   34.6648   -3.8565 C   0  0  0  0  0  0  0  0  0  0  0  0
  -89.5803   33.9140   -4.7471 C   0  0  0  0  0  0  0  0  0  0  0  0
  -90.4556   35.0749   -5.6286 S   0  0  0  0  0  0  0  0  0  0  0  0
  -89.8961   36.4887   -4.8565 C   0  0  0  0  0  0  0  0  0  0  0  0
  -90.1473   37.8670   -5.0081 C   0  0  0  0  0  0  0  0  0  0  0  0
  -89.5239   38.7965   -4.2099 C   0  0  0  0  0  0  0  0  0  0  0  0
  -88.6486   38.3049   -3.2631 C   0  0  0  0  0  0  0  0  0  0  0  0
  -88.3889   36.9725   -3.0976 C   0  0  0  0  0  0  0  0  0  0  0  0
  -89.0275   36.0120   -3.9165 C   0  0  0  0  0  0  0  0  0  0  0  0
  -89.5739   32.4064   -4.8837 C   0  0  0  0  0  0  0  0  0  0  0  0
  -90.7504   31.8800   -4.1762 C   0  0  0  0  0  0  0  0  0  0  0  0
  -92.0340   32.2622   -4.4878 C   0  0  0  0  0  0  0  0  0  0  0  0
  -93.0951   31.7199   -3.7707 C   0  0  0  0  0  0  0  0  0  0  0  0
  -92.8457   30.7995   -2.7486 C   0  0  0  0  0  0  0  0  0  0  0  0
  -91.5506   30.4165   -2.4371 C   0  0  0  0  0  0  0  0  0  0  0  0
  -90.5023   30.9579   -3.1523 C   0  0  0  0  0  0  0  0  0  0  0  0
  -84.6760   30.3977    1.4317 C   0  0  0  0  0  0  0  0  0  0  0  0
  -85.5963   31.0232    0.6267 C   0  0  0  0  0  0  0  0  0  0  0  0
  -85.2311   31.9952   -0.2948 C   0  0  0  0  0  0  0  0  0  0  0  0
  -83.9015   32.3318   -0.3928 C   0  0  0  0  0  0  0  0  0  0  0  0
  -82.9308   31.7261    0.4012 C   0  0  0  0  0  0  0  0  0  0  0  0
  -83.3569   30.7607    1.3047 C   0  0  0  0  0  0  0  0  0  0  0  0
  -82.3956   30.1795    2.0713 F   0  0  0  0  0  0  0  0  0  0  0  0
  -85.0748   29.3605    2.4088 C   0  0  0  0  0  0  0  0  0  0  0  0
  -85.6968   29.9466    3.4999 F   0  0  0  0  0  0  0  0  0  0  0  0
  -83.9430   28.6995    2.9051 F   0  0  0  0  0  0  0  0  0  0  0  0
  -86.1956   28.2288    0.0414 O   0  0  0  0  0  0  0  0  0  0  0  0
  -86.1704   28.1172    1.7294 P   0  0  0  0  0  0  0  0  0  0  0  0
  -85.5566   26.5774    2.1384 O   0  0  0  0  0  0  0  0  0  0  0  0
  -87.5826   28.2579    2.2528 O   0  0  0  0  0  0  0  0  0  0  0  0
  -85.9054   29.1574   -0.1941 H   0  0  0  0  0  0  0  0  0  0  0  0
  -85.5619   25.9911    1.3433 H   0  0  0  0  0  0  0  0  0  0  0  0
 33 34  1  0  0  0
 34 35  1  0  0  0
 34 36  2  0  0  0
 34 30  1  0  0  0
 30 31  1  0  0  0
 30 32  1  0  0  0
 30 23  1  0  0  0
 23 24  2  0  0  0
 24 25  1  0  0  0
 25 26  2  0  0  0
 26 27  1  0  0  0
 27 28  2  0  0  0
 28 29  1  0  0  0
 25  1  1  0  0  0
  1  2  2  0  0  0
  2  3  1  0  0  0
  3  4  2  0  0  0
  4  5  1  0  0  0
  5  6  2  0  0  0
  4  7  1  0  0  0
  7  8  2  0  0  0
  8 16  1  0  0  0
 16 17  1  0  0  0
 17 18  2  0  0  0
 18 19  1  0  0  0
 19 20  2  0  0  0
 20 21  1  0  0  0
 21 22  2  0  0  0
  8  9  1  0  0  0
  9 10  1  0  0  0
 10 11  2  0  0  0
 11 12  1  0  0  0
 12 13  2  0  0  0
 13 14  1  0  0  0
 14 15  2  0  0  0
 28 23  1  0  0  0
  6  1  1  0  0  0
 15  7  1  0  0  0
 22 17  1  0  0  0
 15 10  1  0  0  0
 33 37  1  0  0  0
 35 38  1  0  0  0
M  END
> <minimizedAffinity>
-10.20836

> <CNNscore>
0.2293178886

> <CNNaffinity>
6.2617168427

> <CNN_VS>
1.4359236956

> <CNNaffinity_variance>
0.4472950995

$$$$
[H]OP(=O)(O[H])C(F)(F)c1c([H])c(-c2c([H])c([H])c(-c3c(C([H])([H])c4c([H])c([H])c([H])c([H])c4[H])sc4c([H])c([H])c([H])c([H])c34)c([H])c2[H])c([H])c([H])c1F


 38 42  0  0  0  0  0  0  0  0999 V2000
  -89.6486   28.2565   -1.5329 C   0  0  0  0  0  0  0  0  0  0  0  0
  -88.6831   28.6695   -2.4542 C   0  0  0  0  0  0  0  0  0  0  0  0
  -87.8128   29.6683   -2.1091 C   0  0  0  0  0  0  0  0  0  0  0  0
  -87.8486   30.2896   -0.8815 C   0  0  0  0  0  0  0  0  0  0  0  0
  -88.7969   29.8838    0.0235 C   0  0  0  0  0  0  0  0  0  0  0  0
  -89.6722   28.8790   -0.3233 C   0  0  0  0  0  0  0  0  0  0  0  0
  -86.8657   31.3786   -0.5672 C   0  0  0  0  0  0  0  0  0  0  0  0
  -87.2335   32.6788   -0.7915 C   0  0  0  0  0  0  0  0  0  0  0  0
  -85.8627   33.5666   -0.3189 S   0  0  0  0  0  0  0  0  0  0  0  0
  -84.8486   32.2797    0.1540 C   0  0  0  0  0  0  0  0  0  0  0  0
  -83.5390   32.1855    0.6655 C   0  0  0  0  0  0  0  0  0  0  0  0
  -82.9756   30.9668    0.9606 C   0  0  0  0  0  0  0  0  0  0  0  0
  -83.7598   29.8553    0.7289 C   0  0  0  0  0  0  0  0  0  0  0  0
  -85.0327   29.9218    0.2332 C   0  0  0  0  0  0  0  0  0  0  0  0
  -85.6169   31.1733   -0.0723 C   0  0  0  0  0  0  0  0  0  0  0  0
  -88.5588   33.1712   -1.3327 C   0  0  0  0  0  0  0  0  0  0  0  0
  -88.3285   33.7075   -2.6823 C   0  0  0  0  0  0  0  0  0  0  0  0
  -88.3127   32.9107   -3.8028 C   0  0  0  0  0  0  0  0  0  0  0  0
  -88.0865   33.4936   -5.0451 C   0  0  0  0  0  0  0  0  0  0  0  0
  -87.8790   34.8727   -5.1391 C   0  0  0  0  0  0  0  0  0  0  0  0
  -87.8956   35.6729   -4.0075 C   0  0  0  0  0  0  0  0  0  0  0  0
  -88.1208   35.0888   -2.7780 C   0  0  0  0  0  0  0  0  0  0  0  0
  -91.0991   24.8538   -2.1854 C   0  0  0  0  0  0  0  0  0  0  0  0
  -90.2353   25.8506   -1.8027 C   0  0  0  0  0  0  0  0  0  0  0  0
  -90.5535   27.1951   -1.9378 C   0  0  0  0  0  0  0  0  0  0  0  0
  -91.7765   27.5235   -2.4739 C   0  0  0  0  0  0  0  0  0  0  0  0
  -92.6865   26.5492   -2.8768 C   0  0  0  0  0  0  0  0  0  0  0  0
  -92.3118   25.2211   -2.7168 C   0  0  0  0  0  0  0  0  0  0  0  0
  -93.2127   24.2834   -3.1149 F   0  0  0  0  0  0  0  0  0  0  0  0
  -90.7520   23.4233   -2.0345 C   0  0  0  0  0  0  0  0  0  0  0  0
  -89.4046   23.2290   -2.2952 F   0  0  0  0  0  0  0  0  0  0  0  0
  -91.4526   22.6516   -2.9714 F   0  0  0  0  0  0  0  0  0  0  0  0
  -89.7079   22.7069    0.5225 O   0  0  0  0  0  0  0  0  0  0  0  0
  -91.1182   22.7630   -0.4104 P   0  0  0  0  0  0  0  0  0  0  0  0
  -92.2121   23.8193    0.3659 O   0  0  0  0  0  0  0  0  0  0  0  0
  -91.7152   21.3751   -0.4833 O   0  0  0  0  0  0  0  0  0  0  0  0
  -88.9363   22.6984   -0.1151 H   0  0  0  0  0  0  0  0  0  0  0  0
  -91.9112   23.9952    1.2903 H   0  0  0  0  0  0  0  0  0  0  0  0
 33 34  1  0  0  0
 34 35  1  0  0  0
 34 36  2  0  0  0
 34 30  1  0  0  0
 30 31  1  0  0  0
 30 32  1  0  0  0
 30 23  1  0  0  0
 23 24  2  0  0  0
 24 25  1  0  0  0
 25 26  2  0  0  0
 26 27  1  0  0  0
 27 28  2  0  0  0
 28 29  1  0  0  0
 25  1  1  0  0  0
  1  2  2  0  0  0
  2  3  1  0  0  0
  3  4  2  0  0  0
  4  5  1  0  0  0
  5  6  2  0  0  0
  4  7  1  0  0  0
  7  8  2  0  0  0
  8 16  1  0  0  0
 16 17  1  0  0  0
 17 18  2  0  0  0
 18 19  1  0  0  0
 19 20  2  0  0  0
 20 21  1  0  0  0
 21 22  2  0  0  0
  8  9  1  0  0  0
  9 10  1  0  0  0
 10 11  2  0  0  0
 11 12  1  0  0  0
 12 13  2  0  0  0
 13 14  1  0  0  0
 14 15  2  0  0  0
 28 23  1  0  0  0
  6  1  1  0  0  0
 15  7  1  0  0  0
 22 17  1  0  0  0
 15 10  1  0  0  0
 33 37  1  0  0  0
 35 38  1  0  0  0
M  END
> <minimizedAffinity>
-9.76385

> <CNNscore>
0.2143396884

> <CNNaffinity>
6.3813962936

> <CNN_VS>
1.3677865267

> <CNNaffinity_variance>
0.1455468237

$$$$
[H]OP(=O)(O[H])C(F)(F)c1c([H])c(-c2c([H])c([H])c(-c3c(C([H])([H])c4c([H])c([H])c([H])c([H])c4[H])sc4c([H])c([H])c([H])c([H])c34)c([H])c2[H])c([H])c([H])c1F


 38 42  0  0  0  0  0  0  0  0999 V2000
  -89.5022   28.1460   -0.8480 C   0  0  0  0  0  0  0  0  0  0  0  0
  -88.3713   28.2287   -1.6639 C   0  0  0  0  0  0  0  0  0  0  0  0
  -87.4729   29.2417   -1.4618 C   0  0  0  0  0  0  0  0  0  0  0  0
  -87.6375   30.1919   -0.4798 C   0  0  0  0  0  0  0  0  0  0  0  0
  -88.7484   30.1105    0.3218 C   0  0  0  0  0  0  0  0  0  0  0  0
  -89.6520   29.0915    0.1188 C   0  0  0  0  0  0  0  0  0  0  0  0
  -86.6151   31.2768   -0.3121 C   0  0  0  0  0  0  0  0  0  0  0  0
  -86.9442   32.5520   -0.6883 C   0  0  0  0  0  0  0  0  0  0  0  0
  -85.5379   33.4433   -0.3436 S   0  0  0  0  0  0  0  0  0  0  0  0
  -84.5586   32.1894    0.2701 C   0  0  0  0  0  0  0  0  0  0  0  0
  -83.2446   32.1133    0.7735 C   0  0  0  0  0  0  0  0  0  0  0  0
  -82.7163   30.9209    1.2077 C   0  0  0  0  0  0  0  0  0  0  0  0
  -83.5397   29.8168    1.1222 C   0  0  0  0  0  0  0  0  0  0  0  0
  -84.8175   29.8661    0.6375 C   0  0  0  0  0  0  0  0  0  0  0  0
  -85.3657   31.0906    0.1892 C   0  0  0  0  0  0  0  0  0  0  0  0
  -88.2613   33.0201   -1.2694 C   0  0  0  0  0  0  0  0  0  0  0  0
  -88.4226   32.3976   -2.5917 C   0  0  0  0  0  0  0  0  0  0  0  0
  -87.4079   32.3555   -3.5188 C   0  0  0  0  0  0  0  0  0  0  0  0
  -87.6395   31.7497   -4.7491 C   0  0  0  0  0  0  0  0  0  0  0  0
  -88.8921   31.1950   -5.0266 C   0  0  0  0  0  0  0  0  0  0  0  0
  -89.9126   31.2393   -4.0898 C   0  0  0  0  0  0  0  0  0  0  0  0
  -89.6767   31.8414   -2.8710 C   0  0  0  0  0  0  0  0  0  0  0  0
  -90.8996   24.7255   -1.5226 C   0  0  0  0  0  0  0  0  0  0  0  0
  -90.0129   25.7488   -1.2925 C   0  0  0  0  0  0  0  0  0  0  0  0
  -90.4315   27.0577   -1.0953 C   0  0  0  0  0  0  0  0  0  0  0  0
  -91.7803   27.3222   -1.1347 C   0  0  0  0  0  0  0  0  0  0  0  0
  -92.7184   26.3189   -1.3644 C   0  0  0  0  0  0  0  0  0  0  0  0
  -92.2393   25.0288   -1.5545 C   0  0  0  0  0  0  0  0  0  0  0  0
  -93.1693   24.0619   -1.7770 F   0  0  0  0  0  0  0  0  0  0  0  0
  -90.4437   23.3328   -1.7285 C   0  0  0  0  0  0  0  0  0  0  0  0
  -89.2074   23.3230   -2.3549 F   0  0  0  0  0  0  0  0  0  0  0  0
  -91.3254   22.6537   -2.5804 F   0  0  0  0  0  0  0  0  0  0  0  0
  -91.4658   21.1397   -0.2163 O   0  0  0  0  0  0  0  0  0  0  0  0
  -90.3214   22.3858   -0.2134 P   0  0  0  0  0  0  0  0  0  0  0  0
  -88.7733   21.6683   -0.1507 O   0  0  0  0  0  0  0  0  0  0  0  0
  -90.5340   23.2459    1.0125 O   0  0  0  0  0  0  0  0  0  0  0  0
  -92.1867   21.4069   -0.8572 H   0  0  0  0  0  0  0  0  0  0  0  0
  -88.8536   20.7167    0.1025 H   0  0  0  0  0  0  0  0  0  0  0  0
 33 34  1  0  0  0
 34 35  1  0  0  0
 34 36  2  0  0  0
 34 30  1  0  0  0
 30 31  1  0  0  0
 30 32  1  0  0  0
 30 23  1  0  0  0
 23 24  2  0  0  0
 24 25  1  0  0  0
 25 26  2  0  0  0
 26 27  1  0  0  0
 27 28  2  0  0  0
 28 29  1  0  0  0
 25  1  1  0  0  0
  1  2  2  0  0  0
  2  3  1  0  0  0
  3  4  2  0  0  0
  4  5  1  0  0  0
  5  6  2  0  0  0
  4  7  1  0  0  0
  7  8  2  0  0  0
  8 16  1  0  0  0
 16 17  1  0  0  0
 17 18  2  0  0  0
 18 19  1  0  0  0
 19 20  2  0  0  0
 20 21  1  0  0  0
 21 22  2  0  0  0
  8  9  1  0  0  0
  9 10  1  0  0  0
 10 11  2  0  0  0
 11 12  1  0  0  0
 12 13  2  0  0  0
 13 14  1  0  0  0
 14 15  2  0  0  0
 28 23  1  0  0  0
  6  1  1  0  0  0
 15  7  1  0  0  0
 22 17  1  0  0  0
 15 10  1  0  0  0
 33 37  1  0  0  0
 35 38  1  0  0  0
M  END
> <minimizedAffinity>
-10.36564

> <CNNscore>
0.2058065981

> <CNNaffinity>
6.3989725113

> <CNN_VS>
1.3169507980

> <CNNaffinity_variance>
0.3203710616

$$$$
[H]OP(=O)(O[H])C(F)(F)c1c([H])c(-c2c([H])c([H])c(-c3c(C([H])([H])c4c([H])c([H])c([H])c([H])c4[H])sc4c([H])c([H])c([H])c([H])c34)c([H])c2[H])c([H])c([H])c1F


 38 42  0  0  0  0  0  0  0  0999 V2000
  -89.6783   27.9381   -2.1827 C   0  0  0  0  0  0  0  0  0  0  0  0
  -88.3657   28.0753   -2.6406 C   0  0  0  0  0  0  0  0  0  0  0  0
  -87.7401   29.2875   -2.5254 C   0  0  0  0  0  0  0  0  0  0  0  0
  -88.3548   30.3880   -1.9729 C   0  0  0  0  0  0  0  0  0  0  0  0
  -89.6442   30.2531   -1.5229 C   0  0  0  0  0  0  0  0  0  0  0  0
  -90.2735   29.0338   -1.6384 C   0  0  0  0  0  0  0  0  0  0  0  0
  -87.6124   31.6882   -1.8773 C   0  0  0  0  0  0  0  0  0  0  0  0
  -86.8267   31.9155   -0.7787 C   0  0  0  0  0  0  0  0  0  0  0  0
  -86.1880   33.4658   -1.0610 S   0  0  0  0  0  0  0  0  0  0  0  0
  -86.9246   33.7997   -2.5624 C   0  0  0  0  0  0  0  0  0  0  0  0
  -86.9005   34.8866   -3.4589 C   0  0  0  0  0  0  0  0  0  0  0  0
  -87.6228   34.8614   -4.6282 C   0  0  0  0  0  0  0  0  0  0  0  0
  -88.3635   33.7221   -4.8683 C   0  0  0  0  0  0  0  0  0  0  0  0
  -88.4026   32.6553   -4.0135 C   0  0  0  0  0  0  0  0  0  0  0  0
  -87.6613   32.6764   -2.8089 C   0  0  0  0  0  0  0  0  0  0  0  0
  -86.6030   30.9816    0.3915 C   0  0  0  0  0  0  0  0  0  0  0  0
  -85.1545   30.8804    0.6229 C   0  0  0  0  0  0  0  0  0  0  0  0
  -84.2435   31.6805   -0.0258 C   0  0  0  0  0  0  0  0  0  0  0  0
  -82.8888   31.5226    0.2465 C   0  0  0  0  0  0  0  0  0  0  0  0
  -82.4724   30.5591    1.1695 C   0  0  0  0  0  0  0  0  0  0  0  0
  -83.3933   29.7543    1.8215 C   0  0  0  0  0  0  0  0  0  0  0  0
  -84.7359   29.9159    1.5473 C   0  0  0  0  0  0  0  0  0  0  0  0
  -92.0964   25.2219   -3.1226 C   0  0  0  0  0  0  0  0  0  0  0  0
  -91.5111   26.4574   -2.9913 C   0  0  0  0  0  0  0  0  0  0  0  0
  -90.3070   26.6365   -2.3240 C   0  0  0  0  0  0  0  0  0  0  0  0
  -89.6928   25.5318   -1.7824 C   0  0  0  0  0  0  0  0  0  0  0  0
  -90.2464   24.2583   -1.8891 C   0  0  0  0  0  0  0  0  0  0  0  0
  -91.4527   24.1419   -2.5682 C   0  0  0  0  0  0  0  0  0  0  0  0
  -91.9783   22.8913   -2.6631 F   0  0  0  0  0  0  0  0  0  0  0  0
  -93.3787   25.0407   -3.8384 C   0  0  0  0  0  0  0  0  0  0  0  0
  -94.4195   24.9230   -2.9308 F   0  0  0  0  0  0  0  0  0  0  0  0
  -93.3593   23.8494   -4.5764 F   0  0  0  0  0  0  0  0  0  0  0  0
  -92.3541   26.8839   -5.7605 O   0  0  0  0  0  0  0  0  0  0  0  0
  -93.7617   26.3719   -4.9737 P   0  0  0  0  0  0  0  0  0  0  0  0
  -94.8322   25.7745   -6.1621 O   0  0  0  0  0  0  0  0  0  0  0  0
  -94.3901   27.5545   -4.2706 O   0  0  0  0  0  0  0  0  0  0  0  0
  -91.5821   26.6113   -5.1845 H   0  0  0  0  0  0  0  0  0  0  0  0
  -94.5283   26.0542   -7.0597 H   0  0  0  0  0  0  0  0  0  0  0  0
 33 34  1  0  0  0
 34 35  1  0  0  0
 34 36  2  0  0  0
 34 30  1  0  0  0
 30 31  1  0  0  0
 30 32  1  0  0  0
 30 23  1  0  0  0
 23 24  2  0  0  0
 24 25  1  0  0  0
 25 26  2  0  0  0
 26 27  1  0  0  0
 27 28  2  0  0  0
 28 29  1  0  0  0
 25  1  1  0  0  0
  1  2  2  0  0  0
  2  3  1  0  0  0
  3  4  2  0  0  0
  4  5  1  0  0  0
  5  6  2  0  0  0
  4  7  1  0  0  0
  7  8  2  0  0  0
  8 16  1  0  0  0
 16 17  1  0  0  0
 17 18  2  0  0  0
 18 19  1  0  0  0
 19 20  2  0  0  0
 20 21  1  0  0  0
 21 22  2  0  0  0
  8  9  1  0  0  0
  9 10  1  0  0  0
 10 11  2  0  0  0
 11 12  1  0  0  0
 12 13  2  0  0  0
 13 14  1  0  0  0
 14 15  2  0  0  0
 28 23  1  0  0  0
  6  1  1  0  0  0
 15  7  1  0  0  0
 22 17  1  0  0  0
 15 10  1  0  0  0
 33 37  1  0  0  0
 35 38  1  0  0  0
M  END
> <minimizedAffinity>
-9.92795

> <CNNscore>
0.2030854076

> <CNNaffinity>
6.1424398422

> <CNN_VS>
1.2474398613

> <CNNaffinity_variance>
0.3261831403

$$$$
[H]OP(=O)(O[H])C(F)(F)c1c([H])c(-c2c([H])c([H])c(-c3c(C([H])([H])c4c([H])c([H])c([H])c([H])c4[H])sc4c([H])c([H])c([H])c([H])c34)c([H])c2[H])c([H])c([H])c1F


 38 42  0  0  0  0  0  0  0  0999 V2000
  -88.8021   31.1012   -2.4575 C   0  0  0  0  0  0  0  0  0  0  0  0
  -88.1256   29.9385   -2.8341 C   0  0  0  0  0  0  0  0  0  0  0  0
  -87.3715   29.2725   -1.9058 C   0  0  0  0  0  0  0  0  0  0  0  0
  -87.2495   29.7035   -0.6044 C   0  0  0  0  0  0  0  0  0  0  0  0
  -87.9142   30.8457   -0.2344 C   0  0  0  0  0  0  0  0  0  0  0  0
  -88.6730   31.5155   -1.1680 C   0  0  0  0  0  0  0  0  0  0  0  0
  -86.4060   28.9270    0.3631 C   0  0  0  0  0  0  0  0  0  0  0  0
  -86.9060   27.7616    0.8806 C   0  0  0  0  0  0  0  0  0  0  0  0
  -85.6650   27.2185    1.9081 S   0  0  0  0  0  0  0  0  0  0  0  0
  -84.5358   28.4732    1.6659 C   0  0  0  0  0  0  0  0  0  0  0  0
  -83.2476   28.7574    2.1614 C   0  0  0  0  0  0  0  0  0  0  0  0
  -82.5652   29.8836    1.7669 C   0  0  0  0  0  0  0  0  0  0  0  0
  -83.2093   30.7086    0.8676 C   0  0  0  0  0  0  0  0  0  0  0  0
  -84.4587   30.4538    0.3732 C   0  0  0  0  0  0  0  0  0  0  0  0
  -85.1651   29.2964    0.7762 C   0  0  0  0  0  0  0  0  0  0  0  0
  -88.2516   27.1350    0.5830 C   0  0  0  0  0  0  0  0  0  0  0  0
  -89.2039   27.5946    1.6047 C   0  0  0  0  0  0  0  0  0  0  0  0
  -89.0796   27.2656    2.9340 C   0  0  0  0  0  0  0  0  0  0  0  0
  -90.0231   27.7384    3.8397 C   0  0  0  0  0  0  0  0  0  0  0  0
  -91.0792   28.5366    3.3911 C   0  0  0  0  0  0  0  0  0  0  0  0
  -91.2015   28.8663    2.0504 C   0  0  0  0  0  0  0  0  0  0  0  0
  -90.2622   28.3943    1.1568 C   0  0  0  0  0  0  0  0  0  0  0  0
  -91.7070   32.2939   -4.5184 C   0  0  0  0  0  0  0  0  0  0  0  0
  -90.9696   31.6464   -3.5575 C   0  0  0  0  0  0  0  0  0  0  0  0
  -89.5903   31.7789   -3.4718 C   0  0  0  0  0  0  0  0  0  0  0  0
  -88.9565   32.5877   -4.3855 C   0  0  0  0  0  0  0  0  0  0  0  0
  -89.6602   33.2652   -5.3782 C   0  0  0  0  0  0  0  0  0  0  0  0
  -91.0383   33.0934   -5.4136 C   0  0  0  0  0  0  0  0  0  0  0  0
  -91.7091   33.7628   -6.3890 F   0  0  0  0  0  0  0  0  0  0  0  0
  -93.1774   32.1487   -4.5997 C   0  0  0  0  0  0  0  0  0  0  0  0
  -93.7634   33.3741   -4.8757 F   0  0  0  0  0  0  0  0  0  0  0  0
  -93.6936   31.7312   -3.3655 F   0  0  0  0  0  0  0  0  0  0  0  0
  -93.8998   31.7415   -7.3298 O   0  0  0  0  0  0  0  0  0  0  0  0
  -93.7154   30.9695   -5.8357 P   0  0  0  0  0  0  0  0  0  0  0  0
  -92.5009   29.7823   -6.0115 O   0  0  0  0  0  0  0  0  0  0  0  0
  -95.0227   30.3087   -5.4588 O   0  0  0  0  0  0  0  0  0  0  0  0
  -94.0300   32.7158   -7.1409 H   0  0  0  0  0  0  0  0  0  0  0  0
  -92.3216   29.6240   -6.9701 H   0  0  0  0  0  0  0  0  0  0  0  0
 33 34  1  0  0  0
 34 35  1  0  0  0
 34 36  2  0  0  0
 34 30  1  0  0  0
 30 31  1  0  0  0
 30 32  1  0  0  0
 30 23  1  0  0  0
 23 24  2  0  0  0
 24 25  1  0  0  0
 25 26  2  0  0  0
 26 27  1  0  0  0
 27 28  2  0  0  0
 28 29  1  0  0  0
 25  1  1  0  0  0
  1  2  2  0  0  0
  2  3  1  0  0  0
  3  4  2  0  0  0
  4  5  1  0  0  0
  5  6  2  0  0  0
  4  7  1  0  0  0
  7  8  2  0  0  0
  8 16  1  0  0  0
 16 17  1  0  0  0
 17 18  2  0  0  0
 18 19  1  0  0  0
 19 20  2  0  0  0
 20 21  1  0  0  0
 21 22  2  0  0  0
  8  9  1  0  0  0
  9 10  1  0  0  0
 10 11  2  0  0  0
 11 12  1  0  0  0
 12 13  2  0  0  0
 13 14  1  0  0  0
 14 15  2  0  0  0
 28 23  1  0  0  0
  6  1  1  0  0  0
 15  7  1  0  0  0
 22 17  1  0  0  0
 15 10  1  0  0  0
 33 37  1  0  0  0
 35 38  1  0  0  0
M  END
> <minimizedAffinity>
-10.56541

> <CNNscore>
0.1868333369

> <CNNaffinity>
6.3045811653

> <CNN_VS>
1.1779059172

> <CNNaffinity_variance>
0.1783913821

$$$$
[H]OP(=O)(O[H])C(F)(F)c1c([H])c(-c2c([H])c([H])c(-c3c(C([H])([H])c4c([H])c([H])c([H])c([H])c4[H])sc4c([H])c([H])c([H])c([H])c34)c([H])c2[H])c([H])c([H])c1F


 38 42  0  0  0  0  0  0  0  0999 V2000
  -87.5410   31.8099   -1.2821 C   0  0  0  0  0  0  0  0  0  0  0  0
  -87.7313   30.8711   -2.2988 C   0  0  0  0  0  0  0  0  0  0  0  0
  -88.8581   30.9421   -3.0730 C   0  0  0  0  0  0  0  0  0  0  0  0
  -89.8214   31.9080   -2.8908 C   0  0  0  0  0  0  0  0  0  0  0  0
  -89.6344   32.8305   -1.8921 C   0  0  0  0  0  0  0  0  0  0  0  0
  -88.5009   32.7593   -1.1136 C   0  0  0  0  0  0  0  0  0  0  0  0
  -91.0339   31.9291   -3.7741 C   0  0  0  0  0  0  0  0  0  0  0  0
  -92.1155   31.1663   -3.4214 C   0  0  0  0  0  0  0  0  0  0  0  0
  -93.2373   31.4699   -4.6625 S   0  0  0  0  0  0  0  0  0  0  0  0
  -92.3203   32.5554   -5.6054 C   0  0  0  0  0  0  0  0  0  0  0  0
  -92.5451   33.2629   -6.8031 C   0  0  0  0  0  0  0  0  0  0  0  0
  -91.5832   34.0894   -7.3333 C   0  0  0  0  0  0  0  0  0  0  0  0
  -90.3990   34.1835   -6.6309 C   0  0  0  0  0  0  0  0  0  0  0  0
  -90.1580   33.5067   -5.4672 C   0  0  0  0  0  0  0  0  0  0  0  0
  -91.1445   32.6548   -4.9177 C   0  0  0  0  0  0  0  0  0  0  0  0
  -92.2454   30.2758   -2.2041 C   0  0  0  0  0  0  0  0  0  0  0  0
  -92.4056   28.8900   -2.6687 C   0  0  0  0  0  0  0  0  0  0  0  0
  -91.3539   28.1422   -3.1435 C   0  0  0  0  0  0  0  0  0  0  0  0
  -91.5868   26.8379   -3.5663 C   0  0  0  0  0  0  0  0  0  0  0  0
  -92.8782   26.3066   -3.5043 C   0  0  0  0  0  0  0  0  0  0  0  0
  -93.9360   27.0632   -3.0251 C   0  0  0  0  0  0  0  0  0  0  0  0
  -93.6985   28.3564   -2.6069 C   0  0  0  0  0  0  0  0  0  0  0  0
  -84.9995   30.5921    1.2010 C   0  0  0  0  0  0  0  0  0  0  0  0
  -86.1464   30.6901    0.4518 C   0  0  0  0  0  0  0  0  0  0  0  0
  -86.3335   31.6996   -0.4827 C   0  0  0  0  0  0  0  0  0  0  0  0
  -85.3294   32.6236   -0.6519 C   0  0  0  0  0  0  0  0  0  0  0  0
  -84.1481   32.5666    0.0836 C   0  0  0  0  0  0  0  0  0  0  0  0
  -84.0186   31.5337    1.0035 C   0  0  0  0  0  0  0  0  0  0  0  0
  -82.8587   31.4933    1.7123 F   0  0  0  0  0  0  0  0  0  0  0  0
  -84.8081   29.5105    2.1925 C   0  0  0  0  0  0  0  0  0  0  0  0
  -85.1701   29.9513    3.4557 F   0  0  0  0  0  0  0  0  0  0  0  0
  -83.4546   29.1552    2.2691 F   0  0  0  0  0  0  0  0  0  0  0  0
  -87.2408   28.0738    2.5921 O   0  0  0  0  0  0  0  0  0  0  0  0
  -85.7355   28.0238    1.8214 P   0  0  0  0  0  0  0  0  0  0  0  0
  -86.0159   27.9705    0.1381 O   0  0  0  0  0  0  0  0  0  0  0  0
  -85.0021   26.7741    2.2553 O   0  0  0  0  0  0  0  0  0  0  0  0
  -87.1554   28.7121    3.3584 H   0  0  0  0  0  0  0  0  0  0  0  0
  -86.9620   27.7471   -0.0384 H   0  0  0  0  0  0  0  0  0  0  0  0
 33 34  1  0  0  0
 34 35  1  0  0  0
 34 36  2  0  0  0
 34 30  1  0  0  0
 30 31  1  0  0  0
 30 32  1  0  0  0
 30 23  1  0  0  0
 23 24  2  0  0  0
 24 25  1  0  0  0
 25 26  2  0  0  0
 26 27  1  0  0  0
 27 28  2  0  0  0
 28 29  1  0  0  0
 25  1  1  0  0  0
  1  2  2  0  0  0
  2  3  1  0  0  0
  3  4  2  0  0  0
  4  5  1  0  0  0
  5  6  2  0  0  0
  4  7  1  0  0  0
  7  8  2  0  0  0
  8 16  1  0  0  0
 16 17  1  0  0  0
 17 18  2  0  0  0
 18 19  1  0  0  0
 19 20  2  0  0  0
 20 21  1  0  0  0
 21 22  2  0  0  0
  8  9  1  0  0  0
  9 10  1  0  0  0
 10 11  2  0  0  0
 11 12  1  0  0  0
 12 13  2  0  0  0
 13 14  1  0  0  0
 14 15  2  0  0  0
 28 23  1  0  0  0
  6  1  1  0  0  0
 15  7  1  0  0  0
 22 17  1  0  0  0
 15 10  1  0  0  0
 33 37  1  0  0  0
 35 38  1  0  0  0
M  END
> <minimizedAffinity>
-9.40228

> <CNNscore>
0.1541150063

> <CNNaffinity>
6.2537360191

> <CNN_VS>
0.9637945890

> <CNNaffinity_variance>
0.2070756257

$$$$
[H]OP(=O)(O[H])C(F)(F)c1c([H])c(-c2c([H])c([H])c(-c3c(C([H])([H])c4c([H])c([H])c([H])c([H])c4[H])sc4c([H])c([H])c([H])c([H])c34)c([H])c2[H])c([H])c([H])c1F


 38 42  0  0  0  0  0  0  0  0999 V2000
  -88.7777   27.1904   -0.5384 C   0  0  0  0  0  0  0  0  0  0  0  0
  -88.0693   27.6953   -1.6314 C   0  0  0  0  0  0  0  0  0  0  0  0
  -87.3766   28.8682   -1.4959 C   0  0  0  0  0  0  0  0  0  0  0  0
  -87.3478   29.5788   -0.3175 C   0  0  0  0  0  0  0  0  0  0  0  0
  -88.0436   29.0827    0.7563 C   0  0  0  0  0  0  0  0  0  0  0  0
  -88.7402   27.9028    0.6202 C   0  0  0  0  0  0  0  0  0  0  0  0
  -86.5692   30.8586   -0.2365 C   0  0  0  0  0  0  0  0  0  0  0  0
  -87.1930   32.0286   -0.5798 C   0  0  0  0  0  0  0  0  0  0  0  0
  -85.9845   33.2036   -0.3562 S   0  0  0  0  0  0  0  0  0  0  0  0
  -84.7122   32.1961    0.1674 C   0  0  0  0  0  0  0  0  0  0  0  0
  -83.3741   32.4088    0.5549 C   0  0  0  0  0  0  0  0  0  0  0  0
  -82.5691   31.3628    0.9390 C   0  0  0  0  0  0  0  0  0  0  0  0
  -83.1429   30.1079    0.9226 C   0  0  0  0  0  0  0  0  0  0  0  0
  -84.4384   29.8771    0.5505 C   0  0  0  0  0  0  0  0  0  0  0  0
  -85.2708   30.9499    0.1542 C   0  0  0  0  0  0  0  0  0  0  0  0
  -88.6242   32.1971   -1.0436 C   0  0  0  0  0  0  0  0  0  0  0  0
  -88.6004   32.8009   -2.3840 C   0  0  0  0  0  0  0  0  0  0  0  0
  -88.9726   34.1042   -2.6155 C   0  0  0  0  0  0  0  0  0  0  0  0
  -88.9242   34.6020   -3.9132 C   0  0  0  0  0  0  0  0  0  0  0  0
  -88.5010   33.7771   -4.9594 C   0  0  0  0  0  0  0  0  0  0  0  0
  -88.1266   32.4639   -4.7224 C   0  0  0  0  0  0  0  0  0  0  0  0
  -88.1766   31.9759   -3.4328 C   0  0  0  0  0  0  0  0  0  0  0  0
  -91.1787   24.6128   -1.8420 C   0  0  0  0  0  0  0  0  0  0  0  0
  -90.5028   25.7963   -1.6723 C   0  0  0  0  0  0  0  0  0  0  0  0
  -89.5005   25.9443   -0.7232 C   0  0  0  0  0  0  0  0  0  0  0  0
  -89.1859   24.8623    0.0648 C   0  0  0  0  0  0  0  0  0  0  0  0
  -89.8424   23.6413   -0.0692 C   0  0  0  0  0  0  0  0  0  0  0  0
  -90.8361   23.5540   -1.0361 C   0  0  0  0  0  0  0  0  0  0  0  0
  -91.4660   22.3545   -1.1533 F   0  0  0  0  0  0  0  0  0  0  0  0
  -92.2435   24.4640   -2.8587 C   0  0  0  0  0  0  0  0  0  0  0  0
  -92.0946   23.2625   -3.5334 F   0  0  0  0  0  0  0  0  0  0  0  0
  -92.1399   25.4758   -3.8228 F   0  0  0  0  0  0  0  0  0  0  0  0
  -94.9356   25.3189   -3.2623 O   0  0  0  0  0  0  0  0  0  0  0  0
  -93.8994   24.5337   -2.1798 P   0  0  0  0  0  0  0  0  0  0  0  0
  -94.4682   22.9359   -1.9834 O   0  0  0  0  0  0  0  0  0  0  0  0
  -93.9382   25.2549   -0.8508 O   0  0  0  0  0  0  0  0  0  0  0  0
  -94.3626   25.8856   -3.8560 H   0  0  0  0  0  0  0  0  0  0  0  0
  -95.3870   22.8599   -2.3386 H   0  0  0  0  0  0  0  0  0  0  0  0
 33 34  1  0  0  0
 34 35  1  0  0  0
 34 36  2  0  0  0
 34 30  1  0  0  0
 30 31  1  0  0  0
 30 32  1  0  0  0
 30 23  1  0  0  0
 23 24  2  0  0  0
 24 25  1  0  0  0
 25 26  2  0  0  0
 26 27  1  0  0  0
 27 28  2  0  0  0
 28 29  1  0  0  0
 25  1  1  0  0  0
  1  2  2  0  0  0
  2  3  1  0  0  0
  3  4  2  0  0  0
  4  5  1  0  0  0
  5  6  2  0  0  0
  4  7  1  0  0  0
  7  8  2  0  0  0
  8 16  1  0  0  0
 16 17  1  0  0  0
 17 18  2  0  0  0
 18 19  1  0  0  0
 19 20  2  0  0  0
 20 21  1  0  0  0
 21 22  2  0  0  0
  8  9  1  0  0  0
  9 10  1  0  0  0
 10 11  2  0  0  0
 11 12  1  0  0  0
 12 13  2  0  0  0
 13 14  1  0  0  0
 14 15  2  0  0  0
 28 23  1  0  0  0
  6  1  1  0  0  0
 15  7  1  0  0  0
 22 17  1  0  0  0
 15 10  1  0  0  0
 33 37  1  0  0  0
 35 38  1  0  0  0
M  END
> <minimizedAffinity>
-9.71102

> <CNNscore>
0.1325691938

> <CNNaffinity>
6.2021064758

> <CNN_VS>
0.8222082853

> <CNNaffinity_variance>
0.3988815248

$$$$
[H]c1nc([C@@]2([H])C([H])([H])[C@]2([H])C([H])([H])Oc2nc(C([H])([H])[H])nc([H])c2-c2nn(C([H])([H])[H])c(=O)c([H])c2[H])c([H])c([H])c1OC([H])([H])[H]


 28 31  0  0  0  0  0  0  0  0999 V2000
  -86.7252   30.9917   -1.1213 C   0  0  0  0  0  0  0  0  0  0  0  0
  -87.2398   32.0527   -1.8318 N   0  0  0  0  0  0  0  0  0  0  0  0
  -86.8629   33.3166   -1.6439 C   0  0  0  0  0  0  0  0  0  0  0  0
  -87.4289   34.4527   -2.4205 C   0  0  0  0  0  0  0  0  0  0  0  0
  -85.9309   33.5481   -0.7078 N   0  0  0  0  0  0  0  0  0  0  0  0
  -85.3982   32.5482    0.0116 C   0  0  0  0  0  0  0  0  0  0  0  0
  -85.7794   31.2050   -0.1679 C   0  0  0  0  0  0  0  0  0  0  0  0
  -85.1441   30.2062    0.6578 C   0  0  0  0  0  0  0  0  0  0  0  0
  -83.9105   30.3036    1.2261 C   0  0  0  0  0  0  0  0  0  0  0  0
  -83.3618   29.2722    2.0242 C   0  0  0  0  0  0  0  0  0  0  0  0
  -84.1345   28.1575    2.2030 C   0  0  0  0  0  0  0  0  0  0  0  0
  -83.6983   27.1918    2.9116 O   0  0  0  0  0  0  0  0  0  0  0  0
  -85.3505   28.0598    1.6437 N   0  0  0  0  0  0  0  0  0  0  0  0
  -86.1311   26.8336    1.8752 C   0  0  0  0  0  0  0  0  0  0  0  0
  -85.8076   29.0357    0.9195 N   0  0  0  0  0  0  0  0  0  0  0  0
  -87.1738   29.7284   -1.3833 O   0  0  0  0  0  0  0  0  0  0  0  0
  -88.4187   29.3152   -1.8250 C   0  0  0  0  0  0  0  0  0  0  0  0
  -89.6577   27.6506   -0.2821 C   0  0  0  0  0  0  0  0  0  0  0  0
  -90.7217   28.3506   -1.1175 C   0  0  0  0  0  0  0  0  0  0  0  0
  -89.4132   29.0397   -0.7389 C   0  0  0  0  0  0  0  0  0  0  0  0
  -90.5598   26.8958    3.8540 C   0  0  0  0  0  0  0  0  0  0  0  0
  -90.8996   28.0868    3.2694 C   0  0  0  0  0  0  0  0  0  0  0  0
  -90.6043   28.3280    1.9239 C   0  0  0  0  0  0  0  0  0  0  0  0
  -89.9679   27.3829    1.1517 C   0  0  0  0  0  0  0  0  0  0  0  0
  -89.6462   26.2205    1.7559 N   0  0  0  0  0  0  0  0  0  0  0  0
  -89.9174   25.9652    3.0407 C   0  0  0  0  0  0  0  0  0  0  0  0
  -89.7746   26.6532    6.1292 C   0  0  0  0  0  0  0  0  0  0  0  0
  -90.8144   26.5788    5.1726 O   0  0  0  0  0  0  0  0  0  0  0  0
 27 28  1  0  0  0
 28 21  1  0  0  0
 21 22  2  0  0  0
 22 23  1  0  0  0
 23 24  2  0  0  0
 24 25  1  0  0  0
 25 26  2  0  0  0
 24 18  1  0  0  0
 18 19  1  0  0  0
 19 20  1  0  0  0
 20 17  1  0  0  0
 17 16  1  0  0  0
 16  1  1  0  0  0
  1  2  2  0  0  0
  2  3  1  0  0  0
  3  4  1  0  0  0
  3  5  2  0  0  0
  5  6  1  0  0  0
  6  7  2  0  0  0
  7  8  1  0  0  0
  8  9  1  0  0  0
  9 10  2  0  0  0
 10 11  1  0  0  0
 11 12  2  0  0  0
 11 13  1  0  0  0
 13 14  1  0  0  0
 13 15  1  0  0  0
 26 21  1  0  0  0
 20 18  1  0  0  0
  7  1  1  0  0  0
 15  8  2  0  0  0
M  END
> <minimizedAffinity>
-8.60679

> <CNNscore>
0.7473136187

> <CNNaffinity>
7.2552924156

> <CNN_VS>
5.4219789505

> <CNNaffinity_variance>
0.4237039983

$$$$
[H]c1nc([C@@]2([H])C([H])([H])[C@]2([H])C([H])([H])Oc2nc(C([H])([H])[H])nc([H])c2-c2nn(C([H])([H])[H])c(=O)c([H])c2[H])c([H])c([H])c1OC([H])([H])[H]


 28 31  0  0  0  0  0  0  0  0999 V2000
  -86.7533   31.2585   -0.4928 C   0  0  0  0  0  0  0  0  0  0  0  0
  -87.2040   32.3082   -1.2611 N   0  0  0  0  0  0  0  0  0  0  0  0
  -86.4464   33.3499   -1.6016 C   0  0  0  0  0  0  0  0  0  0  0  0
  -86.9487   34.4771   -2.4331 C   0  0  0  0  0  0  0  0  0  0  0  0
  -85.1792   33.3586   -1.1628 N   0  0  0  0  0  0  0  0  0  0  0  0
  -84.6920   32.3593   -0.4112 C   0  0  0  0  0  0  0  0  0  0  0  0
  -85.4718   31.2482   -0.0381 C   0  0  0  0  0  0  0  0  0  0  0  0
  -84.8506   30.2280    0.7721 C   0  0  0  0  0  0  0  0  0  0  0  0
  -83.6176   30.3012    1.3451 C   0  0  0  0  0  0  0  0  0  0  0  0
  -83.0832   29.2500    2.1270 C   0  0  0  0  0  0  0  0  0  0  0  0
  -83.8695   28.1415    2.2847 C   0  0  0  0  0  0  0  0  0  0  0  0
  -83.4467   27.1588    2.9779 O   0  0  0  0  0  0  0  0  0  0  0  0
  -85.0850   28.0678    1.7207 N   0  0  0  0  0  0  0  0  0  0  0  0
  -85.8805   26.8471    1.9292 C   0  0  0  0  0  0  0  0  0  0  0  0
  -85.5285   29.0612    1.0121 N   0  0  0  0  0  0  0  0  0  0  0  0
  -87.6041   30.2327   -0.1935 O   0  0  0  0  0  0  0  0  0  0  0  0
  -88.9822   30.2469   -0.0657 C   0  0  0  0  0  0  0  0  0  0  0  0
  -91.1605   29.0727   -0.8162 C   0  0  0  0  0  0  0  0  0  0  0  0
  -90.5149   28.1738    0.2302 C   0  0  0  0  0  0  0  0  0  0  0  0
  -89.6841   29.0746   -0.6801 C   0  0  0  0  0  0  0  0  0  0  0  0
  -93.0006   27.1671   -4.2034 C   0  0  0  0  0  0  0  0  0  0  0  0
  -92.8445   26.4942   -3.0209 C   0  0  0  0  0  0  0  0  0  0  0  0
  -92.2455   27.1178   -1.9218 C   0  0  0  0  0  0  0  0  0  0  0  0
  -91.7979   28.4173   -1.9943 C   0  0  0  0  0  0  0  0  0  0  0  0
  -91.9656   29.0534   -3.1721 N   0  0  0  0  0  0  0  0  0  0  0  0
  -92.5352   28.4795   -4.2378 C   0  0  0  0  0  0  0  0  0  0  0  0
  -93.0180   26.8832   -6.6057 C   0  0  0  0  0  0  0  0  0  0  0  0
  -93.5798   26.6259   -5.3329 O   0  0  0  0  0  0  0  0  0  0  0  0
 27 28  1  0  0  0
 28 21  1  0  0  0
 21 22  2  0  0  0
 22 23  1  0  0  0
 23 24  2  0  0  0
 24 25  1  0  0  0
 25 26  2  0  0  0
 24 18  1  0  0  0
 18 19  1  0  0  0
 19 20  1  0  0  0
 20 17  1  0  0  0
 17 16  1  0  0  0
 16  1  1  0  0  0
  1  2  2  0  0  0
  2  3  1  0  0  0
  3  4  1  0  0  0
  3  5  2  0  0  0
  5  6  1  0  0  0
  6  7  2  0  0  0
  7  8  1  0  0  0
  8  9  1  0  0  0
  9 10  2  0  0  0
 10 11  1  0  0  0
 11 12  2  0  0  0
 11 13  1  0  0  0
 13 14  1  0  0  0
 13 15  1  0  0  0
 26 21  1  0  0  0
 20 18  1  0  0  0
  7  1  1  0  0  0
 15  8  2  0  0  0
M  END
> <minimizedAffinity>
-7.62358

> <CNNscore>
0.6344180703

> <CNNaffinity>
6.9328856468

> <CNN_VS>
4.3983478546

> <CNNaffinity_variance>
0.3818348050

$$$$
[H]c1nc([C@@]2([H])C([H])([H])[C@]2([H])C([H])([H])Oc2nc(C([H])([H])[H])nc([H])c2-c2nn(C([H])([H])[H])c(=O)c([H])c2[H])c([H])c([H])c1OC([H])([H])[H]


 28 31  0  0  0  0  0  0  0  0999 V2000
  -86.7832   28.4771   -0.1952 C   0  0  0  0  0  0  0  0  0  0  0  0
  -87.5629   27.4360    0.2558 N   0  0  0  0  0  0  0  0  0  0  0  0
  -87.6856   27.1115    1.5421 C   0  0  0  0  0  0  0  0  0  0  0  0
  -88.5329   25.9827    2.0136 C   0  0  0  0  0  0  0  0  0  0  0  0
  -87.0052   27.8503    2.4307 N   0  0  0  0  0  0  0  0  0  0  0  0
  -86.2315   28.8756    2.0419 C   0  0  0  0  0  0  0  0  0  0  0  0
  -86.0854   29.2384    0.6896 C   0  0  0  0  0  0  0  0  0  0  0  0
  -85.2292   30.3580    0.3790 C   0  0  0  0  0  0  0  0  0  0  0  0
  -83.8711   30.3780    0.4741 C   0  0  0  0  0  0  0  0  0  0  0  0
  -83.1066   31.5232    0.1486 C   0  0  0  0  0  0  0  0  0  0  0  0
  -83.8004   32.6251   -0.2716 C   0  0  0  0  0  0  0  0  0  0  0  0
  -83.1709   33.6897   -0.5803 O   0  0  0  0  0  0  0  0  0  0  0  0
  -85.1389   32.6072   -0.3659 N   0  0  0  0  0  0  0  0  0  0  0  0
  -85.8247   33.8261   -0.8247 C   0  0  0  0  0  0  0  0  0  0  0  0
  -85.7930   31.5297   -0.0548 N   0  0  0  0  0  0  0  0  0  0  0  0
  -86.7183   28.7350   -1.5349 O   0  0  0  0  0  0  0  0  0  0  0  0
  -87.6536   28.4788   -2.5223 C   0  0  0  0  0  0  0  0  0  0  0  0
  -88.6199   30.8663   -2.2921 C   0  0  0  0  0  0  0  0  0  0  0  0
  -89.7405   29.9893   -2.8354 C   0  0  0  0  0  0  0  0  0  0  0  0
  -88.2725   29.6975   -3.1356 C   0  0  0  0  0  0  0  0  0  0  0  0
  -88.2608   34.8504   -3.8695 C   0  0  0  0  0  0  0  0  0  0  0  0
  -89.1314   34.5777   -2.8481 C   0  0  0  0  0  0  0  0  0  0  0  0
  -89.2449   33.2805   -2.3382 C   0  0  0  0  0  0  0  0  0  0  0  0
  -88.4908   32.2459   -2.8433 C   0  0  0  0  0  0  0  0  0  0  0  0
  -87.6428   32.5460   -3.8487 N   0  0  0  0  0  0  0  0  0  0  0  0
  -87.5154   33.7780   -4.3540 C   0  0  0  0  0  0  0  0  0  0  0  0
  -87.8152   37.2126   -3.5984 C   0  0  0  0  0  0  0  0  0  0  0  0
  -88.0885   36.1001   -4.4288 O   0  0  0  0  0  0  0  0  0  0  0  0
 27 28  1  0  0  0
 28 21  1  0  0  0
 21 22  2  0  0  0
 22 23  1  0  0  0
 23 24  2  0  0  0
 24 25  1  0  0  0
 25 26  2  0  0  0
 24 18  1  0  0  0
 18 19  1  0  0  0
 19 20  1  0  0  0
 20 17  1  0  0  0
 17 16  1  0  0  0
 16  1  1  0  0  0
  1  2  2  0  0  0
  2  3  1  0  0  0
  3  4  1  0  0  0
  3  5  2  0  0  0
  5  6  1  0  0  0
  6  7  2  0  0  0
  7  8  1  0  0  0
  8  9  1  0  0  0
  9 10  2  0  0  0
 10 11  1  0  0  0
 11 12  2  0  0  0
 11 13  1  0  0  0
 13 14  1  0  0  0
 13 15  1  0  0  0
 26 21  1  0  0  0
 20 18  1  0  0  0
  7  1  1  0  0  0
 15  8  2  0  0  0
M  END
> <minimizedAffinity>
-7.82963

> <CNNscore>
0.5182994604

> <CNNaffinity>
6.7173867226

> <CNN_VS>
3.4816179276

> <CNNaffinity_variance>
0.1922631115

$$$$
[H]c1nc([C@@]2([H])C([H])([H])[C@]2([H])C([H])([H])Oc2nc(C([H])([H])[H])nc([H])c2-c2nn(C([H])([H])[H])c(=O)c([H])c2[H])c([H])c([H])c1OC([H])([H])[H]


 28 31  0  0  0  0  0  0  0  0999 V2000
  -86.9574   30.7768   -0.9996 C   0  0  0  0  0  0  0  0  0  0  0  0
  -87.5272   31.8030   -1.7188 N   0  0  0  0  0  0  0  0  0  0  0  0
  -87.1534   33.0768   -1.6068 C   0  0  0  0  0  0  0  0  0  0  0  0
  -87.7797   34.1749   -2.3918 C   0  0  0  0  0  0  0  0  0  0  0  0
  -86.1672   33.3548   -0.7416 N   0  0  0  0  0  0  0  0  0  0  0  0
  -85.5793   32.3902   -0.0171 C   0  0  0  0  0  0  0  0  0  0  0  0
  -85.9560   31.0375   -0.1173 C   0  0  0  0  0  0  0  0  0  0  0  0
  -85.2591   30.0791    0.7067 C   0  0  0  0  0  0  0  0  0  0  0  0
  -84.0268   30.2462    1.2612 C   0  0  0  0  0  0  0  0  0  0  0  0
  -83.4148   29.2506    2.0587 C   0  0  0  0  0  0  0  0  0  0  0  0
  -84.1243   28.0968    2.2516 C   0  0  0  0  0  0  0  0  0  0  0  0
  -83.6292   27.1602    2.9605 O   0  0  0  0  0  0  0  0  0  0  0  0
  -85.3390   27.9305    1.7059 N   0  0  0  0  0  0  0  0  0  0  0  0
  -86.0497   26.6653    1.9522 C   0  0  0  0  0  0  0  0  0  0  0  0
  -85.8557   28.8761    0.9817 N   0  0  0  0  0  0  0  0  0  0  0  0
  -87.4074   29.5000   -1.1811 O   0  0  0  0  0  0  0  0  0  0  0  0
  -88.7065   29.0383   -1.3025 C   0  0  0  0  0  0  0  0  0  0  0  0
  -90.5658   27.7161   -0.0851 C   0  0  0  0  0  0  0  0  0  0  0  0
  -90.5777   29.1250    0.4936 C   0  0  0  0  0  0  0  0  0  0  0  0
  -89.2992   28.4858   -0.0424 C   0  0  0  0  0  0  0  0  0  0  0  0
  -91.1832   24.4271    2.6152 C   0  0  0  0  0  0  0  0  0  0  0  0
  -91.5890   24.3467    1.3096 C   0  0  0  0  0  0  0  0  0  0  0  0
  -91.3862   25.4188    0.4349 C   0  0  0  0  0  0  0  0  0  0  0  0
  -90.7770   26.5789    0.8560 C   0  0  0  0  0  0  0  0  0  0  0  0
  -90.3887   26.6276    2.1471 N   0  0  0  0  0  0  0  0  0  0  0  0
  -90.5710   25.6165    3.0036 C   0  0  0  0  0  0  0  0  0  0  0  0
  -90.3805   22.3865    3.6367 C   0  0  0  0  0  0  0  0  0  0  0  0
  -91.3453   23.4170    3.5412 O   0  0  0  0  0  0  0  0  0  0  0  0
 27 28  1  0  0  0
 28 21  1  0  0  0
 21 22  2  0  0  0
 22 23  1  0  0  0
 23 24  2  0  0  0
 24 25  1  0  0  0
 25 26  2  0  0  0
 24 18  1  0  0  0
 18 19  1  0  0  0
 19 20  1  0  0  0
 20 17  1  0  0  0
 17 16  1  0  0  0
 16  1  1  0  0  0
  1  2  2  0  0  0
  2  3  1  0  0  0
  3  4  1  0  0  0
  3  5  2  0  0  0
  5  6  1  0  0  0
  6  7  2  0  0  0
  7  8  1  0  0  0
  8  9  1  0  0  0
  9 10  2  0  0  0
 10 11  1  0  0  0
 11 12  2  0  0  0
 11 13  1  0  0  0
 13 14  1  0  0  0
 13 15  1  0  0  0
 26 21  1  0  0  0
 20 18  1  0  0  0
  7  1  1  0  0  0
 15  8  2  0  0  0
M  END
> <minimizedAffinity>
-8.30411

> <CNNscore>
0.2850346565

> <CNNaffinity>
6.7153329849

> <CNN_VS>
1.9141026735

> <CNNaffinity_variance>
0.3398635983

$$$$
[H]c1nc([C@@]2([H])C([H])([H])[C@]2([H])C([H])([H])Oc2nc(C([H])([H])[H])nc([H])c2-c2nn(C([H])([H])[H])c(=O)c([H])c2[H])c([H])c([H])c1OC([H])([H])[H]


 28 31  0  0  0  0  0  0  0  0999 V2000
  -90.3279   27.1431    1.2991 C   0  0  0  0  0  0  0  0  0  0  0  0
  -90.2540   26.5071    2.5179 N   0  0  0  0  0  0  0  0  0  0  0  0
  -90.6432   27.0641    3.6638 C   0  0  0  0  0  0  0  0  0  0  0  0
  -90.5569   26.3630    4.9735 C   0  0  0  0  0  0  0  0  0  0  0  0
  -91.1305   28.3121    3.6070 N   0  0  0  0  0  0  0  0  0  0  0  0
  -91.2233   28.9749    2.4438 C   0  0  0  0  0  0  0  0  0  0  0  0
  -90.8190   28.4087    1.2200 C   0  0  0  0  0  0  0  0  0  0  0  0
  -90.9617   29.2072    0.0262 C   0  0  0  0  0  0  0  0  0  0  0  0
  -90.1351   30.2155   -0.3662 C   0  0  0  0  0  0  0  0  0  0  0  0
  -90.3500   30.9502   -1.5562 C   0  0  0  0  0  0  0  0  0  0  0  0
  -91.4390   30.5989   -2.3061 C   0  0  0  0  0  0  0  0  0  0  0  0
  -91.6889   31.2216   -3.3899 O   0  0  0  0  0  0  0  0  0  0  0  0
  -92.2547   29.6053   -1.9209 N   0  0  0  0  0  0  0  0  0  0  0  0
  -93.4090   29.2771   -2.7731 C   0  0  0  0  0  0  0  0  0  0  0  0
  -92.0124   28.9623   -0.8193 N   0  0  0  0  0  0  0  0  0  0  0  0
  -89.9039   26.4918    0.1759 O   0  0  0  0  0  0  0  0  0  0  0  0
  -88.7511   25.7529   -0.0253 C   0  0  0  0  0  0  0  0  0  0  0  0
  -87.6030   28.0379   -0.4093 C   0  0  0  0  0  0  0  0  0  0  0  0
  -87.3099   27.1870   -1.6381 C   0  0  0  0  0  0  0  0  0  0  0  0
  -87.5144   26.5656   -0.2588 C   0  0  0  0  0  0  0  0  0  0  0  0
  -84.4497   30.5551    1.0776 C   0  0  0  0  0  0  0  0  0  0  0  0
  -85.4100   31.0569    0.2400 C   0  0  0  0  0  0  0  0  0  0  0  0
  -86.4337   30.2347   -0.2412 C   0  0  0  0  0  0  0  0  0  0  0  0
  -86.5070   28.9059    0.1096 C   0  0  0  0  0  0  0  0  0  0  0  0
  -85.5470   28.4412    0.9357 N   0  0  0  0  0  0  0  0  0  0  0  0
  -84.5576   29.2066    1.4096 C   0  0  0  0  0  0  0  0  0  0  0  0
  -82.4823   31.9176    0.7241 C   0  0  0  0  0  0  0  0  0  0  0  0
  -83.4081   31.2971    1.5958 O   0  0  0  0  0  0  0  0  0  0  0  0
 27 28  1  0  0  0
 28 21  1  0  0  0
 21 22  2  0  0  0
 22 23  1  0  0  0
 23 24  2  0  0  0
 24 25  1  0  0  0
 25 26  2  0  0  0
 24 18  1  0  0  0
 18 19  1  0  0  0
 19 20  1  0  0  0
 20 17  1  0  0  0
 17 16  1  0  0  0
 16  1  1  0  0  0
  1  2  2  0  0  0
  2  3  1  0  0  0
  3  4  1  0  0  0
  3  5  2  0  0  0
  5  6  1  0  0  0
  6  7  2  0  0  0
  7  8  1  0  0  0
  8  9  1  0  0  0
  9 10  2  0  0  0
 10 11  1  0  0  0
 11 12  2  0  0  0
 11 13  1  0  0  0
 13 14  1  0  0  0
 13 15  1  0  0  0
 26 21  1  0  0  0
 20 18  1  0  0  0
  7  1  1  0  0  0
 15  8  2  0  0  0
M  END
> <minimizedAffinity>
-7.25084

> <CNNscore>
0.2601979077

> <CNNaffinity>
6.2684526443

> <CNN_VS>
1.6310383081

> <CNNaffinity_variance>
0.1750472784

$$$$
[H]c1nc([C@@]2([H])C([H])([H])[C@]2([H])C([H])([H])Oc2nc(C([H])([H])[H])nc([H])c2-c2nn(C([H])([H])[H])c(=O)c([H])c2[H])c([H])c([H])c1OC([H])([H])[H]


 28 31  0  0  0  0  0  0  0  0999 V2000
  -87.2802   28.5837    0.2273 C   0  0  0  0  0  0  0  0  0  0  0  0
  -88.0474   27.5613    0.7387 N   0  0  0  0  0  0  0  0  0  0  0  0
  -87.9100   27.0854    1.9754 C   0  0  0  0  0  0  0  0  0  0  0  0
  -88.7475   25.9793    2.5135 C   0  0  0  0  0  0  0  0  0  0  0  0
  -86.9683   27.6451    2.7490 N   0  0  0  0  0  0  0  0  0  0  0  0
  -86.1947   28.6444    2.2974 C   0  0  0  0  0  0  0  0  0  0  0  0
  -86.3202   29.1647    0.9953 C   0  0  0  0  0  0  0  0  0  0  0  0
  -85.4385   30.2403    0.6096 C   0  0  0  0  0  0  0  0  0  0  0  0
  -84.0776   30.1972    0.6041 C   0  0  0  0  0  0  0  0  0  0  0  0
  -83.2873   31.3026    0.2099 C   0  0  0  0  0  0  0  0  0  0  0  0
  -83.9586   32.4323   -0.1708 C   0  0  0  0  0  0  0  0  0  0  0  0
  -83.3053   33.4637   -0.5374 O   0  0  0  0  0  0  0  0  0  0  0  0
  -85.2999   32.4765   -0.1660 N   0  0  0  0  0  0  0  0  0  0  0  0
  -85.9607   33.7225   -0.5871 C   0  0  0  0  0  0  0  0  0  0  0  0
  -85.9782   31.4335    0.2049 N   0  0  0  0  0  0  0  0  0  0  0  0
  -87.4930   29.0054   -1.0543 O   0  0  0  0  0  0  0  0  0  0  0  0
  -88.5683   29.7002   -1.5804 C   0  0  0  0  0  0  0  0  0  0  0  0
  -90.9494   29.4568   -2.5591 C   0  0  0  0  0  0  0  0  0  0  0  0
  -90.9397   28.7044   -1.2348 C   0  0  0  0  0  0  0  0  0  0  0  0
  -89.6840   28.8413   -2.0920 C   0  0  0  0  0  0  0  0  0  0  0  0
  -93.1090   27.6851   -5.8283 C   0  0  0  0  0  0  0  0  0  0  0  0
  -92.9426   27.0072   -4.6500 C   0  0  0  0  0  0  0  0  0  0  0  0
  -92.2396   27.5873   -3.5893 C   0  0  0  0  0  0  0  0  0  0  0  0
  -91.6974   28.8477   -3.6963 C   0  0  0  0  0  0  0  0  0  0  0  0
  -91.8779   29.4898   -4.8690 N   0  0  0  0  0  0  0  0  0  0  0  0
  -92.5461   28.9573   -5.8982 C   0  0  0  0  0  0  0  0  0  0  0  0
  -94.7306   27.9961   -7.5962 C   0  0  0  0  0  0  0  0  0  0  0  0
  -93.7876   27.1857   -6.9210 O   0  0  0  0  0  0  0  0  0  0  0  0
 27 28  1  0  0  0
 28 21  1  0  0  0
 21 22  2  0  0  0
 22 23  1  0  0  0
 23 24  2  0  0  0
 24 25  1  0  0  0
 25 26  2  0  0  0
 24 18  1  0  0  0
 18 19  1  0  0  0
 19 20  1  0  0  0
 20 17  1  0  0  0
 17 16  1  0  0  0
 16  1  1  0  0  0
  1  2  2  0  0  0
  2  3  1  0  0  0
  3  4  1  0  0  0
  3  5  2  0  0  0
  5  6  1  0  0  0
  6  7  2  0  0  0
  7  8  1  0  0  0
  8  9  1  0  0  0
  9 10  2  0  0  0
 10 11  1  0  0  0
 11 12  2  0  0  0
 11 13  1  0  0  0
 13 14  1  0  0  0
 13 15  1  0  0  0
 26 21  1  0  0  0
 20 18  1  0  0  0
  7  1  1  0  0  0
 15  8  2  0  0  0
M  END
> <minimizedAffinity>
-7.00679

> <CNNscore>
0.2577740848

> <CNNaffinity>
6.3273382187

> <CNN_VS>
1.6310237646

> <CNNaffinity_variance>
0.2627118826

$$$$
[H]c1nc([C@@]2([H])C([H])([H])[C@]2([H])C([H])([H])Oc2nc(C([H])([H])[H])nc([H])c2-c2nn(C([H])([H])[H])c(=O)c([H])c2[H])c([H])c([H])c1OC([H])([H])[H]


 28 31  0  0  0  0  0  0  0  0999 V2000
  -88.1655   27.3112    1.9353 C   0  0  0  0  0  0  0  0  0  0  0  0
  -88.6481   26.9236    3.1649 N   0  0  0  0  0  0  0  0  0  0  0  0
  -89.9223   27.0555    3.5307 C   0  0  0  0  0  0  0  0  0  0  0  0
  -90.4285   26.6313    4.8642 C   0  0  0  0  0  0  0  0  0  0  0  0
  -90.7653   27.5973    2.6395 N   0  0  0  0  0  0  0  0  0  0  0  0
  -90.3443   27.9912    1.4277 C   0  0  0  0  0  0  0  0  0  0  0  0
  -89.0038   27.8626    1.0175 C   0  0  0  0  0  0  0  0  0  0  0  0
  -88.6560   28.3173   -0.3074 C   0  0  0  0  0  0  0  0  0  0  0  0
  -87.5881   27.9006   -1.0422 C   0  0  0  0  0  0  0  0  0  0  0  0
  -87.3200   28.4013   -2.3382 C   0  0  0  0  0  0  0  0  0  0  0  0
  -88.1918   29.3350   -2.8279 C   0  0  0  0  0  0  0  0  0  0  0  0
  -88.0068   29.8260   -3.9896 O   0  0  0  0  0  0  0  0  0  0  0  0
  -89.2449   29.7467   -2.1050 N   0  0  0  0  0  0  0  0  0  0  0  0
  -90.1449   30.7537   -2.6901 C   0  0  0  0  0  0  0  0  0  0  0  0
  -89.4457   29.2551   -0.9203 N   0  0  0  0  0  0  0  0  0  0  0  0
  -86.8413   27.1371    1.6492 O   0  0  0  0  0  0  0  0  0  0  0  0
  -85.7460   27.8512    2.1031 C   0  0  0  0  0  0  0  0  0  0  0  0
  -84.9158   30.0120    0.9505 C   0  0  0  0  0  0  0  0  0  0  0  0
  -84.7021   30.2022    2.4465 C   0  0  0  0  0  0  0  0  0  0  0  0
  -85.8311   29.3329    1.8987 C   0  0  0  0  0  0  0  0  0  0  0  0
  -86.2818   33.4013   -1.3161 C   0  0  0  0  0  0  0  0  0  0  0  0
  -84.9587   33.2644   -0.9900 C   0  0  0  0  0  0  0  0  0  0  0  0
  -84.5188   32.1605   -0.2528 C   0  0  0  0  0  0  0  0  0  0  0  0
  -85.3955   31.1850    0.1646 C   0  0  0  0  0  0  0  0  0  0  0  0
  -86.6917   31.3481   -0.1720 N   0  0  0  0  0  0  0  0  0  0  0  0
  -87.1377   32.3943   -0.8762 C   0  0  0  0  0  0  0  0  0  0  0  0
  -87.0201   34.3185   -3.4293 C   0  0  0  0  0  0  0  0  0  0  0  0
  -86.7969   34.4577   -2.0391 O   0  0  0  0  0  0  0  0  0  0  0  0
 27 28  1  0  0  0
 28 21  1  0  0  0
 21 22  2  0  0  0
 22 23  1  0  0  0
 23 24  2  0  0  0
 24 25  1  0  0  0
 25 26  2  0  0  0
 24 18  1  0  0  0
 18 19  1  0  0  0
 19 20  1  0  0  0
 20 17  1  0  0  0
 17 16  1  0  0  0
 16  1  1  0  0  0
  1  2  2  0  0  0
  2  3  1  0  0  0
  3  4  1  0  0  0
  3  5  2  0  0  0
  5  6  1  0  0  0
  6  7  2  0  0  0
  7  8  1  0  0  0
  8  9  1  0  0  0
  9 10  2  0  0  0
 10 11  1  0  0  0
 11 12  2  0  0  0
 11 13  1  0  0  0
 13 14  1  0  0  0
 13 15  1  0  0  0
 26 21  1  0  0  0
 20 18  1  0  0  0
  7  1  1  0  0  0
 15  8  2  0  0  0
M  END
> <minimizedAffinity>
-8.19702

> <CNNscore>
0.2382820547

> <CNNaffinity>
6.3010053635

> <CNN_VS>
1.5014165640

> <CNNaffinity_variance>
0.3192660809

$$$$
[H]c1nc([C@@]2([H])C([H])([H])[C@]2([H])C([H])([H])Oc2nc(C([H])([H])[H])nc([H])c2-c2nn(C([H])([H])[H])c(=O)c([H])c2[H])c([H])c([H])c1OC([H])([H])[H]


 28 31  0  0  0  0  0  0  0  0999 V2000
  -87.5624   29.1104    0.3466 C   0  0  0  0  0  0  0  0  0  0  0  0
  -88.3100   28.0333    0.7664 N   0  0  0  0  0  0  0  0  0  0  0  0
  -87.8569   27.1059    1.6086 C   0  0  0  0  0  0  0  0  0  0  0  0
  -88.6780   25.9472    2.0529 C   0  0  0  0  0  0  0  0  0  0  0  0
  -86.6023   27.2460    2.0611 N   0  0  0  0  0  0  0  0  0  0  0  0
  -85.8328   28.2782    1.6821 C   0  0  0  0  0  0  0  0  0  0  0  0
  -86.2882   29.2708    0.7937 C   0  0  0  0  0  0  0  0  0  0  0  0
  -85.3802   30.3390    0.4510 C   0  0  0  0  0  0  0  0  0  0  0  0
  -84.0206   30.2653    0.4515 C   0  0  0  0  0  0  0  0  0  0  0  0
  -83.2032   31.3657    0.1010 C   0  0  0  0  0  0  0  0  0  0  0  0
  -83.8465   32.5230   -0.2433 C   0  0  0  0  0  0  0  0  0  0  0  0
  -83.1679   33.5515   -0.5696 O   0  0  0  0  0  0  0  0  0  0  0  0
  -85.1864   32.5974   -0.2444 N   0  0  0  0  0  0  0  0  0  0  0  0
  -85.8164   33.8721   -0.6249 C   0  0  0  0  0  0  0  0  0  0  0  0
  -85.8904   31.5576    0.0858 N   0  0  0  0  0  0  0  0  0  0  0  0
  -88.1121   30.0114   -0.5204 O   0  0  0  0  0  0  0  0  0  0  0  0
  -89.3599   30.6094   -0.4874 C   0  0  0  0  0  0  0  0  0  0  0  0
  -90.1303   29.1369   -2.4685 C   0  0  0  0  0  0  0  0  0  0  0  0
  -90.9403   30.4250   -2.5375 C   0  0  0  0  0  0  0  0  0  0  0  0
  -90.4368   29.8608   -1.2114 C   0  0  0  0  0  0  0  0  0  0  0  0
  -92.1479   25.4446   -3.3559 C   0  0  0  0  0  0  0  0  0  0  0  0
  -91.2931   25.5367   -2.2898 C   0  0  0  0  0  0  0  0  0  0  0  0
  -90.6391   26.7395   -2.0049 C   0  0  0  0  0  0  0  0  0  0  0  0
  -90.8330   27.8593   -2.7813 C   0  0  0  0  0  0  0  0  0  0  0  0
  -91.6804   27.7371   -3.8238 N   0  0  0  0  0  0  0  0  0  0  0  0
  -92.3180   26.5985   -4.1176 C   0  0  0  0  0  0  0  0  0  0  0  0
  -92.4546   23.0544   -3.1448 C   0  0  0  0  0  0  0  0  0  0  0  0
  -92.8312   24.2979   -3.7051 O   0  0  0  0  0  0  0  0  0  0  0  0
 27 28  1  0  0  0
 28 21  1  0  0  0
 21 22  2  0  0  0
 22 23  1  0  0  0
 23 24  2  0  0  0
 24 25  1  0  0  0
 25 26  2  0  0  0
 24 18  1  0  0  0
 18 19  1  0  0  0
 19 20  1  0  0  0
 20 17  1  0  0  0
 17 16  1  0  0  0
 16  1  1  0  0  0
  1  2  2  0  0  0
  2  3  1  0  0  0
  3  4  1  0  0  0
  3  5  2  0  0  0
  5  6  1  0  0  0
  6  7  2  0  0  0
  7  8  1  0  0  0
  8  9  1  0  0  0
  9 10  2  0  0  0
 10 11  1  0  0  0
 11 12  2  0  0  0
 11 13  1  0  0  0
 13 14  1  0  0  0
 13 15  1  0  0  0
 26 21  1  0  0  0
 20 18  1  0  0  0
  7  1  1  0  0  0
 15  8  2  0  0  0
M  END
> <minimizedAffinity>
-7.49808

> <CNNscore>
0.2288307250

> <CNNaffinity>
6.3800086975

> <CNN_VS>
1.4599419832

> <CNNaffinity_variance>
0.3281757832

$$$$
[H]c1nc([C@@]2([H])C([H])([H])[C@]2([H])C([H])([H])Oc2nc(C([H])([H])[H])nc([H])c2-c2nn(C([H])([H])[H])c(=O)c([H])c2[H])c([H])c([H])c1OC([H])([H])[H]


 28 31  0  0  0  0  0  0  0  0999 V2000
  -87.3943   31.3445   -1.0016 C   0  0  0  0  0  0  0  0  0  0  0  0
  -88.3044   32.1261   -1.6769 N   0  0  0  0  0  0  0  0  0  0  0  0
  -88.0990   33.4095   -1.9695 C   0  0  0  0  0  0  0  0  0  0  0  0
  -89.0933   34.2410   -2.7005 C   0  0  0  0  0  0  0  0  0  0  0  0
  -86.9370   33.9517   -1.5769 N   0  0  0  0  0  0  0  0  0  0  0  0
  -86.0170   33.2322   -0.9159 C   0  0  0  0  0  0  0  0  0  0  0  0
  -86.2101   31.8752   -0.5949 C   0  0  0  0  0  0  0  0  0  0  0  0
  -85.1570   31.1929    0.1181 C   0  0  0  0  0  0  0  0  0  0  0  0
  -83.8549   31.5844    0.1902 C   0  0  0  0  0  0  0  0  0  0  0  0
  -82.8839   30.8529    0.9141 C   0  0  0  0  0  0  0  0  0  0  0  0
  -83.3156   29.7195    1.5473 C   0  0  0  0  0  0  0  0  0  0  0  0
  -82.4906   29.0151    2.2167 O   0  0  0  0  0  0  0  0  0  0  0  0
  -84.5985   29.3322    1.4774 N   0  0  0  0  0  0  0  0  0  0  0  0
  -84.9980   28.1030    2.1815 C   0  0  0  0  0  0  0  0  0  0  0  0
  -85.4499   30.0400    0.7991 N   0  0  0  0  0  0  0  0  0  0  0  0
  -87.6929   30.0365   -0.7456 O   0  0  0  0  0  0  0  0  0  0  0  0
  -87.8076   28.9757   -1.6271 C   0  0  0  0  0  0  0  0  0  0  0  0
  -89.6527   27.4257   -2.5653 C   0  0  0  0  0  0  0  0  0  0  0  0
  -90.3601   28.6119   -1.9231 C   0  0  0  0  0  0  0  0  0  0  0  0
  -89.0109   28.1085   -1.4163 C   0  0  0  0  0  0  0  0  0  0  0  0
  -91.4197   23.5396   -2.0488 C   0  0  0  0  0  0  0  0  0  0  0  0
  -92.1356   24.5658   -2.6055 C   0  0  0  0  0  0  0  0  0  0  0  0
  -91.5570   25.8281   -2.7716 C   0  0  0  0  0  0  0  0  0  0  0  0
  -90.2599   26.0759   -2.3836 C   0  0  0  0  0  0  0  0  0  0  0  0
  -89.5809   25.0454   -1.8387 N   0  0  0  0  0  0  0  0  0  0  0  0
  -90.1111   23.8291   -1.6690 C   0  0  0  0  0  0  0  0  0  0  0  0
  -93.2885   22.0037   -2.0639 C   0  0  0  0  0  0  0  0  0  0  0  0
  -91.9149   22.2671   -1.8500 O   0  0  0  0  0  0  0  0  0  0  0  0
 27 28  1  0  0  0
 28 21  1  0  0  0
 21 22  2  0  0  0
 22 23  1  0  0  0
 23 24  2  0  0  0
 24 25  1  0  0  0
 25 26  2  0  0  0
 24 18  1  0  0  0
 18 19  1  0  0  0
 19 20  1  0  0  0
 20 17  1  0  0  0
 17 16  1  0  0  0
 16  1  1  0  0  0
  1  2  2  0  0  0
  2  3  1  0  0  0
  3  4  1  0  0  0
  3  5  2  0  0  0
  5  6  1  0  0  0
  6  7  2  0  0  0
  7  8  1  0  0  0
  8  9  1  0  0  0
  9 10  2  0  0  0
 10 11  1  0  0  0
 11 12  2  0  0  0
 11 13  1  0  0  0
 13 14  1  0  0  0
 13 15  1  0  0  0
 26 21  1  0  0  0
 20 18  1  0  0  0
  7  1  1  0  0  0
 15  8  2  0  0  0
M  END
> <minimizedAffinity>
-7.86571

> <CNNscore>
0.2185941786

> <CNNaffinity>
6.2722864151

> <CNN_VS>
1.3710852861

> <CNNaffinity_variance>
0.2529455721

$$$$
[H]c1nc(N([H])C(=O)N([H])C([H])([H])C([H])([H])[H])c([H])c(-c2nc(C(F)(F)F)c([H])s2)c1-c1c(N2C([H])([H])C([H])([H])OC([H])([H])C2([H])[H])nc2c([H])c([H])nc([H])c2c1[H]


 39 43  0  0  0  0  0  0  0  0999 V2000
  -91.2429   26.4268   -2.4408 C   0  0  0  0  0  0  0  0  0  0  0  0
  -91.3440   26.7630   -1.1081 C   0  0  0  0  0  0  0  0  0  0  0  0
  -90.2657   27.3259   -0.4052 C   0  0  0  0  0  0  0  0  0  0  0  0
  -89.0932   27.5423   -1.0476 C   0  0  0  0  0  0  0  0  0  0  0  0
  -89.0277   27.1748   -2.4066 C   0  0  0  0  0  0  0  0  0  0  0  0
  -90.1053   26.6339   -3.0354 N   0  0  0  0  0  0  0  0  0  0  0  0
  -88.0173   28.1496   -0.3382 C   0  0  0  0  0  0  0  0  0  0  0  0
  -87.1481   27.3704    0.4491 C   0  0  0  0  0  0  0  0  0  0  0  0
  -86.1465   27.9063    1.1662 C   0  0  0  0  0  0  0  0  0  0  0  0
  -85.3033   27.1824    1.9500 C   0  0  0  0  0  0  0  0  0  0  0  0
  -84.3213   27.7820    2.6682 N   0  0  0  0  0  0  0  0  0  0  0  0
  -84.1262   29.1042    2.6427 C   0  0  0  0  0  0  0  0  0  0  0  0
  -84.9537   29.8881    1.8556 C   0  0  0  0  0  0  0  0  0  0  0  0
  -85.9587   29.2914    1.1217 C   0  0  0  0  0  0  0  0  0  0  0  0
  -86.7755   30.0241    0.3813 N   0  0  0  0  0  0  0  0  0  0  0  0
  -87.8009   29.4989   -0.3545 C   0  0  0  0  0  0  0  0  0  0  0  0
  -88.5018   30.4037   -1.1483 N   0  0  0  0  0  0  0  0  0  0  0  0
  -87.8431   30.7590   -2.4363 C   0  0  0  0  0  0  0  0  0  0  0  0
  -88.2660   32.1673   -2.8002 C   0  0  0  0  0  0  0  0  0  0  0  0
  -89.6114   32.2303   -2.9850 O   0  0  0  0  0  0  0  0  0  0  0  0
  -90.4134   31.5371   -2.1510 C   0  0  0  0  0  0  0  0  0  0  0  0
  -89.7343   31.0302   -0.8677 C   0  0  0  0  0  0  0  0  0  0  0  0
  -94.0404   25.8882   -5.0311 N   0  0  0  0  0  0  0  0  0  0  0  0
  -92.8518   26.1817   -4.2960 C   0  0  0  0  0  0  0  0  0  0  0  0
  -92.0533   26.8655   -5.1780 O   0  0  0  0  0  0  0  0  0  0  0  0
  -92.4601   25.9424   -3.0506 N   0  0  0  0  0  0  0  0  0  0  0  0
  -94.7705   25.4088   -4.3758 H   0  0  0  0  0  0  0  0  0  0  0  0
  -93.0999   25.3469   -2.4244 H   0  0  0  0  0  0  0  0  0  0  0  0
  -94.8187   24.7492   -7.0008 C   0  0  0  0  0  0  0  0  0  0  0  0
  -94.4365   26.1018   -6.3207 C   0  0  0  0  0  0  0  0  0  0  0  0
  -90.5423   27.5613    1.0047 C   0  0  0  0  0  0  0  0  0  0  0  0
  -90.2754   26.5871    1.9389 N   0  0  0  0  0  0  0  0  0  0  0  0
  -90.4515   26.8497    3.1859 C   0  0  0  0  0  0  0  0  0  0  0  0
  -90.8979   28.0813    3.5490 C   0  0  0  0  0  0  0  0  0  0  0  0
  -91.0406   28.8280    2.0100 S   0  0  0  0  0  0  0  0  0  0  0  0
  -90.0854   25.8190    4.2522 C   0  0  0  0  0  0  0  0  0  0  0  0
  -88.8464   25.2991    3.9887 F   0  0  0  0  0  0  0  0  0  0  0  0
  -90.0685   26.3835    5.4980 F   0  0  0  0  0  0  0  0  0  0  0  0
  -91.0779   24.8288    4.2185 F   0  0  0  0  0  0  0  0  0  0  0  0
 29 30  1  0  0  0
 30 23  1  0  0  0
 23 24  1  0  0  0
 24 25  2  0  0  0
 24 26  1  0  0  0
 26  1  1  0  0  0
  1  2  2  0  0  0
  2  3  1  0  0  0
  3 31  1  0  0  0
 31 32  2  0  0  0
 32 33  1  0  0  0
 33 34  2  0  0  0
 34 35  1  0  0  0
 33 36  1  0  0  0
 36 37  1  0  0  0
 36 38  1  0  0  0
 36 39  1  0  0  0
  3  4  2  0  0  0
  4  5  1  0  0  0
  5  6  2  0  0  0
  4  7  1  0  0  0
  7  8  2  0  0  0
  8  9  1  0  0  0
  9 10  2  0  0  0
 10 11  1  0  0  0
 11 12  2  0  0  0
 12 13  1  0  0  0
 13 14  2  0  0  0
 14 15  1  0  0  0
 15 16  2  0  0  0
 16 17  1  0  0  0
 17 18  1  0  0  0
 18 19  1  0  0  0
 19 20  1  0  0  0
 20 21  1  0  0  0
 21 22  1  0  0  0
  6  1  1  0  0  0
 16  7  1  0  0  0
 22 17  1  0  0  0
 35 31  1  0  0  0
 14  9  1  0  0  0
 23 27  1  0  0  0
 26 28  1  0  0  0
M  END
> <minimizedAffinity>
-9.15150

> <CNNscore>
0.1269181222

> <CNNaffinity>
6.7580423355

> <CNN_VS>
0.8577180505

> <CNNaffinity_variance>
0.2345477045

$$$$
[H]c1nc(N([H])C(=O)N([H])C([H])([H])C([H])([H])[H])c([H])c(-c2nc(C(F)(F)F)c([H])s2)c1-c1c(N2C([H])([H])C([H])([H])OC([H])([H])C2([H])[H])nc2c([H])c([H])nc([H])c2c1[H]


 39 43  0  0  0  0  0  0  0  0999 V2000
  -90.1964   26.7612   -2.6010 C   0  0  0  0  0  0  0  0  0  0  0  0
  -89.9563   26.7188   -1.2447 C   0  0  0  0  0  0  0  0  0  0  0  0
  -89.0046   27.5550   -0.6373 C   0  0  0  0  0  0  0  0  0  0  0  0
  -88.2994   28.4241   -1.4000 C   0  0  0  0  0  0  0  0  0  0  0  0
  -88.5672   28.4286   -2.7836 C   0  0  0  0  0  0  0  0  0  0  0  0
  -89.5013   27.5959   -3.3157 N   0  0  0  0  0  0  0  0  0  0  0  0
  -87.3644   29.2958   -0.7710 C   0  0  0  0  0  0  0  0  0  0  0  0
  -86.2816   28.7753   -0.0369 C   0  0  0  0  0  0  0  0  0  0  0  0
  -85.4003   29.5599    0.6055 C   0  0  0  0  0  0  0  0  0  0  0  0
  -84.3565   29.0865    1.3375 C   0  0  0  0  0  0  0  0  0  0  0  0
  -83.5099   29.9279    1.9816 N   0  0  0  0  0  0  0  0  0  0  0  0
  -83.6499   31.2563    1.9301 C   0  0  0  0  0  0  0  0  0  0  0  0
  -84.6936   31.7916    1.1933 C   0  0  0  0  0  0  0  0  0  0  0  0
  -85.5641   30.9469    0.5350 C   0  0  0  0  0  0  0  0  0  0  0  0
  -86.5819   31.4365   -0.1555 N   0  0  0  0  0  0  0  0  0  0  0  0
  -87.4900   30.6560   -0.8151 C   0  0  0  0  0  0  0  0  0  0  0  0
  -88.4416   31.3394   -1.5683 N   0  0  0  0  0  0  0  0  0  0  0  0
  -87.9143   32.0324   -2.7770 C   0  0  0  0  0  0  0  0  0  0  0  0
  -88.7939   33.2369   -3.0414 C   0  0  0  0  0  0  0  0  0  0  0  0
  -90.0704   32.8491   -3.3029 O   0  0  0  0  0  0  0  0  0  0  0  0
  -90.6010   31.8384   -2.5842 C   0  0  0  0  0  0  0  0  0  0  0  0
  -89.8227   31.4677   -1.3108 C   0  0  0  0  0  0  0  0  0  0  0  0
  -93.3374   25.5798   -4.4890 N   0  0  0  0  0  0  0  0  0  0  0  0
  -92.1699   26.2288   -3.9839 C   0  0  0  0  0  0  0  0  0  0  0  0
  -92.1082   27.4193   -4.6634 O   0  0  0  0  0  0  0  0  0  0  0  0
  -91.2656   25.9079   -3.0669 N   0  0  0  0  0  0  0  0  0  0  0  0
  -93.5089   24.6505   -3.9418 H   0  0  0  0  0  0  0  0  0  0  0  0
  -91.3280   24.9352   -2.6130 H   0  0  0  0  0  0  0  0  0  0  0  0
  -94.7315   24.5918   -6.1811 C   0  0  0  0  0  0  0  0  0  0  0  0
  -94.2528   25.8885   -5.4546 C   0  0  0  0  0  0  0  0  0  0  0  0
  -88.8503   27.3278    0.7926 C   0  0  0  0  0  0  0  0  0  0  0  0
  -89.7530   27.8604    1.6838 N   0  0  0  0  0  0  0  0  0  0  0  0
  -89.6415   27.5768    2.9336 C   0  0  0  0  0  0  0  0  0  0  0  0
  -88.6346   26.7599    3.3422 C   0  0  0  0  0  0  0  0  0  0  0  0
  -87.8741   26.4260    1.8400 S   0  0  0  0  0  0  0  0  0  0  0  0
  -90.6757   28.0839    3.9368 C   0  0  0  0  0  0  0  0  0  0  0  0
  -90.0424   28.6748    4.9973 F   0  0  0  0  0  0  0  0  0  0  0  0
  -91.5135   28.9990    3.3608 F   0  0  0  0  0  0  0  0  0  0  0  0
  -91.4298   26.9726    4.3405 F   0  0  0  0  0  0  0  0  0  0  0  0
 29 30  1  0  0  0
 30 23  1  0  0  0
 23 24  1  0  0  0
 24 25  2  0  0  0
 24 26  1  0  0  0
 26  1  1  0  0  0
  1  2  2  0  0  0
  2  3  1  0  0  0
  3 31  1  0  0  0
 31 32  2  0  0  0
 32 33  1  0  0  0
 33 34  2  0  0  0
 34 35  1  0  0  0
 33 36  1  0  0  0
 36 37  1  0  0  0
 36 38  1  0  0  0
 36 39  1  0  0  0
  3  4  2  0  0  0
  4  5  1  0  0  0
  5  6  2  0  0  0
  4  7  1  0  0  0
  7  8  2  0  0  0
  8  9  1  0  0  0
  9 10  2  0  0  0
 10 11  1  0  0  0
 11 12  2  0  0  0
 12 13  1  0  0  0
 13 14  2  0  0  0
 14 15  1  0  0  0
 15 16  2  0  0  0
 16 17  1  0  0  0
 17 18  1  0  0  0
 18 19  1  0  0  0
 19 20  1  0  0  0
 20 21  1  0  0  0
 21 22  1  0  0  0
  6  1  1  0  0  0
 16  7  1  0  0  0
 22 17  1  0  0  0
 35 31  1  0  0  0
 14  9  1  0  0  0
 23 27  1  0  0  0
 26 28  1  0  0  0
M  END
> <minimizedAffinity>
-9.59065

> <CNNscore>
0.1178191006

> <CNNaffinity>
6.9303984642

> <CNN_VS>
0.8165333271

> <CNNaffinity_variance>
0.2542708516

$$$$
[H]c1nc(N([H])C(=O)N([H])C([H])([H])C([H])([H])[H])c([H])c(-c2nc(C(F)(F)F)c([H])s2)c1-c1c(N2C([H])([H])C([H])([H])OC([H])([H])C2([H])[H])nc2c([H])c([H])nc([H])c2c1[H]


 39 43  0  0  0  0  0  0  0  0999 V2000
  -88.6194   26.5138   -1.8042 C   0  0  0  0  0  0  0  0  0  0  0  0
  -87.9543   27.4296   -1.0181 C   0  0  0  0  0  0  0  0  0  0  0  0
  -88.0084   28.8080   -1.2845 C   0  0  0  0  0  0  0  0  0  0  0  0
  -88.7277   29.2533   -2.3420 C   0  0  0  0  0  0  0  0  0  0  0  0
  -89.3839   28.2840   -3.1269 C   0  0  0  0  0  0  0  0  0  0  0  0
  -89.2960   26.9622   -2.8199 N   0  0  0  0  0  0  0  0  0  0  0  0
  -88.8095   30.6552   -2.5822 C   0  0  0  0  0  0  0  0  0  0  0  0
  -87.6560   31.3951   -2.9054 C   0  0  0  0  0  0  0  0  0  0  0  0
  -87.6808   32.7241   -3.0996 C   0  0  0  0  0  0  0  0  0  0  0  0
  -86.5810   33.4681   -3.3940 C   0  0  0  0  0  0  0  0  0  0  0  0
  -86.6642   34.8116   -3.5597 N   0  0  0  0  0  0  0  0  0  0  0  0
  -87.8206   35.4728   -3.4484 C   0  0  0  0  0  0  0  0  0  0  0  0
  -88.9728   34.7620   -3.1554 C   0  0  0  0  0  0  0  0  0  0  0  0
  -88.9023   33.3947   -2.9818 C   0  0  0  0  0  0  0  0  0  0  0  0
  -89.9870   32.6992   -2.6782 N   0  0  0  0  0  0  0  0  0  0  0  0
  -89.9832   31.3473   -2.4756 C   0  0  0  0  0  0  0  0  0  0  0  0
  -91.2291   30.7644   -2.2570 N   0  0  0  0  0  0  0  0  0  0  0  0
  -91.3996   30.1139   -0.9278 C   0  0  0  0  0  0  0  0  0  0  0  0
  -92.3897   28.9791   -1.0907 C   0  0  0  0  0  0  0  0  0  0  0  0
  -93.6012   29.4538   -1.4846 O   0  0  0  0  0  0  0  0  0  0  0  0
  -93.6429   30.4496   -2.3935 C   0  0  0  0  0  0  0  0  0  0  0  0
  -92.3244   30.7005   -3.1440 C   0  0  0  0  0  0  0  0  0  0  0  0
  -89.4339   23.2693    0.1026 N   0  0  0  0  0  0  0  0  0  0  0  0
  -89.3974   24.5504   -0.5274 C   0  0  0  0  0  0  0  0  0  0  0  0
  -90.5243   25.1936   -0.0809 O   0  0  0  0  0  0  0  0  0  0  0  0
  -88.5447   25.1425   -1.3543 N   0  0  0  0  0  0  0  0  0  0  0  0
  -88.5249   22.7140   -0.1373 H   0  0  0  0  0  0  0  0  0  0  0  0
  -87.7132   24.5677   -1.7210 H   0  0  0  0  0  0  0  0  0  0  0  0
  -91.3009   21.7537    0.0939 C   0  0  0  0  0  0  0  0  0  0  0  0
  -90.3237   22.6417    0.9273 C   0  0  0  0  0  0  0  0  0  0  0  0
  -87.1983   29.6130   -0.3814 C   0  0  0  0  0  0  0  0  0  0  0  0
  -86.3841   29.0096    0.5490 N   0  0  0  0  0  0  0  0  0  0  0  0
  -85.6173   29.7407    1.2788 C   0  0  0  0  0  0  0  0  0  0  0  0
  -85.6317   31.0900    1.1133 C   0  0  0  0  0  0  0  0  0  0  0  0
  -86.7940   31.2385   -0.1410 S   0  0  0  0  0  0  0  0  0  0  0  0
  -84.6417   29.0966    2.2619 C   0  0  0  0  0  0  0  0  0  0  0  0
  -84.5978   27.7441    2.0529 F   0  0  0  0  0  0  0  0  0  0  0  0
  -83.3810   29.6051    2.1098 F   0  0  0  0  0  0  0  0  0  0  0  0
  -85.1004   29.4046    3.5509 F   0  0  0  0  0  0  0  0  0  0  0  0
 29 30  1  0  0  0
 30 23  1  0  0  0
 23 24  1  0  0  0
 24 25  2  0  0  0
 24 26  1  0  0  0
 26  1  1  0  0  0
  1  2  2  0  0  0
  2  3  1  0  0  0
  3 31  1  0  0  0
 31 32  2  0  0  0
 32 33  1  0  0  0
 33 34  2  0  0  0
 34 35  1  0  0  0
 33 36  1  0  0  0
 36 37  1  0  0  0
 36 38  1  0  0  0
 36 39  1  0  0  0
  3  4  2  0  0  0
  4  5  1  0  0  0
  5  6  2  0  0  0
  4  7  1  0  0  0
  7  8  2  0  0  0
  8  9  1  0  0  0
  9 10  2  0  0  0
 10 11  1  0  0  0
 11 12  2  0  0  0
 12 13  1  0  0  0
 13 14  2  0  0  0
 14 15  1  0  0  0
 15 16  2  0  0  0
 16 17  1  0  0  0
 17 18  1  0  0  0
 18 19  1  0  0  0
 19 20  1  0  0  0
 20 21  1  0  0  0
 21 22  1  0  0  0
  6  1  1  0  0  0
 16  7  1  0  0  0
 22 17  1  0  0  0
 35 31  1  0  0  0
 14  9  1  0  0  0
 23 27  1  0  0  0
 26 28  1  0  0  0
M  END
> <minimizedAffinity>
-8.17663

> <CNNscore>
0.0750282332

> <CNNaffinity>
6.3889570236

> <CNN_VS>
0.4793521464

> <CNNaffinity_variance>
0.7671200037

$$$$
[H]c1nc(N([H])C(=O)N([H])C([H])([H])C([H])([H])[H])c([H])c(-c2nc(C(F)(F)F)c([H])s2)c1-c1c(N2C([H])([H])C([H])([H])OC([H])([H])C2([H])[H])nc2c([H])c([H])nc([H])c2c1[H]


 39 43  0  0  0  0  0  0  0  0999 V2000
  -87.2849   33.8630   -2.4344 C   0  0  0  0  0  0  0  0  0  0  0  0
  -88.4615   33.1607   -2.2870 C   0  0  0  0  0  0  0  0  0  0  0  0
  -88.4745   31.8279   -1.8428 C   0  0  0  0  0  0  0  0  0  0  0  0
  -87.3037   31.2113   -1.5545 C   0  0  0  0  0  0  0  0  0  0  0  0
  -86.1229   31.9605   -1.7287 C   0  0  0  0  0  0  0  0  0  0  0  0
  -86.1719   33.2488   -2.1615 N   0  0  0  0  0  0  0  0  0  0  0  0
  -87.3281   29.8727   -1.0673 C   0  0  0  0  0  0  0  0  0  0  0  0
  -88.2047   28.9230   -1.6260 C   0  0  0  0  0  0  0  0  0  0  0  0
  -88.2895   27.6620   -1.1706 C   0  0  0  0  0  0  0  0  0  0  0  0
  -89.1391   26.7285   -1.6768 C   0  0  0  0  0  0  0  0  0  0  0  0
  -89.1947   25.4749   -1.1620 N   0  0  0  0  0  0  0  0  0  0  0  0
  -88.4224   25.0891   -0.1414 C   0  0  0  0  0  0  0  0  0  0  0  0
  -87.5346   25.9995    0.4079 C   0  0  0  0  0  0  0  0  0  0  0  0
  -87.4694   27.2793   -0.1044 C   0  0  0  0  0  0  0  0  0  0  0  0
  -86.6450   28.1720    0.4208 N   0  0  0  0  0  0  0  0  0  0  0  0
  -86.5442   29.4597   -0.0268 C   0  0  0  0  0  0  0  0  0  0  0  0
  -85.5591   30.2358    0.5792 N   0  0  0  0  0  0  0  0  0  0  0  0
  -84.1629   29.9255    0.1629 C   0  0  0  0  0  0  0  0  0  0  0  0
  -83.2488   30.2534    1.3254 C   0  0  0  0  0  0  0  0  0  0  0  0
  -83.3130   31.5777    1.6259 O   0  0  0  0  0  0  0  0  0  0  0  0
  -84.5122   32.1942    1.5857 C   0  0  0  0  0  0  0  0  0  0  0  0
  -85.7266   31.2517    1.5437 C   0  0  0  0  0  0  0  0  0  0  0  0
  -87.4315   37.0383   -4.6074 N   0  0  0  0  0  0  0  0  0  0  0  0
  -87.4080   35.7230   -4.0517 C   0  0  0  0  0  0  0  0  0  0  0  0
  -87.3207   34.8855   -5.1352 O   0  0  0  0  0  0  0  0  0  0  0  0
  -87.4355   35.2498   -2.8120 N   0  0  0  0  0  0  0  0  0  0  0  0
  -87.4209   37.7783   -3.8045 H   0  0  0  0  0  0  0  0  0  0  0  0
  -87.5692   35.9489   -2.0061 H   0  0  0  0  0  0  0  0  0  0  0  0
  -86.0360   38.1203   -6.2398 C   0  0  0  0  0  0  0  0  0  0  0  0
  -87.4369   37.5310   -5.8813 C   0  0  0  0  0  0  0  0  0  0  0  0
  -89.8036   31.2347   -1.8037 C   0  0  0  0  0  0  0  0  0  0  0  0
  -90.5530   31.1287   -2.9526 N   0  0  0  0  0  0  0  0  0  0  0  0
  -91.6891   30.5268   -2.9064 C   0  0  0  0  0  0  0  0  0  0  0  0
  -92.1209   30.0125   -1.7244 C   0  0  0  0  0  0  0  0  0  0  0  0
  -90.8094   30.4366   -0.7015 S   0  0  0  0  0  0  0  0  0  0  0  0
  -92.5064   30.3192   -4.1801 C   0  0  0  0  0  0  0  0  0  0  0  0
  -91.6665   30.1777   -5.2522 F   0  0  0  0  0  0  0  0  0  0  0  0
  -93.2900   29.2020   -4.0862 F   0  0  0  0  0  0  0  0  0  0  0  0
  -93.3353   31.4418   -4.3190 F   0  0  0  0  0  0  0  0  0  0  0  0
 29 30  1  0  0  0
 30 23  1  0  0  0
 23 24  1  0  0  0
 24 25  2  0  0  0
 24 26  1  0  0  0
 26  1  1  0  0  0
  1  2  2  0  0  0
  2  3  1  0  0  0
  3 31  1  0  0  0
 31 32  2  0  0  0
 32 33  1  0  0  0
 33 34  2  0  0  0
 34 35  1  0  0  0
 33 36  1  0  0  0
 36 37  1  0  0  0
 36 38  1  0  0  0
 36 39  1  0  0  0
  3  4  2  0  0  0
  4  5  1  0  0  0
  5  6  2  0  0  0
  4  7  1  0  0  0
  7  8  2  0  0  0
  8  9  1  0  0  0
  9 10  2  0  0  0
 10 11  1  0  0  0
 11 12  2  0  0  0
 12 13  1  0  0  0
 13 14  2  0  0  0
 14 15  1  0  0  0
 15 16  2  0  0  0
 16 17  1  0  0  0
 17 18  1  0  0  0
 18 19  1  0  0  0
 19 20  1  0  0  0
 20 21  1  0  0  0
 21 22  1  0  0  0
  6  1  1  0  0  0
 16  7  1  0  0  0
 22 17  1  0  0  0
 35 31  1  0  0  0
 14  9  1  0  0  0
 23 27  1  0  0  0
 26 28  1  0  0  0
M  END
> <minimizedAffinity>
-6.55177

> <CNNscore>
0.0617065206

> <CNNaffinity>
6.8120985031

> <CNN_VS>
0.4203509092

> <CNNaffinity_variance>
0.1351293027

$$$$
[H]c1nc(N([H])C(=O)N([H])C([H])([H])C([H])([H])[H])c([H])c(-c2nc(C(F)(F)F)c([H])s2)c1-c1c(N2C([H])([H])C([H])([H])OC([H])([H])C2([H])[H])nc2c([H])c([H])nc([H])c2c1[H]


 39 43  0  0  0  0  0  0  0  0999 V2000
  -91.2119   25.7147   -2.1451 C   0  0  0  0  0  0  0  0  0  0  0  0
  -91.3352   26.2554   -0.8835 C   0  0  0  0  0  0  0  0  0  0  0  0
  -90.2846   26.9659   -0.2792 C   0  0  0  0  0  0  0  0  0  0  0  0
  -89.1171   27.1230   -0.9473 C   0  0  0  0  0  0  0  0  0  0  0  0
  -89.0279   26.5458   -2.2299 C   0  0  0  0  0  0  0  0  0  0  0  0
  -90.0792   25.8690   -2.7646 N   0  0  0  0  0  0  0  0  0  0  0  0
  -88.0706   27.8781   -0.3437 C   0  0  0  0  0  0  0  0  0  0  0  0
  -87.1609   27.2640    0.5381 C   0  0  0  0  0  0  0  0  0  0  0  0
  -86.1850   27.9460    1.1604 C   0  0  0  0  0  0  0  0  0  0  0  0
  -85.3040   27.3847    2.0311 C   0  0  0  0  0  0  0  0  0  0  0  0
  -84.3510   28.1289    2.6455 N   0  0  0  0  0  0  0  0  0  0  0  0
  -84.2225   29.4416    2.4285 C   0  0  0  0  0  0  0  0  0  0  0  0
  -85.0908   30.0625    1.5457 C   0  0  0  0  0  0  0  0  0  0  0  0
  -86.0670   29.3178    0.9156 C   0  0  0  0  0  0  0  0  0  0  0  0
  -86.9220   29.8954    0.0863 N   0  0  0  0  0  0  0  0  0  0  0  0
  -87.9222   29.2201   -0.5558 C   0  0  0  0  0  0  0  0  0  0  0  0
  -88.6702   29.9658   -1.4638 N   0  0  0  0  0  0  0  0  0  0  0  0
  -88.0752   30.0894   -2.8239 C   0  0  0  0  0  0  0  0  0  0  0  0
  -88.5326   31.4084   -3.4118 C   0  0  0  0  0  0  0  0  0  0  0  0
  -89.8856   31.4309   -3.5415 O   0  0  0  0  0  0  0  0  0  0  0  0
  -90.6400   30.8932   -2.5610 C   0  0  0  0  0  0  0  0  0  0  0  0
  -89.8969   30.6261   -1.2415 C   0  0  0  0  0  0  0  0  0  0  0  0
  -93.6006   23.0184   -3.5053 N   0  0  0  0  0  0  0  0  0  0  0  0
  -92.5628   23.7942   -2.9049 C   0  0  0  0  0  0  0  0  0  0  0  0
  -91.5934   22.8833   -2.5682 O   0  0  0  0  0  0  0  0  0  0  0  0
  -92.4050   25.0910   -2.6702 N   0  0  0  0  0  0  0  0  0  0  0  0
  -94.3864   23.6787   -3.8779 H   0  0  0  0  0  0  0  0  0  0  0  0
  -93.2241   25.7498   -2.8967 H   0  0  0  0  0  0  0  0  0  0  0  0
  -94.4233   21.0143   -2.4614 C   0  0  0  0  0  0  0  0  0  0  0  0
  -93.7841   21.6820   -3.7199 C   0  0  0  0  0  0  0  0  0  0  0  0
  -90.5799   27.4125    1.0747 C   0  0  0  0  0  0  0  0  0  0  0  0
  -90.3690   26.5752    2.1458 N   0  0  0  0  0  0  0  0  0  0  0  0
  -90.5596   27.0216    3.3373 C   0  0  0  0  0  0  0  0  0  0  0  0
  -90.9656   28.3078    3.5077 C   0  0  0  0  0  0  0  0  0  0  0  0
  -91.0491   28.8282    1.8742 S   0  0  0  0  0  0  0  0  0  0  0  0
  -90.2545   26.1441    4.5497 C   0  0  0  0  0  0  0  0  0  0  0  0
  -89.0594   25.5010    4.3678 F   0  0  0  0  0  0  0  0  0  0  0  0
  -90.1810   26.8915    5.6930 F   0  0  0  0  0  0  0  0  0  0  0  0
  -91.3158   25.2355    4.6716 F   0  0  0  0  0  0  0  0  0  0  0  0
 29 30  1  0  0  0
 30 23  1  0  0  0
 23 24  1  0  0  0
 24 25  2  0  0  0
 24 26  1  0  0  0
 26  1  1  0  0  0
  1  2  2  0  0  0
  2  3  1  0  0  0
  3 31  1  0  0  0
 31 32  2  0  0  0
 32 33  1  0  0  0
 33 34  2  0  0  0
 34 35  1  0  0  0
 33 36  1  0  0  0
 36 37  1  0  0  0
 36 38  1  0  0  0
 36 39  1  0  0  0
  3  4  2  0  0  0
  4  5  1  0  0  0
  5  6  2  0  0  0
  4  7  1  0  0  0
  7  8  2  0  0  0
  8  9  1  0  0  0
  9 10  2  0  0  0
 10 11  1  0  0  0
 11 12  2  0  0  0
 12 13  1  0  0  0
 13 14  2  0  0  0
 14 15  1  0  0  0
 15 16  2  0  0  0
 16 17  1  0  0  0
 17 18  1  0  0  0
 18 19  1  0  0  0
 19 20  1  0  0  0
 20 21  1  0  0  0
 21 22  1  0  0  0
  6  1  1  0  0  0
 16  7  1  0  0  0
 22 17  1  0  0  0
 35 31  1  0  0  0
 14  9  1  0  0  0
 23 27  1  0  0  0
 26 28  1  0  0  0
M  END
> <minimizedAffinity>
-8.62226

> <CNNscore>
0.0614304133

> <CNNaffinity>
6.6238670349

> <CNN_VS>
0.4069069028

> <CNNaffinity_variance>
0.2134664953

$$$$
[H]c1nc(N([H])C(=O)N([H])C([H])([H])C([H])([H])[H])c([H])c(-c2nc(C(F)(F)F)c([H])s2)c1-c1c(N2C([H])([H])C([H])([H])OC([H])([H])C2([H])[H])nc2c([H])c([H])nc([H])c2c1[H]


 39 43  0  0  0  0  0  0  0  0999 V2000
  -91.0994   28.1954   -2.8392 C   0  0  0  0  0  0  0  0  0  0  0  0
  -90.9755   27.6051   -1.6001 C   0  0  0  0  0  0  0  0  0  0  0  0
  -89.8475   27.8189   -0.7903 C   0  0  0  0  0  0  0  0  0  0  0  0
  -88.8515   28.6215   -1.2355 C   0  0  0  0  0  0  0  0  0  0  0  0
  -89.0120   29.1971   -2.5118 C   0  0  0  0  0  0  0  0  0  0  0  0
  -90.1273   28.9543   -3.2510 N   0  0  0  0  0  0  0  0  0  0  0  0
  -87.7293   28.8645   -0.3921 C   0  0  0  0  0  0  0  0  0  0  0  0
  -87.0412   27.7941    0.2106 C   0  0  0  0  0  0  0  0  0  0  0  0
  -86.0043   27.9795    1.0443 C   0  0  0  0  0  0  0  0  0  0  0  0
  -85.3325   26.9674    1.6557 C   0  0  0  0  0  0  0  0  0  0  0  0
  -84.3045   27.2171    2.5046 N   0  0  0  0  0  0  0  0  0  0  0  0
  -83.8952   28.4591    2.7816 C   0  0  0  0  0  0  0  0  0  0  0  0
  -84.5415   29.5268    2.1808 C   0  0  0  0  0  0  0  0  0  0  0  0
  -85.5908   29.2874    1.3169 C   0  0  0  0  0  0  0  0  0  0  0  0
  -86.2374   30.2938    0.7501 N   0  0  0  0  0  0  0  0  0  0  0  0
  -87.2951   30.1269   -0.0997 C   0  0  0  0  0  0  0  0  0  0  0  0
  -87.7966   31.2906   -0.6779 N   0  0  0  0  0  0  0  0  0  0  0  0
  -86.8722   31.9776   -1.6227 C   0  0  0  0  0  0  0  0  0  0  0  0
  -87.1870   33.4588   -1.5845 C   0  0  0  0  0  0  0  0  0  0  0  0
  -88.4605   33.6883   -2.0013 O   0  0  0  0  0  0  0  0  0  0  0  0
  -89.4325   32.8367   -1.6146 C   0  0  0  0  0  0  0  0  0  0  0  0
  -89.0515   31.8968   -0.4587 C   0  0  0  0  0  0  0  0  0  0  0  0
  -93.9072   26.3702   -4.7394 N   0  0  0  0  0  0  0  0  0  0  0  0
  -92.7766   26.7818   -3.9702 C   0  0  0  0  0  0  0  0  0  0  0  0
  -92.0672   25.6291   -3.7440 O   0  0  0  0  0  0  0  0  0  0  0  0
  -92.3532   27.9550   -3.5163 N   0  0  0  0  0  0  0  0  0  0  0  0
  -94.4911   27.2445   -5.0340 H   0  0  0  0  0  0  0  0  0  0  0  0
  -92.9822   28.8136   -3.6687 H   0  0  0  0  0  0  0  0  0  0  0  0
  -94.2122   25.0587   -6.7318 C   0  0  0  0  0  0  0  0  0  0  0  0
  -94.3661   25.1620   -5.1814 C   0  0  0  0  0  0  0  0  0  0  0  0
  -89.8690   27.0682    0.4570 C   0  0  0  0  0  0  0  0  0  0  0  0
  -90.1534   27.7003    1.6455 N   0  0  0  0  0  0  0  0  0  0  0  0
  -90.2472   27.0003    2.7208 C   0  0  0  0  0  0  0  0  0  0  0  0
  -90.0617   25.6551    2.6561 C   0  0  0  0  0  0  0  0  0  0  0  0
  -89.7547   25.4624    0.9783 S   0  0  0  0  0  0  0  0  0  0  0  0
  -90.6435   27.6596    4.0404 C   0  0  0  0  0  0  0  0  0  0  0  0
  -89.5199   27.9891    4.7501 F   0  0  0  0  0  0  0  0  0  0  0  0
  -91.3744   28.7954    3.8238 F   0  0  0  0  0  0  0  0  0  0  0  0
  -91.4391   26.7360    4.7337 F   0  0  0  0  0  0  0  0  0  0  0  0
 29 30  1  0  0  0
 30 23  1  0  0  0
 23 24  1  0  0  0
 24 25  2  0  0  0
 24 26  1  0  0  0
 26  1  1  0  0  0
  1  2  2  0  0  0
  2  3  1  0  0  0
  3 31  1  0  0  0
 31 32  2  0  0  0
 32 33  1  0  0  0
 33 34  2  0  0  0
 34 35  1  0  0  0
 33 36  1  0  0  0
 36 37  1  0  0  0
 36 38  1  0  0  0
 36 39  1  0  0  0
  3  4  2  0  0  0
  4  5  1  0  0  0
  5  6  2  0  0  0
  4  7  1  0  0  0
  7  8  2  0  0  0
  8  9  1  0  0  0
  9 10  2  0  0  0
 10 11  1  0  0  0
 11 12  2  0  0  0
 12 13  1  0  0  0
 13 14  2  0  0  0
 14 15  1  0  0  0
 15 16  2  0  0  0
 16 17  1  0  0  0
 17 18  1  0  0  0
 18 19  1  0  0  0
 19 20  1  0  0  0
 20 21  1  0  0  0
 21 22  1  0  0  0
  6  1  1  0  0  0
 16  7  1  0  0  0
 22 17  1  0  0  0
 35 31  1  0  0  0
 14  9  1  0  0  0
 23 27  1  0  0  0
 26 28  1  0  0  0
M  END
> <minimizedAffinity>
-9.35324

> <CNNscore>
0.0608763136

> <CNNaffinity>
6.8553094864

> <CNN_VS>
0.4173259735

> <CNNaffinity_variance>
0.0945529491

$$$$
[H]c1nc(N([H])C(=O)N([H])C([H])([H])C([H])([H])[H])c([H])c(-c2nc(C(F)(F)F)c([H])s2)c1-c1c(N2C([H])([H])C([H])([H])OC([H])([H])C2([H])[H])nc2c([H])c([H])nc([H])c2c1[H]


 39 43  0  0  0  0  0  0  0  0999 V2000
  -89.7113   24.2243   -0.9913 C   0  0  0  0  0  0  0  0  0  0  0  0
  -89.4963   25.4974   -0.5096 C   0  0  0  0  0  0  0  0  0  0  0  0
  -89.9816   26.6322   -1.1809 C   0  0  0  0  0  0  0  0  0  0  0  0
  -90.6755   26.4771   -2.3336 C   0  0  0  0  0  0  0  0  0  0  0  0
  -90.8641   25.1599   -2.7978 C   0  0  0  0  0  0  0  0  0  0  0  0
  -90.3714   24.0989   -2.1045 N   0  0  0  0  0  0  0  0  0  0  0  0
  -91.1977   27.6301   -2.9874 C   0  0  0  0  0  0  0  0  0  0  0  0
  -90.3905   28.7657   -3.1902 C   0  0  0  0  0  0  0  0  0  0  0  0
  -90.8535   29.8882   -3.7651 C   0  0  0  0  0  0  0  0  0  0  0  0
  -90.1040   31.0066   -3.9571 C   0  0  0  0  0  0  0  0  0  0  0  0
  -90.6325   32.1187   -4.5258 N   0  0  0  0  0  0  0  0  0  0  0  0
  -91.9055   32.1759   -4.9295 C   0  0  0  0  0  0  0  0  0  0  0  0
  -92.7116   31.0619   -4.7627 C   0  0  0  0  0  0  0  0  0  0  0  0
  -92.1876   29.9243   -4.1830 C   0  0  0  0  0  0  0  0  0  0  0  0
  -92.9466   28.8566   -3.9928 N   0  0  0  0  0  0  0  0  0  0  0  0
  -92.4955   27.7057   -3.4091 C   0  0  0  0  0  0  0  0  0  0  0  0
  -93.4026   26.6493   -3.3733 N   0  0  0  0  0  0  0  0  0  0  0  0
  -93.7290   26.0497   -4.6973 C   0  0  0  0  0  0  0  0  0  0  0  0
  -95.1400   25.5035   -4.6236 C   0  0  0  0  0  0  0  0  0  0  0  0
  -95.2251   24.5229   -3.6858 O   0  0  0  0  0  0  0  0  0  0  0  0
  -94.5575   24.6773   -2.5239 C   0  0  0  0  0  0  0  0  0  0  0  0
  -94.0550   26.1041   -2.2475 C   0  0  0  0  0  0  0  0  0  0  0  0
  -89.6436   21.4940    1.7229 N   0  0  0  0  0  0  0  0  0  0  0  0
  -89.9539   22.4862    0.7438 C   0  0  0  0  0  0  0  0  0  0  0  0
  -91.3018   22.7044    0.8799 O   0  0  0  0  0  0  0  0  0  0  0  0
  -89.2315   23.1542   -0.1469 N   0  0  0  0  0  0  0  0  0  0  0  0
  -88.5666   21.3149    1.7382 H   0  0  0  0  0  0  0  0  0  0  0  0
  -88.1931   22.8958   -0.2528 H   0  0  0  0  0  0  0  0  0  0  0  0
  -90.7801   19.3948    2.0135 C   0  0  0  0  0  0  0  0  0  0  0  0
  -90.3864   20.7792    2.6190 C   0  0  0  0  0  0  0  0  0  0  0  0
  -89.6080   27.8912   -0.5522 C   0  0  0  0  0  0  0  0  0  0  0  0
  -88.3013   28.3210   -0.5766 N   0  0  0  0  0  0  0  0  0  0  0  0
  -88.0119   29.4748   -0.0865 C   0  0  0  0  0  0  0  0  0  0  0  0
  -89.0033   30.2390    0.4439 C   0  0  0  0  0  0  0  0  0  0  0  0
  -90.3566   29.2134    0.1925 S   0  0  0  0  0  0  0  0  0  0  0  0
  -86.5862   30.0161   -0.1732 C   0  0  0  0  0  0  0  0  0  0  0  0
  -86.1342   30.3352    1.0793 F   0  0  0  0  0  0  0  0  0  0  0  0
  -85.7407   29.0918   -0.7225 F   0  0  0  0  0  0  0  0  0  0  0  0
  -86.6287   31.1419   -1.0084 F   0  0  0  0  0  0  0  0  0  0  0  0
 29 30  1  0  0  0
 30 23  1  0  0  0
 23 24  1  0  0  0
 24 25  2  0  0  0
 24 26  1  0  0  0
 26  1  1  0  0  0
  1  2  2  0  0  0
  2  3  1  0  0  0
  3 31  1  0  0  0
 31 32  2  0  0  0
 32 33  1  0  0  0
 33 34  2  0  0  0
 34 35  1  0  0  0
 33 36  1  0  0  0
 36 37  1  0  0  0
 36 38  1  0  0  0
 36 39  1  0  0  0
  3  4  2  0  0  0
  4  5  1  0  0  0
  5  6  2  0  0  0
  4  7  1  0  0  0
  7  8  2  0  0  0
  8  9  1  0  0  0
  9 10  2  0  0  0
 10 11  1  0  0  0
 11 12  2  0  0  0
 12 13  1  0  0  0
 13 14  2  0  0  0
 14 15  1  0  0  0
 15 16  2  0  0  0
 16 17  1  0  0  0
 17 18  1  0  0  0
 18 19  1  0  0  0
 19 20  1  0  0  0
 20 21  1  0  0  0
 21 22  1  0  0  0
  6  1  1  0  0  0
 16  7  1  0  0  0
 22 17  1  0  0  0
 35 31  1  0  0  0
 14  9  1  0  0  0
 23 27  1  0  0  0
 26 28  1  0  0  0
M  END
> <minimizedAffinity>
-6.42234

> <CNNscore>
0.0604157373

> <CNNaffinity>
6.1293358803

> <CNN_VS>
0.3703083396

> <CNNaffinity_variance>
0.2428383082

$$$$
[H]c1nc(N([H])C(=O)N([H])C([H])([H])C([H])([H])[H])c([H])c(-c2nc(C(F)(F)F)c([H])s2)c1-c1c(N2C([H])([H])C([H])([H])OC([H])([H])C2([H])[H])nc2c([H])c([H])nc([H])c2c1[H]


 39 43  0  0  0  0  0  0  0  0999 V2000
  -91.3791   23.5530   -0.8364 C   0  0  0  0  0  0  0  0  0  0  0  0
  -91.4227   24.6566   -0.0120 C   0  0  0  0  0  0  0  0  0  0  0  0
  -91.0436   25.9314   -0.4649 C   0  0  0  0  0  0  0  0  0  0  0  0
  -90.6199   26.0848   -1.7420 C   0  0  0  0  0  0  0  0  0  0  0  0
  -90.5797   24.9300   -2.5489 C   0  0  0  0  0  0  0  0  0  0  0  0
  -90.9599   23.7212   -2.0556 N   0  0  0  0  0  0  0  0  0  0  0  0
  -90.2747   27.3872   -2.2048 C   0  0  0  0  0  0  0  0  0  0  0  0
  -89.0440   27.9711   -1.8486 C   0  0  0  0  0  0  0  0  0  0  0  0
  -88.6957   29.2117   -2.2287 C   0  0  0  0  0  0  0  0  0  0  0  0
  -87.5234   29.8091   -1.8849 C   0  0  0  0  0  0  0  0  0  0  0  0
  -87.2350   31.0734   -2.2822 N   0  0  0  0  0  0  0  0  0  0  0  0
  -88.0762   31.7944   -3.0302 C   0  0  0  0  0  0  0  0  0  0  0  0
  -89.2823   31.2310   -3.4134 C   0  0  0  0  0  0  0  0  0  0  0  0
  -89.5898   29.9463   -3.0140 C   0  0  0  0  0  0  0  0  0  0  0  0
  -90.7468   29.3974   -3.3493 N   0  0  0  0  0  0  0  0  0  0  0  0
  -91.1206   28.1378   -2.9721 C   0  0  0  0  0  0  0  0  0  0  0  0
  -92.3309   27.6844   -3.4917 N   0  0  0  0  0  0  0  0  0  0  0  0
  -93.5096   27.8612   -2.5981 C   0  0  0  0  0  0  0  0  0  0  0  0
  -94.4981   26.7569   -2.9109 C   0  0  0  0  0  0  0  0  0  0  0  0
  -94.9283   26.8499   -4.1972 O   0  0  0  0  0  0  0  0  0  0  0  0
  -94.0381   27.1766   -5.1565 C   0  0  0  0  0  0  0  0  0  0  0  0
  -92.5623   27.0664   -4.7386 C   0  0  0  0  0  0  0  0  0  0  0  0
  -91.4485   20.1140    0.8940 N   0  0  0  0  0  0  0  0  0  0  0  0
  -91.1580   21.4072    0.3623 C   0  0  0  0  0  0  0  0  0  0  0  0
  -89.8186   21.5909    0.5975 O   0  0  0  0  0  0  0  0  0  0  0  0
  -91.8842   22.3287   -0.2582 N   0  0  0  0  0  0  0  0  0  0  0  0
  -92.4860   19.8508    0.6780 H   0  0  0  0  0  0  0  0  0  0  0  0
  -92.9411   22.1579   -0.3578 H   0  0  0  0  0  0  0  0  0  0  0  0
  -90.8591   19.3733    3.1046 C   0  0  0  0  0  0  0  0  0  0  0  0
  -90.7151   19.1754    1.5624 C   0  0  0  0  0  0  0  0  0  0  0  0
  -91.1025   26.9612    0.5627 C   0  0  0  0  0  0  0  0  0  0  0  0
  -90.7756   26.6644    1.8657 N   0  0  0  0  0  0  0  0  0  0  0  0
  -90.7561   27.6100    2.7378 C   0  0  0  0  0  0  0  0  0  0  0  0
  -91.0601   28.8772    2.3507 C   0  0  0  0  0  0  0  0  0  0  0  0
  -91.3650   28.6288    0.6799 S   0  0  0  0  0  0  0  0  0  0  0  0
  -90.3168   27.3286    4.1735 C   0  0  0  0  0  0  0  0  0  0  0  0
  -89.1202   26.6629    4.1703 F   0  0  0  0  0  0  0  0  0  0  0  0
  -90.1707   28.4903    4.8808 F   0  0  0  0  0  0  0  0  0  0  0  0
  -91.3312   26.5632    4.7667 F   0  0  0  0  0  0  0  0  0  0  0  0
 29 30  1  0  0  0
 30 23  1  0  0  0
 23 24  1  0  0  0
 24 25  2  0  0  0
 24 26  1  0  0  0
 26  1  1  0  0  0
  1  2  2  0  0  0
  2  3  1  0  0  0
  3 31  1  0  0  0
 31 32  2  0  0  0
 32 33  1  0  0  0
 33 34  2  0  0  0
 34 35  1  0  0  0
 33 36  1  0  0  0
 36 37  1  0  0  0
 36 38  1  0  0  0
 36 39  1  0  0  0
  3  4  2  0  0  0
  4  5  1  0  0  0
  5  6  2  0  0  0
  4  7  1  0  0  0
  7  8  2  0  0  0
  8  9  1  0  0  0
  9 10  2  0  0  0
 10 11  1  0  0  0
 11 12  2  0  0  0
 12 13  1  0  0  0
 13 14  2  0  0  0
 14 15  1  0  0  0
 15 16  2  0  0  0
 16 17  1  0  0  0
 17 18  1  0  0  0
 18 19  1  0  0  0
 19 20  1  0  0  0
 20 21  1  0  0  0
 21 22  1  0  0  0
  6  1  1  0  0  0
 16  7  1  0  0  0
 22 17  1  0  0  0
 35 31  1  0  0  0
 14  9  1  0  0  0
 23 27  1  0  0  0
 26 28  1  0  0  0
M  END
> <minimizedAffinity>
-7.51209

> <CNNscore>
0.0388411060

> <CNNaffinity>
5.9734649658

> <CNN_VS>
0.2320159823

> <CNNaffinity_variance>
0.5386243463

$$$$
[H]c1nc(N([H])C(=O)N([H])C([H])([H])C([H])([H])[H])c([H])c(-c2nc(C(F)(F)F)c([H])s2)c1-c1c(N2C([H])([H])C([H])([H])OC([H])([H])C2([H])[H])nc2c([H])c([H])nc([H])c2c1[H]


 39 43  0  0  0  0  0  0  0  0999 V2000
  -90.6831   24.3472   -1.1510 C   0  0  0  0  0  0  0  0  0  0  0  0
  -90.8920   25.2040   -0.0921 C   0  0  0  0  0  0  0  0  0  0  0  0
  -90.4022   26.5208   -0.1005 C   0  0  0  0  0  0  0  0  0  0  0  0
  -89.7027   26.9635   -1.1723 C   0  0  0  0  0  0  0  0  0  0  0  0
  -89.5018   26.0531   -2.2291 C   0  0  0  0  0  0  0  0  0  0  0  0
  -90.0006   24.7896   -2.1655 N   0  0  0  0  0  0  0  0  0  0  0  0
  -89.2432   28.3119   -1.1899 C   0  0  0  0  0  0  0  0  0  0  0  0
  -87.9703   28.6415   -0.6866 C   0  0  0  0  0  0  0  0  0  0  0  0
  -87.5138   29.9044   -0.6465 C   0  0  0  0  0  0  0  0  0  0  0  0
  -86.2977   30.2556   -0.1493 C   0  0  0  0  0  0  0  0  0  0  0  0
  -85.8987   31.5515   -0.1164 N   0  0  0  0  0  0  0  0  0  0  0  0
  -86.6685   32.5456   -0.5702 C   0  0  0  0  0  0  0  0  0  0  0  0
  -87.9150   32.2422   -1.0927 C   0  0  0  0  0  0  0  0  0  0  0  0
  -88.3349   30.9280   -1.1300 C   0  0  0  0  0  0  0  0  0  0  0  0
  -89.5316   30.6183   -1.6035 N   0  0  0  0  0  0  0  0  0  0  0  0
  -90.0152   29.3406   -1.6522 C   0  0  0  0  0  0  0  0  0  0  0  0
  -91.2552   29.1857   -2.2674 N   0  0  0  0  0  0  0  0  0  0  0  0
  -91.2137   29.0462   -3.7499 C   0  0  0  0  0  0  0  0  0  0  0  0
  -92.5080   29.6047   -4.3044 C   0  0  0  0  0  0  0  0  0  0  0  0
  -93.5717   28.8936   -3.8452 O   0  0  0  0  0  0  0  0  0  0  0  0
  -93.5720   28.4850   -2.5597 C   0  0  0  0  0  0  0  0  0  0  0  0
  -92.5285   29.1681   -1.6601 C   0  0  0  0  0  0  0  0  0  0  0  0
  -93.3941   21.6158   -1.2766 N   0  0  0  0  0  0  0  0  0  0  0  0
  -92.5672   22.7733   -1.4025 C   0  0  0  0  0  0  0  0  0  0  0  0
  -93.3576   23.7029   -2.0302 O   0  0  0  0  0  0  0  0  0  0  0  0
  -91.3228   23.0564   -1.0379 N   0  0  0  0  0  0  0  0  0  0  0  0
  -92.8658   20.8446   -0.7123 H   0  0  0  0  0  0  0  0  0  0  0  0
  -90.7298   22.2692   -0.6078 H   0  0  0  0  0  0  0  0  0  0  0  0
  -94.8684   19.7587   -1.6770 C   0  0  0  0  0  0  0  0  0  0  0  0
  -94.6624   21.3065   -1.6784 C   0  0  0  0  0  0  0  0  0  0  0  0
  -90.6724   27.2558    1.1270 C   0  0  0  0  0  0  0  0  0  0  0  0
  -90.4021   26.6899    2.3515 N   0  0  0  0  0  0  0  0  0  0  0  0
  -90.5724   27.3905    3.4170 C   0  0  0  0  0  0  0  0  0  0  0  0
  -91.0161   28.6707    3.3064 C   0  0  0  0  0  0  0  0  0  0  0  0
  -91.1650   28.8036    1.6015 S   0  0  0  0  0  0  0  0  0  0  0  0
  -90.2026   26.8199    4.7848 C   0  0  0  0  0  0  0  0  0  0  0  0
  -91.1732   25.9489    5.2019 F   0  0  0  0  0  0  0  0  0  0  0  0
  -89.0083   26.1548    4.7347 F   0  0  0  0  0  0  0  0  0  0  0  0
  -90.0766   27.9090    5.6593 F   0  0  0  0  0  0  0  0  0  0  0  0
 29 30  1  0  0  0
 30 23  1  0  0  0
 23 24  1  0  0  0
 24 25  2  0  0  0
 24 26  1  0  0  0
 26  1  1  0  0  0
  1  2  2  0  0  0
  2  3  1  0  0  0
  3 31  1  0  0  0
 31 32  2  0  0  0
 32 33  1  0  0  0
 33 34  2  0  0  0
 34 35  1  0  0  0
 33 36  1  0  0  0
 36 37  1  0  0  0
 36 38  1  0  0  0
 36 39  1  0  0  0
  3  4  2  0  0  0
  4  5  1  0  0  0
  5  6  2  0  0  0
  4  7  1  0  0  0
  7  8  2  0  0  0
  8  9  1  0  0  0
  9 10  2  0  0  0
 10 11  1  0  0  0
 11 12  2  0  0  0
 12 13  1  0  0  0
 13 14  2  0  0  0
 14 15  1  0  0  0
 15 16  2  0  0  0
 16 17  1  0  0  0
 17 18  1  0  0  0
 18 19  1  0  0  0
 19 20  1  0  0  0
 20 21  1  0  0  0
 21 22  1  0  0  0
  6  1  1  0  0  0
 16  7  1  0  0  0
 22 17  1  0  0  0
 35 31  1  0  0  0
 14  9  1  0  0  0
 23 27  1  0  0  0
 26 28  1  0  0  0
M  END
> <minimizedAffinity>
-7.46177

> <CNNscore>
0.0314593911

> <CNNaffinity>
6.2023205757

> <CNN_VS>
0.1951212287

> <CNNaffinity_variance>
0.2937135398

$$$$
[H]OC(=O)[C@@]([H])(N([H])C(=O)[C@@]([H])(N([H])C(=O)[C@@]([H])(N([H])C(=O)[C@@]1([H])N(C(=O)[C@@]([H])(N([H])[H])C([H])([H])c2c([H])c([H])c(O[H])c([H])c2[H])C([H])([H])C([H])([H])C1([H])[H])C([H])([H])c1c([H])n([H])c2c([H])c([H])c([H])c([H])c12)C([H])([H])C([H])(C([H])([H])[H])C([H])([H])[H])C([H])([H])c1c([H])n([H])c2c([H])c([H])c([H])c([H])c12


 65 70  0  0  0  0  0  0  0  0999 V2000
  -90.3519   29.6606   -2.3726 C   0  0  0  0  0  0  0  0  0  0  0  0
  -91.4168   28.8911   -2.4759 N   0  0  0  0  0  0  0  0  0  0  0  0
  -92.5687   28.0530   -2.5602 C   0  0  0  0  0  0  0  0  0  0  0  0
  -93.0651   27.4794   -1.5972 O   0  0  0  0  0  0  0  0  0  0  0  0
  -91.5125   28.7538   -1.1181 H   0  0  0  0  0  0  0  0  0  0  0  0
  -93.2743   27.8076   -3.8788 C   0  0  0  0  0  0  0  0  0  0  0  0
  -92.4517   26.7758   -4.6259 C   0  0  0  0  0  0  0  0  0  0  0  0
  -92.7285   27.2234   -6.0849 C   0  0  0  0  0  0  0  0  0  0  0  0
  -92.5626   28.7319   -5.9350 C   0  0  0  0  0  0  0  0  0  0  0  0
  -93.2218   28.9844   -4.6929 N   0  0  0  0  0  0  0  0  0  0  0  0
  -93.7746   30.2437   -4.2951 C   0  0  0  0  0  0  0  0  0  0  0  0
  -94.3460   30.3494   -3.1491 O   0  0  0  0  0  0  0  0  0  0  0  0
  -93.7531   31.4742   -5.0906 C   0  0  0  0  0  0  0  0  0  0  0  0
  -95.0433   31.6599   -5.7974 N   0  0  0  0  0  0  0  0  0  0  0  0
  -95.8447   31.5364   -5.1549 H   0  0  0  0  0  0  0  0  0  0  0  0
  -95.0860   31.1745   -6.6921 H   0  0  0  0  0  0  0  0  0  0  0  0
  -93.5375   32.7332   -4.2987 C   0  0  0  0  0  0  0  0  0  0  0  0
  -92.5999   33.6450   -5.0399 C   0  0  0  0  0  0  0  0  0  0  0  0
  -91.7173   33.1385   -5.9627 C   0  0  0  0  0  0  0  0  0  0  0  0
  -90.8907   34.0203   -6.6500 C   0  0  0  0  0  0  0  0  0  0  0  0
  -90.9501   35.3913   -6.4124 C   0  0  0  0  0  0  0  0  0  0  0  0
  -90.1161   36.2536   -7.1113 O   0  0  0  0  0  0  0  0  0  0  0  0
  -91.8426   35.8648   -5.4814 C   0  0  0  0  0  0  0  0  0  0  0  0
  -92.6760   34.9863   -4.7870 C   0  0  0  0  0  0  0  0  0  0  0  0
  -90.4999   36.6173   -7.9884 H   0  0  0  0  0  0  0  0  0  0  0  0
  -89.0537   28.3730   -0.5080 N   0  0  0  0  0  0  0  0  0  0  0  0
  -89.6513   29.5123   -1.0407 C   0  0  0  0  0  0  0  0  0  0  0  0
  -89.6071   30.5747   -0.3079 O   0  0  0  0  0  0  0  0  0  0  0  0
  -89.0628   27.5026   -1.1203 H   0  0  0  0  0  0  0  0  0  0  0  0
  -88.4414   28.3179    0.7877 C   0  0  0  0  0  0  0  0  0  0  0  0
  -86.9500   28.5112    0.6879 C   0  0  0  0  0  0  0  0  0  0  0  0
  -86.3647   28.5362   -0.4258 O   0  0  0  0  0  0  0  0  0  0  0  0
  -86.1168   28.6799    1.8252 N   0  0  0  0  0  0  0  0  0  0  0  0
  -86.5209   28.6517    2.7696 H   0  0  0  0  0  0  0  0  0  0  0  0
  -84.6880   28.8885    1.6801 C   0  0  0  0  0  0  0  0  0  0  0  0
  -83.9750   27.7860    2.3365 C   0  0  0  0  0  0  0  0  0  0  0  0
  -82.6025   27.9383    2.6286 O   0  0  0  0  0  0  0  0  0  0  0  0
  -84.4817   26.6881    2.6710 O   0  0  0  0  0  0  0  0  0  0  0  0
  -82.1048   27.3414    3.2441 H   0  0  0  0  0  0  0  0  0  0  0  0
  -84.2730   30.2178    2.2166 C   0  0  0  0  0  0  0  0  0  0  0  0
  -83.8726   31.2035    1.1987 C   0  0  0  0  0  0  0  0  0  0  0  0
  -82.6051   31.6527    0.8885 C   0  0  0  0  0  0  0  0  0  0  0  0
  -82.6617   32.5749   -0.0777 N   0  0  0  0  0  0  0  0  0  0  0  0
  -83.9682   32.7548   -0.4288 C   0  0  0  0  0  0  0  0  0  0  0  0
  -84.5404   33.5786   -1.3604 C   0  0  0  0  0  0  0  0  0  0  0  0
  -85.9364   33.5566   -1.5169 C   0  0  0  0  0  0  0  0  0  0  0  0
  -86.7106   32.7167   -0.7426 C   0  0  0  0  0  0  0  0  0  0  0  0
  -86.0955   31.9056    0.1826 C   0  0  0  0  0  0  0  0  0  0  0  0
  -84.7208   31.9111    0.3543 C   0  0  0  0  0  0  0  0  0  0  0  0
  -81.8227   33.0615   -0.4778 H   0  0  0  0  0  0  0  0  0  0  0  0
  -88.7568   27.1035    1.5389 C   0  0  0  0  0  0  0  0  0  0  0  0
  -89.3239   25.7710    3.4688 C   0  0  0  0  0  0  0  0  0  0  0  0
  -89.2102   27.2242    2.9462 C   0  0  0  0  0  0  0  0  0  0  0  0
  -90.5454   27.8405    3.1841 C   0  0  0  0  0  0  0  0  0  0  0  0
  -90.4370   31.1001   -2.7997 C   0  0  0  0  0  0  0  0  0  0  0  0
  -89.3723   31.6698   -3.5747 C   0  0  0  0  0  0  0  0  0  0  0  0
  -88.4510   31.0997   -4.4040 C   0  0  0  0  0  0  0  0  0  0  0  0
  -87.6193   32.0324   -4.9021 N   0  0  0  0  0  0  0  0  0  0  0  0
  -87.9809   33.2207   -4.4113 C   0  0  0  0  0  0  0  0  0  0  0  0
  -87.4413   34.4634   -4.6277 C   0  0  0  0  0  0  0  0  0  0  0  0
  -87.9873   35.5639   -4.0051 C   0  0  0  0  0  0  0  0  0  0  0  0
  -89.0695   35.4127   -3.1718 C   0  0  0  0  0  0  0  0  0  0  0  0
  -89.6061   34.1489   -2.9615 C   0  0  0  0  0  0  0  0  0  0  0  0
  -89.0677   33.0212   -3.5831 C   0  0  0  0  0  0  0  0  0  0  0  0
  -86.8201   31.8884   -5.5610 H   0  0  0  0  0  0  0  0  0  0  0  0
 52 53  1  0  0  0
 53 54  1  0  0  0
 53 51  1  0  0  0
 51 30  1  0  0  0
 30 26  1  0  0  0
 26 27  1  0  0  0
 27 28  2  0  0  0
 27  1  1  0  0  0
  1 55  1  0  0  0
 55 56  1  0  0  0
 56 57  2  0  0  0
 57 58  1  0  0  0
 58 59  1  0  0  0
 59 60  2  0  0  0
 60 61  1  0  0  0
 61 62  2  0  0  0
 62 63  1  0  0  0
 63 64  2  0  0  0
  1  2  1  0  0  0
  2  3  1  0  0  0
  3  4  2  0  0  0
  3  6  1  0  0  0
  6  7  1  0  0  0
  7  8  1  0  0  0
  8  9  1  0  0  0
  9 10  1  0  0  0
 10 11  1  0  0  0
 11 12  2  0  0  0
 11 13  1  0  0  0
 13 14  1  0  0  0
 13 17  1  0  0  0
 17 18  1  0  0  0
 18 19  2  0  0  0
 19 20  1  0  0  0
 20 21  2  0  0  0
 21 22  1  0  0  0
 21 23  1  0  0  0
 23 24  2  0  0  0
 30 31  1  0  0  0
 31 32  2  0  0  0
 31 33  1  0  0  0
 33 35  1  0  0  0
 35 40  1  0  0  0
 40 41  1  0  0  0
 41 42  2  0  0  0
 42 43  1  0  0  0
 43 44  1  0  0  0
 44 45  2  0  0  0
 45 46  1  0  0  0
 46 47  2  0  0  0
 47 48  1  0  0  0
 48 49  2  0  0  0
 35 36  1  0  0  0
 36 37  1  0  0  0
 36 38  2  0  0  0
 64 56  1  0  0  0
 10  6  1  0  0  0
 24 18  1  0  0  0
 49 41  1  0  0  0
 64 59  1  0  0  0
 49 44  1  0  0  0
 26 29  1  0  0  0
 58 65  1  0  0  0
  2  5  1  0  0  0
 14 15  1  0  0  0
 14 16  1  0  0  0
 22 25  1  0  0  0
 33 34  1  0  0  0
 43 50  1  0  0  0
 37 39  1  0  0  0
M  END
> <minimizedAffinity>
-9.33523

> <CNNscore>
0.2740043104

> <CNNaffinity>
8.2040977478

> <CNN_VS>
2.2479581833

> <CNNaffinity_variance>
0.4425948262

$$$$
[H]OC(=O)[C@@]([H])(N([H])C(=O)[C@@]([H])(N([H])C(=O)[C@@]([H])(N([H])C(=O)[C@@]1([H])N(C(=O)[C@@]([H])(N([H])[H])C([H])([H])c2c([H])c([H])c(O[H])c([H])c2[H])C([H])([H])C([H])([H])C1([H])[H])C([H])([H])c1c([H])n([H])c2c([H])c([H])c([H])c([H])c12)C([H])([H])C([H])(C([H])([H])[H])C([H])([H])[H])C([H])([H])c1c([H])n([H])c2c([H])c([H])c([H])c([H])c12


 65 70  0  0  0  0  0  0  0  0999 V2000
  -90.4595   30.1840   -3.3083 C   0  0  0  0  0  0  0  0  0  0  0  0
  -91.5173   29.5545   -3.7790 N   0  0  0  0  0  0  0  0  0  0  0  0
  -92.6778   28.8961   -4.2852 C   0  0  0  0  0  0  0  0  0  0  0  0
  -93.7727   29.4361   -4.3963 O   0  0  0  0  0  0  0  0  0  0  0  0
  -92.2577   30.7047   -3.7964 H   0  0  0  0  0  0  0  0  0  0  0  0
  -92.6355   27.4480   -4.7302 C   0  0  0  0  0  0  0  0  0  0  0  0
  -93.3748   27.3782   -6.0522 C   0  0  0  0  0  0  0  0  0  0  0  0
  -93.9563   25.9437   -5.9543 C   0  0  0  0  0  0  0  0  0  0  0  0
  -94.4596   25.9597   -4.5149 C   0  0  0  0  0  0  0  0  0  0  0  0
  -93.4000   26.6340   -3.8339 N   0  0  0  0  0  0  0  0  0  0  0  0
  -93.1152   26.5190   -2.4356 C   0  0  0  0  0  0  0  0  0  0  0  0
  -92.1317   27.1769   -1.9347 O   0  0  0  0  0  0  0  0  0  0  0  0
  -93.8607   25.6976   -1.4779 C   0  0  0  0  0  0  0  0  0  0  0  0
  -95.3043   26.0336   -1.5167 N   0  0  0  0  0  0  0  0  0  0  0  0
  -95.6597   26.0518   -2.4881 H   0  0  0  0  0  0  0  0  0  0  0  0
  -95.5514   26.8190   -0.9168 H   0  0  0  0  0  0  0  0  0  0  0  0
  -93.7803   24.2166   -1.7210 C   0  0  0  0  0  0  0  0  0  0  0  0
  -92.4276   23.7070   -1.3081 C   0  0  0  0  0  0  0  0  0  0  0  0
  -91.3872   23.6825   -2.2047 C   0  0  0  0  0  0  0  0  0  0  0  0
  -90.1438   23.2345   -1.7726 C   0  0  0  0  0  0  0  0  0  0  0  0
  -89.9497   22.8167   -0.4583 C   0  0  0  0  0  0  0  0  0  0  0  0
  -88.6992   22.3744   -0.0482 O   0  0  0  0  0  0  0  0  0  0  0  0
  -91.0119   22.8519    0.4124 C   0  0  0  0  0  0  0  0  0  0  0  0
  -92.2634   23.3002   -0.0134 C   0  0  0  0  0  0  0  0  0  0  0  0
  -88.0816   23.0990    0.3291 H   0  0  0  0  0  0  0  0  0  0  0  0
  -89.3683   28.4839   -1.6534 N   0  0  0  0  0  0  0  0  0  0  0  0
  -90.0308   29.6717   -1.9516 C   0  0  0  0  0  0  0  0  0  0  0  0
  -90.3200   30.4306   -0.9476 O   0  0  0  0  0  0  0  0  0  0  0  0
  -89.1027   27.8687   -2.4802 H   0  0  0  0  0  0  0  0  0  0  0  0
  -89.0332   28.0625   -0.3241 C   0  0  0  0  0  0  0  0  0  0  0  0
  -87.5597   28.2360   -0.0588 C   0  0  0  0  0  0  0  0  0  0  0  0
  -86.7400   28.4090   -0.9977 O   0  0  0  0  0  0  0  0  0  0  0  0
  -87.0049   28.2207    1.2481 N   0  0  0  0  0  0  0  0  0  0  0  0
  -87.6101   28.0651    2.0639 H   0  0  0  0  0  0  0  0  0  0  0  0
  -85.5824   28.4172    1.4580 C   0  0  0  0  0  0  0  0  0  0  0  0
  -85.0426   27.2622    2.1856 C   0  0  0  0  0  0  0  0  0  0  0  0
  -83.7094   27.3078    2.6467 O   0  0  0  0  0  0  0  0  0  0  0  0
  -85.6693   26.2062    2.4431 O   0  0  0  0  0  0  0  0  0  0  0  0
  -83.3389   26.6736    3.3126 H   0  0  0  0  0  0  0  0  0  0  0  0
  -85.3074   29.7007    2.1679 C   0  0  0  0  0  0  0  0  0  0  0  0
  -84.5622   30.6996    1.3837 C   0  0  0  0  0  0  0  0  0  0  0  0
  -83.2093   30.9714    1.4010 C   0  0  0  0  0  0  0  0  0  0  0  0
  -82.9254   31.9746    0.5643 N   0  0  0  0  0  0  0  0  0  0  0  0
  -84.0846   32.3874   -0.0261 C   0  0  0  0  0  0  0  0  0  0  0  0
  -84.3194   33.3713   -0.9485 C   0  0  0  0  0  0  0  0  0  0  0  0
  -85.6353   33.5819   -1.3933 C   0  0  0  0  0  0  0  0  0  0  0  0
  -86.6676   32.8069   -0.9053 C   0  0  0  0  0  0  0  0  0  0  0  0
  -86.3882   31.8294    0.0213 C   0  0  0  0  0  0  0  0  0  0  0  0
  -85.0985   31.6044    0.4744 C   0  0  0  0  0  0  0  0  0  0  0  0
  -81.9612   32.3582    0.4099 H   0  0  0  0  0  0  0  0  0  0  0  0
  -89.4582   26.6985   -0.0121 C   0  0  0  0  0  0  0  0  0  0  0  0
  -90.9343   27.8879    1.4807 C   0  0  0  0  0  0  0  0  0  0  0  0
  -90.4189   26.4790    1.0969 C   0  0  0  0  0  0  0  0  0  0  0  0
  -89.8855   25.8910    2.3574 C   0  0  0  0  0  0  0  0  0  0  0  0
  -90.4010   31.6851   -3.3806 C   0  0  0  0  0  0  0  0  0  0  0  0
  -89.1903   32.3237   -3.8109 C   0  0  0  0  0  0  0  0  0  0  0  0
  -88.0049   31.8125   -4.2523 C   0  0  0  0  0  0  0  0  0  0  0  0
  -87.1338   32.8009   -4.5244 N   0  0  0  0  0  0  0  0  0  0  0  0
  -87.7312   33.9676   -4.2684 C   0  0  0  0  0  0  0  0  0  0  0  0
  -87.2524   35.2474   -4.3925 C   0  0  0  0  0  0  0  0  0  0  0  0
  -88.0596   36.3142   -4.0651 C   0  0  0  0  0  0  0  0  0  0  0  0
  -89.3397   36.0924   -3.6171 C   0  0  0  0  0  0  0  0  0  0  0  0
  -89.8118   34.7918   -3.4961 C   0  0  0  0  0  0  0  0  0  0  0  0
  -89.0099   33.6972   -3.8230 C   0  0  0  0  0  0  0  0  0  0  0  0
  -86.1535   32.7086   -4.8769 H   0  0  0  0  0  0  0  0  0  0  0  0
 52 53  1  0  0  0
 53 54  1  0  0  0
 53 51  1  0  0  0
 51 30  1  0  0  0
 30 26  1  0  0  0
 26 27  1  0  0  0
 27 28  2  0  0  0
 27  1  1  0  0  0
  1 55  1  0  0  0
 55 56  1  0  0  0
 56 57  2  0  0  0
 57 58  1  0  0  0
 58 59  1  0  0  0
 59 60  2  0  0  0
 60 61  1  0  0  0
 61 62  2  0  0  0
 62 63  1  0  0  0
 63 64  2  0  0  0
  1  2  1  0  0  0
  2  3  1  0  0  0
  3  4  2  0  0  0
  3  6  1  0  0  0
  6  7  1  0  0  0
  7  8  1  0  0  0
  8  9  1  0  0  0
  9 10  1  0  0  0
 10 11  1  0  0  0
 11 12  2  0  0  0
 11 13  1  0  0  0
 13 14  1  0  0  0
 13 17  1  0  0  0
 17 18  1  0  0  0
 18 19  2  0  0  0
 19 20  1  0  0  0
 20 21  2  0  0  0
 21 22  1  0  0  0
 21 23  1  0  0  0
 23 24  2  0  0  0
 30 31  1  0  0  0
 31 32  2  0  0  0
 31 33  1  0  0  0
 33 35  1  0  0  0
 35 40  1  0  0  0
 40 41  1  0  0  0
 41 42  2  0  0  0
 42 43  1  0  0  0
 43 44  1  0  0  0
 44 45  2  0  0  0
 45 46  1  0  0  0
 46 47  2  0  0  0
 47 48  1  0  0  0
 48 49  2  0  0  0
 35 36  1  0  0  0
 36 37  1  0  0  0
 36 38  2  0  0  0
 64 56  1  0  0  0
 10  6  1  0  0  0
 24 18  1  0  0  0
 49 41  1  0  0  0
 64 59  1  0  0  0
 49 44  1  0  0  0
 26 29  1  0  0  0
 58 65  1  0  0  0
  2  5  1  0  0  0
 14 15  1  0  0  0
 14 16  1  0  0  0
 22 25  1  0  0  0
 33 34  1  0  0  0
 43 50  1  0  0  0
 37 39  1  0  0  0
M  END
> <minimizedAffinity>
-9.85349

> <CNNscore>
0.2718258202

> <CNNaffinity>
7.8418717384

> <CNN_VS>
2.1316232681

> <CNNaffinity_variance>
1.1090888977

$$$$
[H]OC(=O)[C@@]([H])(N([H])C(=O)[C@@]([H])(N([H])C(=O)[C@@]([H])(N([H])C(=O)[C@@]1([H])N(C(=O)[C@@]([H])(N([H])[H])C([H])([H])c2c([H])c([H])c(O[H])c([H])c2[H])C([H])([H])C([H])([H])C1([H])[H])C([H])([H])c1c([H])n([H])c2c([H])c([H])c([H])c([H])c12)C([H])([H])C([H])(C([H])([H])[H])C([H])([H])[H])C([H])([H])c1c([H])n([H])c2c([H])c([H])c([H])c([H])c12


 65 70  0  0  0  0  0  0  0  0999 V2000
  -90.5439   30.0198   -3.3980 C   0  0  0  0  0  0  0  0  0  0  0  0
  -91.5910   29.2980   -3.7436 N   0  0  0  0  0  0  0  0  0  0  0  0
  -92.7410   28.5325   -4.1015 C   0  0  0  0  0  0  0  0  0  0  0  0
  -93.8670   28.7535   -3.6704 O   0  0  0  0  0  0  0  0  0  0  0  0
  -92.4513   30.1439   -3.0987 H   0  0  0  0  0  0  0  0  0  0  0  0
  -92.6464   27.3640   -5.0619 C   0  0  0  0  0  0  0  0  0  0  0  0
  -93.8867   27.4162   -5.9327 C   0  0  0  0  0  0  0  0  0  0  0  0
  -94.0848   25.9016   -6.2015 C   0  0  0  0  0  0  0  0  0  0  0  0
  -93.8586   25.3518   -4.7972 C   0  0  0  0  0  0  0  0  0  0  0  0
  -92.7470   26.1278   -4.3463 N   0  0  0  0  0  0  0  0  0  0  0  0
  -91.8322   25.7356   -3.3173 C   0  0  0  0  0  0  0  0  0  0  0  0
  -90.8669   26.5208   -2.9969 O   0  0  0  0  0  0  0  0  0  0  0  0
  -91.8866   24.4823   -2.5599 C   0  0  0  0  0  0  0  0  0  0  0  0
  -90.5471   24.1385   -2.0252 N   0  0  0  0  0  0  0  0  0  0  0  0
  -90.1126   24.9489   -1.5512 H   0  0  0  0  0  0  0  0  0  0  0  0
  -89.9693   23.6228   -2.6872 H   0  0  0  0  0  0  0  0  0  0  0  0
  -92.8065   24.5032   -1.3716 C   0  0  0  0  0  0  0  0  0  0  0  0
  -93.9149   23.5070   -1.5699 C   0  0  0  0  0  0  0  0  0  0  0  0
  -95.2280   23.8878   -1.4373 C   0  0  0  0  0  0  0  0  0  0  0  0
  -96.2231   22.9430   -1.6617 C   0  0  0  0  0  0  0  0  0  0  0  0
  -95.9025   21.6342   -2.0138 C   0  0  0  0  0  0  0  0  0  0  0  0
  -96.9125   20.7076   -2.2345 O   0  0  0  0  0  0  0  0  0  0  0  0
  -94.5791   21.2858   -2.1361 C   0  0  0  0  0  0  0  0  0  0  0  0
  -93.5740   22.2282   -1.9124 C   0  0  0  0  0  0  0  0  0  0  0  0
  -97.2460   20.6467   -3.2009 H   0  0  0  0  0  0  0  0  0  0  0  0
  -89.4827   28.6341   -1.4555 N   0  0  0  0  0  0  0  0  0  0  0  0
  -90.1051   29.7670   -1.9731 C   0  0  0  0  0  0  0  0  0  0  0  0
  -90.3420   30.7203   -1.1348 O   0  0  0  0  0  0  0  0  0  0  0  0
  -89.2599   27.8574   -2.1480 H   0  0  0  0  0  0  0  0  0  0  0  0
  -89.1346   28.4689   -0.0740 C   0  0  0  0  0  0  0  0  0  0  0  0
  -87.6398   28.5125    0.1142 C   0  0  0  0  0  0  0  0  0  0  0  0
  -86.8575   28.6066   -0.8669 O   0  0  0  0  0  0  0  0  0  0  0  0
  -87.0218   28.4556    1.3913 N   0  0  0  0  0  0  0  0  0  0  0  0
  -87.5955   28.3590    2.2384 H   0  0  0  0  0  0  0  0  0  0  0  0
  -85.5786   28.5263    1.5266 C   0  0  0  0  0  0  0  0  0  0  0  0
  -85.1012   27.3106    2.1965 C   0  0  0  0  0  0  0  0  0  0  0  0
  -83.7530   27.2425    2.6086 O   0  0  0  0  0  0  0  0  0  0  0  0
  -85.7954   26.2952    2.4438 O   0  0  0  0  0  0  0  0  0  0  0  0
  -83.4077   26.5603    3.2397 H   0  0  0  0  0  0  0  0  0  0  0  0
  -85.1578   29.7623    2.2493 C   0  0  0  0  0  0  0  0  0  0  0  0
  -84.3846   30.7226    1.4443 C   0  0  0  0  0  0  0  0  0  0  0  0
  -83.0233   30.9491    1.4494 C   0  0  0  0  0  0  0  0  0  0  0  0
  -82.7113   31.9282    0.5943 N   0  0  0  0  0  0  0  0  0  0  0  0
  -83.8597   32.3699    0.0038 C   0  0  0  0  0  0  0  0  0  0  0  0
  -84.0672   33.3457   -0.9335 C   0  0  0  0  0  0  0  0  0  0  0  0
  -85.3781   33.5930   -1.3743 C   0  0  0  0  0  0  0  0  0  0  0  0
  -86.4327   32.8611   -0.8676 C   0  0  0  0  0  0  0  0  0  0  0  0
  -86.1803   31.8903    0.0737 C   0  0  0  0  0  0  0  0  0  0  0  0
  -84.8960   31.6297    0.5230 C   0  0  0  0  0  0  0  0  0  0  0  0
  -81.7357   32.2767    0.4281 H   0  0  0  0  0  0  0  0  0  0  0  0
  -89.6984   27.2661    0.5375 C   0  0  0  0  0  0  0  0  0  0  0  0
  -90.9242   28.9136    1.8044 C   0  0  0  0  0  0  0  0  0  0  0  0
  -90.5810   27.4059    1.7216 C   0  0  0  0  0  0  0  0  0  0  0  0
  -90.0050   27.0533    3.0494 C   0  0  0  0  0  0  0  0  0  0  0  0
  -90.5117   31.4842   -3.7390 C   0  0  0  0  0  0  0  0  0  0  0  0
  -89.2546   32.1140   -4.0254 C   0  0  0  0  0  0  0  0  0  0  0  0
  -88.0611   31.6032   -4.4448 C   0  0  0  0  0  0  0  0  0  0  0  0
  -87.1411   32.5781   -4.5581 N   0  0  0  0  0  0  0  0  0  0  0  0
  -87.7139   33.7357   -4.2181 C   0  0  0  0  0  0  0  0  0  0  0  0
  -87.1850   35.0010   -4.1778 C   0  0  0  0  0  0  0  0  0  0  0  0
  -87.9750   36.0604   -3.7902 C   0  0  0  0  0  0  0  0  0  0  0  0
  -89.2882   35.8459   -3.4469 C   0  0  0  0  0  0  0  0  0  0  0  0
  -89.8111   34.5599   -3.4920 C   0  0  0  0  0  0  0  0  0  0  0  0
  -89.0273   33.4731   -3.8824 C   0  0  0  0  0  0  0  0  0  0  0  0
  -86.1437   32.4828   -4.8579 H   0  0  0  0  0  0  0  0  0  0  0  0
 52 53  1  0  0  0
 53 54  1  0  0  0
 53 51  1  0  0  0
 51 30  1  0  0  0
 30 26  1  0  0  0
 26 27  1  0  0  0
 27 28  2  0  0  0
 27  1  1  0  0  0
  1 55  1  0  0  0
 55 56  1  0  0  0
 56 57  2  0  0  0
 57 58  1  0  0  0
 58 59  1  0  0  0
 59 60  2  0  0  0
 60 61  1  0  0  0
 61 62  2  0  0  0
 62 63  1  0  0  0
 63 64  2  0  0  0
  1  2  1  0  0  0
  2  3  1  0  0  0
  3  4  2  0  0  0
  3  6  1  0  0  0
  6  7  1  0  0  0
  7  8  1  0  0  0
  8  9  1  0  0  0
  9 10  1  0  0  0
 10 11  1  0  0  0
 11 12  2  0  0  0
 11 13  1  0  0  0
 13 14  1  0  0  0
 13 17  1  0  0  0
 17 18  1  0  0  0
 18 19  2  0  0  0
 19 20  1  0  0  0
 20 21  2  0  0  0
 21 22  1  0  0  0
 21 23  1  0  0  0
 23 24  2  0  0  0
 30 31  1  0  0  0
 31 32  2  0  0  0
 31 33  1  0  0  0
 33 35  1  0  0  0
 35 40  1  0  0  0
 40 41  1  0  0  0
 41 42  2  0  0  0
 42 43  1  0  0  0
 43 44  1  0  0  0
 44 45  2  0  0  0
 45 46  1  0  0  0
 46 47  2  0  0  0
 47 48  1  0  0  0
 48 49  2  0  0  0
 35 36  1  0  0  0
 36 37  1  0  0  0
 36 38  2  0  0  0
 64 56  1  0  0  0
 10  6  1  0  0  0
 24 18  1  0  0  0
 49 41  1  0  0  0
 64 59  1  0  0  0
 49 44  1  0  0  0
 26 29  1  0  0  0
 58 65  1  0  0  0
  2  5  1  0  0  0
 14 15  1  0  0  0
 14 16  1  0  0  0
 22 25  1  0  0  0
 33 34  1  0  0  0
 43 50  1  0  0  0
 37 39  1  0  0  0
M  END
> <minimizedAffinity>
-9.27675

> <CNNscore>
0.2081732303

> <CNNaffinity>
7.8658232689

> <CNN_VS>
1.6374537945

> <CNNaffinity_variance>
0.5069490075

$$$$
[H]OC(=O)[C@@]([H])(N([H])C(=O)[C@@]([H])(N([H])C(=O)[C@@]([H])(N([H])C(=O)[C@@]1([H])N(C(=O)[C@@]([H])(N([H])[H])C([H])([H])c2c([H])c([H])c(O[H])c([H])c2[H])C([H])([H])C([H])([H])C1([H])[H])C([H])([H])c1c([H])n([H])c2c([H])c([H])c([H])c([H])c12)C([H])([H])C([H])(C([H])([H])[H])C([H])([H])[H])C([H])([H])c1c([H])n([H])c2c([H])c([H])c([H])c([H])c12


 65 70  0  0  0  0  0  0  0  0999 V2000
  -87.5859   29.9883   -1.2111 C   0  0  0  0  0  0  0  0  0  0  0  0
  -88.3904   30.2682   -2.2168 N   0  0  0  0  0  0  0  0  0  0  0  0
  -89.2420   30.5615   -3.3236 C   0  0  0  0  0  0  0  0  0  0  0  0
  -88.9395   30.3445   -4.4916 O   0  0  0  0  0  0  0  0  0  0  0  0
  -87.5656   29.6491   -3.1157 H   0  0  0  0  0  0  0  0  0  0  0  0
  -90.6125   31.1778   -3.1263 C   0  0  0  0  0  0  0  0  0  0  0  0
  -91.5914   30.3165   -3.9004 C   0  0  0  0  0  0  0  0  0  0  0  0
  -92.6306   31.3950   -4.3035 C   0  0  0  0  0  0  0  0  0  0  0  0
  -91.6934   32.5113   -4.7517 C   0  0  0  0  0  0  0  0  0  0  0  0
  -90.6707   32.4629   -3.7552 N   0  0  0  0  0  0  0  0  0  0  0  0
  -89.8077   33.5509   -3.4074 C   0  0  0  0  0  0  0  0  0  0  0  0
  -88.9220   33.3870   -2.4911 O   0  0  0  0  0  0  0  0  0  0  0  0
  -89.8294   34.8845   -4.0143 C   0  0  0  0  0  0  0  0  0  0  0  0
  -91.1248   35.5558   -3.7501 N   0  0  0  0  0  0  0  0  0  0  0  0
  -91.3812   35.4968   -2.7496 H   0  0  0  0  0  0  0  0  0  0  0  0
  -91.8465   35.3201   -4.4294 H   0  0  0  0  0  0  0  0  0  0  0  0
  -88.7723   35.8251   -3.5075 C   0  0  0  0  0  0  0  0  0  0  0  0
  -88.0385   36.4371   -4.6681 C   0  0  0  0  0  0  0  0  0  0  0  0
  -86.9591   37.2599   -4.4561 C   0  0  0  0  0  0  0  0  0  0  0  0
  -86.2884   37.7785   -5.5582 C   0  0  0  0  0  0  0  0  0  0  0  0
  -86.6974   37.4748   -6.8543 C   0  0  0  0  0  0  0  0  0  0  0  0
  -86.0121   38.0028   -7.9401 O   0  0  0  0  0  0  0  0  0  0  0  0
  -87.7821   36.6503   -7.0312 C   0  0  0  0  0  0  0  0  0  0  0  0
  -88.4611   36.1255   -5.9303 C   0  0  0  0  0  0  0  0  0  0  0  0
  -85.2400   37.4284   -8.2907 H   0  0  0  0  0  0  0  0  0  0  0  0
  -88.7619   28.4516    0.5425 N   0  0  0  0  0  0  0  0  0  0  0  0
  -87.9204   28.6729   -0.5445 C   0  0  0  0  0  0  0  0  0  0  0  0
  -87.3502   27.6282   -1.0458 O   0  0  0  0  0  0  0  0  0  0  0  0
  -89.2560   29.3057    0.9411 H   0  0  0  0  0  0  0  0  0  0  0  0
  -88.9909   27.1646    1.1327 C   0  0  0  0  0  0  0  0  0  0  0  0
  -90.1271   26.4511    0.4460 C   0  0  0  0  0  0  0  0  0  0  0  0
  -91.0513   27.0862   -0.1247 O   0  0  0  0  0  0  0  0  0  0  0  0
  -90.2287   25.0358    0.3931 N   0  0  0  0  0  0  0  0  0  0  0  0
  -89.5210   24.4501    0.8535 H   0  0  0  0  0  0  0  0  0  0  0  0
  -91.3279   24.3913   -0.3015 C   0  0  0  0  0  0  0  0  0  0  0  0
  -91.8762   23.3304    0.5521 C   0  0  0  0  0  0  0  0  0  0  0  0
  -91.5905   21.9845    0.2373 O   0  0  0  0  0  0  0  0  0  0  0  0
  -92.5974   23.5092    1.5630 O   0  0  0  0  0  0  0  0  0  0  0  0
  -91.7421   21.2320    0.8646 H   0  0  0  0  0  0  0  0  0  0  0  0
  -90.9016   23.8701   -1.6333 C   0  0  0  0  0  0  0  0  0  0  0  0
  -91.9715   23.7855   -2.6413 C   0  0  0  0  0  0  0  0  0  0  0  0
  -92.6617   22.6704   -3.0711 C   0  0  0  0  0  0  0  0  0  0  0  0
  -93.5375   23.0040   -4.0244 N   0  0  0  0  0  0  0  0  0  0  0  0
  -93.4466   24.3478   -4.2451 C   0  0  0  0  0  0  0  0  0  0  0  0
  -94.1264   25.1616   -5.1108 C   0  0  0  0  0  0  0  0  0  0  0  0
  -93.8271   26.5342   -5.1256 C   0  0  0  0  0  0  0  0  0  0  0  0
  -92.8645   27.0461   -4.2795 C   0  0  0  0  0  0  0  0  0  0  0  0
  -92.2043   26.1932   -3.4257 C   0  0  0  0  0  0  0  0  0  0  0  0
  -92.4827   24.8365   -3.3944 C   0  0  0  0  0  0  0  0  0  0  0  0
  -94.1745   22.3222   -4.5042 H   0  0  0  0  0  0  0  0  0  0  0  0
  -89.2051   27.2075    2.5786 C   0  0  0  0  0  0  0  0  0  0  0  0
  -91.0770   28.5410    3.3130 C   0  0  0  0  0  0  0  0  0  0  0  0
  -90.5864   27.0870    3.1062 C   0  0  0  0  0  0  0  0  0  0  0  0
  -90.7588   26.4152    4.4245 C   0  0  0  0  0  0  0  0  0  0  0  0
  -87.2646   31.0574   -0.2032 C   0  0  0  0  0  0  0  0  0  0  0  0
  -85.8974   31.4367    0.0107 C   0  0  0  0  0  0  0  0  0  0  0  0
  -85.1945   32.5421   -0.3707 C   0  0  0  0  0  0  0  0  0  0  0  0
  -83.9154   32.4550    0.0368 N   0  0  0  0  0  0  0  0  0  0  0  0
  -83.7614   31.2994    0.6884 C   0  0  0  0  0  0  0  0  0  0  0  0
  -82.6466   30.7678    1.2858 C   0  0  0  0  0  0  0  0  0  0  0  0
  -82.7234   29.5417    1.9085 C   0  0  0  0  0  0  0  0  0  0  0  0
  -83.9151   28.8576    1.9294 C   0  0  0  0  0  0  0  0  0  0  0  0
  -85.0360   29.4073    1.3207 C   0  0  0  0  0  0  0  0  0  0  0  0
  -84.9791   30.6485    0.6849 C   0  0  0  0  0  0  0  0  0  0  0  0
  -83.1494   33.1513   -0.1119 H   0  0  0  0  0  0  0  0  0  0  0  0
 52 53  1  0  0  0
 53 54  1  0  0  0
 53 51  1  0  0  0
 51 30  1  0  0  0
 30 26  1  0  0  0
 26 27  1  0  0  0
 27 28  2  0  0  0
 27  1  1  0  0  0
  1 55  1  0  0  0
 55 56  1  0  0  0
 56 57  2  0  0  0
 57 58  1  0  0  0
 58 59  1  0  0  0
 59 60  2  0  0  0
 60 61  1  0  0  0
 61 62  2  0  0  0
 62 63  1  0  0  0
 63 64  2  0  0  0
  1  2  1  0  0  0
  2  3  1  0  0  0
  3  4  2  0  0  0
  3  6  1  0  0  0
  6  7  1  0  0  0
  7  8  1  0  0  0
  8  9  1  0  0  0
  9 10  1  0  0  0
 10 11  1  0  0  0
 11 12  2  0  0  0
 11 13  1  0  0  0
 13 14  1  0  0  0
 13 17  1  0  0  0
 17 18  1  0  0  0
 18 19  2  0  0  0
 19 20  1  0  0  0
 20 21  2  0  0  0
 21 22  1  0  0  0
 21 23  1  0  0  0
 23 24  2  0  0  0
 30 31  1  0  0  0
 31 32  2  0  0  0
 31 33  1  0  0  0
 33 35  1  0  0  0
 35 40  1  0  0  0
 40 41  1  0  0  0
 41 42  2  0  0  0
 42 43  1  0  0  0
 43 44  1  0  0  0
 44 45  2  0  0  0
 45 46  1  0  0  0
 46 47  2  0  0  0
 47 48  1  0  0  0
 48 49  2  0  0  0
 35 36  1  0  0  0
 36 37  1  0  0  0
 36 38  2  0  0  0
 64 56  1  0  0  0
 10  6  1  0  0  0
 24 18  1  0  0  0
 49 41  1  0  0  0
 64 59  1  0  0  0
 49 44  1  0  0  0
 26 29  1  0  0  0
 58 65  1  0  0  0
  2  5  1  0  0  0
 14 15  1  0  0  0
 14 16  1  0  0  0
 22 25  1  0  0  0
 33 34  1  0  0  0
 43 50  1  0  0  0
 37 39  1  0  0  0
M  END
> <minimizedAffinity>
-10.43581

> <CNNscore>
0.1984074265

> <CNNaffinity>
7.7033767700

> <CNN_VS>
1.5284072161

> <CNNaffinity_variance>
0.5015221834

$$$$
[H]OC(=O)[C@@]([H])(N([H])C(=O)[C@@]([H])(N([H])C(=O)[C@@]([H])(N([H])C(=O)[C@@]1([H])N(C(=O)[C@@]([H])(N([H])[H])C([H])([H])c2c([H])c([H])c(O[H])c([H])c2[H])C([H])([H])C([H])([H])C1([H])[H])C([H])([H])c1c([H])n([H])c2c([H])c([H])c([H])c([H])c12)C([H])([H])C([H])(C([H])([H])[H])C([H])([H])[H])C([H])([H])c1c([H])n([H])c2c([H])c([H])c([H])c([H])c12


 65 70  0  0  0  0  0  0  0  0999 V2000
  -90.1683   29.7441   -2.6798 C   0  0  0  0  0  0  0  0  0  0  0  0
  -91.2198   28.9884   -2.9250 N   0  0  0  0  0  0  0  0  0  0  0  0
  -92.3725   28.1839   -3.1707 C   0  0  0  0  0  0  0  0  0  0  0  0
  -93.4294   28.3047   -2.5614 O   0  0  0  0  0  0  0  0  0  0  0  0
  -92.0118   29.7314   -2.0930 H   0  0  0  0  0  0  0  0  0  0  0  0
  -92.3689   27.0972   -4.2271 C   0  0  0  0  0  0  0  0  0  0  0  0
  -93.6945   27.1962   -4.9565 C   0  0  0  0  0  0  0  0  0  0  0  0
  -93.9056   25.7044   -5.3247 C   0  0  0  0  0  0  0  0  0  0  0  0
  -93.5274   25.0490   -4.0008 C   0  0  0  0  0  0  0  0  0  0  0  0
  -92.3817   25.8065   -3.6072 N   0  0  0  0  0  0  0  0  0  0  0  0
  -91.3598   25.3503   -2.7144 C   0  0  0  0  0  0  0  0  0  0  0  0
  -90.3735   26.1246   -2.4341 O   0  0  0  0  0  0  0  0  0  0  0  0
  -91.3221   24.0400   -2.0593 C   0  0  0  0  0  0  0  0  0  0  0  0
  -91.6379   22.9637   -3.0290 N   0  0  0  0  0  0  0  0  0  0  0  0
  -91.0833   23.0651   -3.8964 H   0  0  0  0  0  0  0  0  0  0  0  0
  -92.6374   22.7961   -3.1334 H   0  0  0  0  0  0  0  0  0  0  0  0
  -89.9933   23.6723   -1.4609 C   0  0  0  0  0  0  0  0  0  0  0  0
  -90.2050   22.9474   -0.1610 C   0  0  0  0  0  0  0  0  0  0  0  0
  -91.0013   23.4887    0.8187 C   0  0  0  0  0  0  0  0  0  0  0  0
  -91.1971   22.7699    1.9928 C   0  0  0  0  0  0  0  0  0  0  0  0
  -90.6005   21.5253    2.1791 C   0  0  0  0  0  0  0  0  0  0  0  0
  -90.8110   20.8245    3.3590 O   0  0  0  0  0  0  0  0  0  0  0  0
  -89.8083   21.0136    1.1801 C   0  0  0  0  0  0  0  0  0  0  0  0
  -89.6064   21.7287   -0.0015 C   0  0  0  0  0  0  0  0  0  0  0  0
  -91.6129   20.1874    3.3516 H   0  0  0  0  0  0  0  0  0  0  0  0
  -88.9354   28.2713   -0.9105 N   0  0  0  0  0  0  0  0  0  0  0  0
  -89.5395   29.4514   -1.3360 C   0  0  0  0  0  0  0  0  0  0  0  0
  -89.5722   30.4164   -0.4784 O   0  0  0  0  0  0  0  0  0  0  0  0
  -88.8808   27.4828   -1.6232 H   0  0  0  0  0  0  0  0  0  0  0  0
  -88.3958   28.0732    0.4035 C   0  0  0  0  0  0  0  0  0  0  0  0
  -86.9186   28.3713    0.4303 C   0  0  0  0  0  0  0  0  0  0  0  0
  -86.2628   28.5341   -0.6313 O   0  0  0  0  0  0  0  0  0  0  0  0
  -86.1782   28.4911    1.6359 N   0  0  0  0  0  0  0  0  0  0  0  0
  -86.6420   28.3521    2.5423 H   0  0  0  0  0  0  0  0  0  0  0  0
  -84.7614   28.8044    1.6144 C   0  0  0  0  0  0  0  0  0  0  0  0
  -84.0269   27.7448    2.3163 C   0  0  0  0  0  0  0  0  0  0  0  0
  -82.6677   27.9522    2.6352 O   0  0  0  0  0  0  0  0  0  0  0  0
  -84.5037   26.6392    2.6688 O   0  0  0  0  0  0  0  0  0  0  0  0
  -82.1645   27.3892    3.2777 H   0  0  0  0  0  0  0  0  0  0  0  0
  -84.4909   30.1506    2.1987 C   0  0  0  0  0  0  0  0  0  0  0  0
  -84.0222   31.1642    1.2390 C   0  0  0  0  0  0  0  0  0  0  0  0
  -82.7361   31.6171    1.0261 C   0  0  0  0  0  0  0  0  0  0  0  0
  -82.7271   32.5675    0.0860 N   0  0  0  0  0  0  0  0  0  0  0  0
  -84.0073   32.7631   -0.3445 C   0  0  0  0  0  0  0  0  0  0  0  0
  -84.5152   33.6163   -1.2868 C   0  0  0  0  0  0  0  0  0  0  0  0
  -85.8980   33.6047   -1.5353 C   0  0  0  0  0  0  0  0  0  0  0  0
  -86.7233   32.7456   -0.8386 C   0  0  0  0  0  0  0  0  0  0  0  0
  -86.1721   31.9051    0.1005 C   0  0  0  0  0  0  0  0  0  0  0  0
  -84.8116   31.8998    0.3621 C   0  0  0  0  0  0  0  0  0  0  0  0
  -81.8625   33.0622   -0.2435 H   0  0  0  0  0  0  0  0  0  0  0  0
  -88.6666   26.7481    0.9596 C   0  0  0  0  0  0  0  0  0  0  0  0
  -90.9150   27.3239    1.6189 C   0  0  0  0  0  0  0  0  0  0  0  0
  -89.6179   26.6222    2.0910 C   0  0  0  0  0  0  0  0  0  0  0  0
  -89.2480   27.2854    3.3726 C   0  0  0  0  0  0  0  0  0  0  0  0
  -90.2420   31.2217   -2.9501 C   0  0  0  0  0  0  0  0  0  0  0  0
  -89.1533   31.8707   -3.6228 C   0  0  0  0  0  0  0  0  0  0  0  0
  -88.0508   31.3704   -4.2517 C   0  0  0  0  0  0  0  0  0  0  0  0
  -87.2794   32.3672   -4.7218 N   0  0  0  0  0  0  0  0  0  0  0  0
  -87.8611   33.5287   -4.4114 C   0  0  0  0  0  0  0  0  0  0  0  0
  -87.4586   34.8131   -4.6768 C   0  0  0  0  0  0  0  0  0  0  0  0
  -88.2299   35.8727   -4.2535 C   0  0  0  0  0  0  0  0  0  0  0  0
  -89.3983   35.6390   -3.5688 C   0  0  0  0  0  0  0  0  0  0  0  0
  -89.7941   34.3336   -3.3068 C   0  0  0  0  0  0  0  0  0  0  0  0
  -89.0269   33.2462   -3.7275 C   0  0  0  0  0  0  0  0  0  0  0  0
  -86.3771   32.2840   -5.2440 H   0  0  0  0  0  0  0  0  0  0  0  0
 52 53  1  0  0  0
 53 54  1  0  0  0
 53 51  1  0  0  0
 51 30  1  0  0  0
 30 26  1  0  0  0
 26 27  1  0  0  0
 27 28  2  0  0  0
 27  1  1  0  0  0
  1 55  1  0  0  0
 55 56  1  0  0  0
 56 57  2  0  0  0
 57 58  1  0  0  0
 58 59  1  0  0  0
 59 60  2  0  0  0
 60 61  1  0  0  0
 61 62  2  0  0  0
 62 63  1  0  0  0
 63 64  2  0  0  0
  1  2  1  0  0  0
  2  3  1  0  0  0
  3  4  2  0  0  0
  3  6  1  0  0  0
  6  7  1  0  0  0
  7  8  1  0  0  0
  8  9  1  0  0  0
  9 10  1  0  0  0
 10 11  1  0  0  0
 11 12  2  0  0  0
 11 13  1  0  0  0
 13 14  1  0  0  0
 13 17  1  0  0  0
 17 18  1  0  0  0
 18 19  2  0  0  0
 19 20  1  0  0  0
 20 21  2  0  0  0
 21 22  1  0  0  0
 21 23  1  0  0  0
 23 24  2  0  0  0
 30 31  1  0  0  0
 31 32  2  0  0  0
 31 33  1  0  0  0
 33 35  1  0  0  0
 35 40  1  0  0  0
 40 41  1  0  0  0
 41 42  2  0  0  0
 42 43  1  0  0  0
 43 44  1  0  0  0
 44 45  2  0  0  0
 45 46  1  0  0  0
 46 47  2  0  0  0
 47 48  1  0  0  0
 48 49  2  0  0  0
 35 36  1  0  0  0
 36 37  1  0  0  0
 36 38  2  0  0  0
 64 56  1  0  0  0
 10  6  1  0  0  0
 24 18  1  0  0  0
 49 41  1  0  0  0
 64 59  1  0  0  0
 49 44  1  0  0  0
 26 29  1  0  0  0
 58 65  1  0  0  0
  2  5  1  0  0  0
 14 15  1  0  0  0
 14 16  1  0  0  0
 22 25  1  0  0  0
 33 34  1  0  0  0
 43 50  1  0  0  0
 37 39  1  0  0  0
M  END
> <minimizedAffinity>
-10.21033

> <CNNscore>
0.1893191785

> <CNNaffinity>
8.0442819595

> <CNN_VS>
1.5229368210

> <CNNaffinity_variance>
0.5203863382

$$$$
[H]OC(=O)[C@@]([H])(N([H])C(=O)[C@@]([H])(N([H])C(=O)[C@@]([H])(N([H])C(=O)[C@@]1([H])N(C(=O)[C@@]([H])(N([H])[H])C([H])([H])c2c([H])c([H])c(O[H])c([H])c2[H])C([H])([H])C([H])([H])C1([H])[H])C([H])([H])c1c([H])n([H])c2c([H])c([H])c([H])c([H])c12)C([H])([H])C([H])(C([H])([H])[H])C([H])([H])[H])C([H])([H])c1c([H])n([H])c2c([H])c([H])c([H])c([H])c12


 65 70  0  0  0  0  0  0  0  0999 V2000
  -86.5060   27.8758    0.7767 C   0  0  0  0  0  0  0  0  0  0  0  0
  -87.0282   28.9156    0.1579 N   0  0  0  0  0  0  0  0  0  0  0  0
  -87.6192   30.0308   -0.5082 C   0  0  0  0  0  0  0  0  0  0  0  0
  -88.8265   30.1625   -0.6750 O   0  0  0  0  0  0  0  0  0  0  0  0
  -88.3017   28.5299    0.4755 H   0  0  0  0  0  0  0  0  0  0  0  0
  -86.7738   31.1563   -1.0698 C   0  0  0  0  0  0  0  0  0  0  0  0
  -86.6293   32.1842    0.0355 C   0  0  0  0  0  0  0  0  0  0  0  0
  -86.5399   33.4773   -0.8162 C   0  0  0  0  0  0  0  0  0  0  0  0
  -87.6645   33.2162   -1.8125 C   0  0  0  0  0  0  0  0  0  0  0  0
  -87.4827   31.8317   -2.1146 N   0  0  0  0  0  0  0  0  0  0  0  0
  -87.9359   31.1827   -3.3074 C   0  0  0  0  0  0  0  0  0  0  0  0
  -87.7128   29.9275   -3.4678 O   0  0  0  0  0  0  0  0  0  0  0  0
  -88.6588   31.8272   -4.4072 C   0  0  0  0  0  0  0  0  0  0  0  0
  -88.8875   30.8669   -5.5135 N   0  0  0  0  0  0  0  0  0  0  0  0
  -89.2763   29.9749   -5.1621 H   0  0  0  0  0  0  0  0  0  0  0  0
  -88.1060   30.8087   -6.1645 H   0  0  0  0  0  0  0  0  0  0  0  0
  -90.0162   32.3599   -4.0429 C   0  0  0  0  0  0  0  0  0  0  0  0
  -90.1772   33.7529   -4.5848 C   0  0  0  0  0  0  0  0  0  0  0  0
  -90.1451   34.8377   -3.7427 C   0  0  0  0  0  0  0  0  0  0  0  0
  -90.2647   36.1107   -4.2890 C   0  0  0  0  0  0  0  0  0  0  0  0
  -90.4150   36.2903   -5.6619 C   0  0  0  0  0  0  0  0  0  0  0  0
  -90.5313   37.5707   -6.1858 O   0  0  0  0  0  0  0  0  0  0  0  0
  -90.4452   35.1839   -6.4759 C   0  0  0  0  0  0  0  0  0  0  0  0
  -90.3258   33.9024   -5.9355 C   0  0  0  0  0  0  0  0  0  0  0  0
  -89.6481   38.0156   -6.4523 H   0  0  0  0  0  0  0  0  0  0  0  0
  -88.8875   26.8794    1.1712 N   0  0  0  0  0  0  0  0  0  0  0  0
  -87.5433   27.0427    1.4955 C   0  0  0  0  0  0  0  0  0  0  0  0
  -87.1282   26.4088    2.5413 O   0  0  0  0  0  0  0  0  0  0  0  0
  -89.2274   27.3772    0.2941 H   0  0  0  0  0  0  0  0  0  0  0  0
  -89.8095   26.0930    1.9382 C   0  0  0  0  0  0  0  0  0  0  0  0
  -90.4363   25.0168    1.0894 C   0  0  0  0  0  0  0  0  0  0  0  0
  -91.6792   24.9731    0.8976 O   0  0  0  0  0  0  0  0  0  0  0  0
  -89.6792   23.9971    0.4546 N   0  0  0  0  0  0  0  0  0  0  0  0
  -88.6601   23.9566    0.5809 H   0  0  0  0  0  0  0  0  0  0  0  0
  -90.3230   22.9953   -0.3749 C   0  0  0  0  0  0  0  0  0  0  0  0
  -89.8292   21.6674    0.0096 C   0  0  0  0  0  0  0  0  0  0  0  0
  -88.4372   21.4629    0.1229 O   0  0  0  0  0  0  0  0  0  0  0  0
  -90.5455   20.6664    0.2523 O   0  0  0  0  0  0  0  0  0  0  0  0
  -88.0347   20.6749    0.5700 H   0  0  0  0  0  0  0  0  0  0  0  0
  -90.1108   23.2697   -1.8263 C   0  0  0  0  0  0  0  0  0  0  0  0
  -91.1726   24.0582   -2.4735 C   0  0  0  0  0  0  0  0  0  0  0  0
  -92.3355   23.6109   -3.0668 C   0  0  0  0  0  0  0  0  0  0  0  0
  -93.0266   24.6389   -3.5695 N   0  0  0  0  0  0  0  0  0  0  0  0
  -92.3363   25.7891   -3.3183 C   0  0  0  0  0  0  0  0  0  0  0  0
  -92.6235   27.0918   -3.6258 C   0  0  0  0  0  0  0  0  0  0  0  0
  -91.7200   28.0943   -3.2357 C   0  0  0  0  0  0  0  0  0  0  0  0
  -90.5659   27.7647   -2.5545 C   0  0  0  0  0  0  0  0  0  0  0  0
  -90.3151   26.4433   -2.2662 C   0  0  0  0  0  0  0  0  0  0  0  0
  -91.1917   25.4383   -2.6415 C   0  0  0  0  0  0  0  0  0  0  0  0
  -93.9443   24.5439   -4.0693 H   0  0  0  0  0  0  0  0  0  0  0  0
  -90.8374   26.8820    2.6160 C   0  0  0  0  0  0  0  0  0  0  0  0
  -90.1383   28.2429    4.4818 C   0  0  0  0  0  0  0  0  0  0  0  0
  -90.8526   26.9235    4.0989 C   0  0  0  0  0  0  0  0  0  0  0  0
  -90.1183   25.8470    4.8208 C   0  0  0  0  0  0  0  0  0  0  0  0
  -85.2649   28.0572    1.6065 C   0  0  0  0  0  0  0  0  0  0  0  0
  -84.9358   29.3610    2.1072 C   0  0  0  0  0  0  0  0  0  0  0  0
  -85.2985   30.0091    3.2517 C   0  0  0  0  0  0  0  0  0  0  0  0
  -84.7635   31.2428    3.2884 N   0  0  0  0  0  0  0  0  0  0  0  0
  -84.0456   31.4210    2.1763 C   0  0  0  0  0  0  0  0  0  0  0  0
  -83.3167   32.5077    1.7640 C   0  0  0  0  0  0  0  0  0  0  0  0
  -82.6469   32.4655    0.5613 C   0  0  0  0  0  0  0  0  0  0  0  0
  -82.7107   31.3361   -0.2189 C   0  0  0  0  0  0  0  0  0  0  0  0
  -83.4522   30.2429    0.2104 C   0  0  0  0  0  0  0  0  0  0  0  0
  -84.1378   30.2655    1.4259 C   0  0  0  0  0  0  0  0  0  0  0  0
  -84.8691   31.9622    4.0400 H   0  0  0  0  0  0  0  0  0  0  0  0
 52 53  1  0  0  0
 53 54  1  0  0  0
 53 51  1  0  0  0
 51 30  1  0  0  0
 30 26  1  0  0  0
 26 27  1  0  0  0
 27 28  2  0  0  0
 27  1  1  0  0  0
  1 55  1  0  0  0
 55 56  1  0  0  0
 56 57  2  0  0  0
 57 58  1  0  0  0
 58 59  1  0  0  0
 59 60  2  0  0  0
 60 61  1  0  0  0
 61 62  2  0  0  0
 62 63  1  0  0  0
 63 64  2  0  0  0
  1  2  1  0  0  0
  2  3  1  0  0  0
  3  4  2  0  0  0
  3  6  1  0  0  0
  6  7  1  0  0  0
  7  8  1  0  0  0
  8  9  1  0  0  0
  9 10  1  0  0  0
 10 11  1  0  0  0
 11 12  2  0  0  0
 11 13  1  0  0  0
 13 14  1  0  0  0
 13 17  1  0  0  0
 17 18  1  0  0  0
 18 19  2  0  0  0
 19 20  1  0  0  0
 20 21  2  0  0  0
 21 22  1  0  0  0
 21 23  1  0  0  0
 23 24  2  0  0  0
 30 31  1  0  0  0
 31 32  2  0  0  0
 31 33  1  0  0  0
 33 35  1  0  0  0
 35 40  1  0  0  0
 40 41  1  0  0  0
 41 42  2  0  0  0
 42 43  1  0  0  0
 43 44  1  0  0  0
 44 45  2  0  0  0
 45 46  1  0  0  0
 46 47  2  0  0  0
 47 48  1  0  0  0
 48 49  2  0  0  0
 35 36  1  0  0  0
 36 37  1  0  0  0
 36 38  2  0  0  0
 64 56  1  0  0  0
 10  6  1  0  0  0
 24 18  1  0  0  0
 49 41  1  0  0  0
 64 59  1  0  0  0
 49 44  1  0  0  0
 26 29  1  0  0  0
 58 65  1  0  0  0
  2  5  1  0  0  0
 14 15  1  0  0  0
 14 16  1  0  0  0
 22 25  1  0  0  0
 33 34  1  0  0  0
 43 50  1  0  0  0
 37 39  1  0  0  0
M  END
> <minimizedAffinity>
-10.29915

> <CNNscore>
0.1818287820

> <CNNaffinity>
7.6731882095

> <CNN_VS>
1.3952064514

> <CNNaffinity_variance>
1.4634948969

$$$$
[H]OC(=O)[C@@]([H])(N([H])C(=O)[C@@]([H])(N([H])C(=O)[C@@]([H])(N([H])C(=O)[C@@]1([H])N(C(=O)[C@@]([H])(N([H])[H])C([H])([H])c2c([H])c([H])c(O[H])c([H])c2[H])C([H])([H])C([H])([H])C1([H])[H])C([H])([H])c1c([H])n([H])c2c([H])c([H])c([H])c([H])c12)C([H])([H])C([H])(C([H])([H])[H])C([H])([H])[H])C([H])([H])c1c([H])n([H])c2c([H])c([H])c([H])c([H])c12


 65 70  0  0  0  0  0  0  0  0999 V2000
  -88.2069   30.5816   -1.7398 C   0  0  0  0  0  0  0  0  0  0  0  0
  -88.0884   31.1647   -2.9158 N   0  0  0  0  0  0  0  0  0  0  0  0
  -87.9640   31.7711   -4.2015 C   0  0  0  0  0  0  0  0  0  0  0  0
  -88.0499   31.1533   -5.2568 O   0  0  0  0  0  0  0  0  0  0  0  0
  -88.4481   30.0217   -3.5759 H   0  0  0  0  0  0  0  0  0  0  0  0
  -87.7099   33.2573   -4.3544 C   0  0  0  0  0  0  0  0  0  0  0  0
  -86.8402   33.6718   -3.1834 C   0  0  0  0  0  0  0  0  0  0  0  0
  -87.3358   35.1285   -2.9888 C   0  0  0  0  0  0  0  0  0  0  0  0
  -88.8412   34.9134   -3.1029 C   0  0  0  0  0  0  0  0  0  0  0  0
  -88.9307   33.9865   -4.1864 N   0  0  0  0  0  0  0  0  0  0  0  0
  -90.0816   33.7994   -5.0171 C   0  0  0  0  0  0  0  0  0  0  0  0
  -90.0430   32.9324   -5.9646 O   0  0  0  0  0  0  0  0  0  0  0  0
  -91.3505   34.5218   -4.8920 C   0  0  0  0  0  0  0  0  0  0  0  0
  -91.3044   35.4602   -3.7450 N   0  0  0  0  0  0  0  0  0  0  0  0
  -90.4437   36.0338   -3.7632 H   0  0  0  0  0  0  0  0  0  0  0  0
  -91.5542   35.0251   -2.8582 H   0  0  0  0  0  0  0  0  0  0  0  0
  -91.7216   35.3556   -6.0860 C   0  0  0  0  0  0  0  0  0  0  0  0
  -92.4481   34.5069   -7.0920 C   0  0  0  0  0  0  0  0  0  0  0  0
  -91.9976   34.4192   -8.3867 C   0  0  0  0  0  0  0  0  0  0  0  0
  -92.6797   33.5969   -9.2767 C   0  0  0  0  0  0  0  0  0  0  0  0
  -93.7987   32.8740   -8.8709 C   0  0  0  0  0  0  0  0  0  0  0  0
  -94.4637   32.0580   -9.7761 O   0  0  0  0  0  0  0  0  0  0  0  0
  -94.2241   32.9859   -7.5693 C   0  0  0  0  0  0  0  0  0  0  0  0
  -93.5451   33.8092   -6.6695 C   0  0  0  0  0  0  0  0  0  0  0  0
  -94.1325   31.0897   -9.8165 H   0  0  0  0  0  0  0  0  0  0  0  0
  -90.4326   29.3503   -2.3315 N   0  0  0  0  0  0  0  0  0  0  0  0
  -89.6080   30.0771   -1.4768 C   0  0  0  0  0  0  0  0  0  0  0  0
  -90.0985   30.3607   -0.3163 O   0  0  0  0  0  0  0  0  0  0  0  0
  -90.0222   29.0899   -3.2783 H   0  0  0  0  0  0  0  0  0  0  0  0
  -91.7692   28.9445   -2.0062 C   0  0  0  0  0  0  0  0  0  0  0  0
  -91.8748   27.4426   -1.9369 C   0  0  0  0  0  0  0  0  0  0  0  0
  -91.1434   26.7002   -2.6422 O   0  0  0  0  0  0  0  0  0  0  0  0
  -92.7893   26.7729   -1.0818 N   0  0  0  0  0  0  0  0  0  0  0  0
  -93.4326   27.3131   -0.4899 H   0  0  0  0  0  0  0  0  0  0  0  0
  -92.8387   25.3235   -1.0294 C   0  0  0  0  0  0  0  0  0  0  0  0
  -94.2285   24.8859   -1.2082 C   0  0  0  0  0  0  0  0  0  0  0  0
  -94.9281   24.3640   -0.0990 O   0  0  0  0  0  0  0  0  0  0  0  0
  -94.8731   24.9301   -2.2836 O   0  0  0  0  0  0  0  0  0  0  0  0
  -95.9119   24.2427   -0.0805 H   0  0  0  0  0  0  0  0  0  0  0  0
  -92.2495   24.8024    0.2388 C   0  0  0  0  0  0  0  0  0  0  0  0
  -90.7952   24.9897    0.3737 C   0  0  0  0  0  0  0  0  0  0  0  0
  -89.7783   24.3240   -0.2798 C   0  0  0  0  0  0  0  0  0  0  0  0
  -88.5882   24.7629    0.1424 N   0  0  0  0  0  0  0  0  0  0  0  0
  -88.7922   25.7300    1.0836 C   0  0  0  0  0  0  0  0  0  0  0  0
  -87.9028   26.4792    1.8057 C   0  0  0  0  0  0  0  0  0  0  0  0
  -88.3990   27.4226    2.7210 C   0  0  0  0  0  0  0  0  0  0  0  0
  -89.7596   27.5860    2.8835 C   0  0  0  0  0  0  0  0  0  0  0  0
  -90.6187   26.8121    2.1385 C   0  0  0  0  0  0  0  0  0  0  0  0
  -90.1518   25.8756    1.2307 C   0  0  0  0  0  0  0  0  0  0  0  0
  -87.6682   24.4029   -0.2107 H   0  0  0  0  0  0  0  0  0  0  0  0
  -92.7875   29.4943   -2.9001 C   0  0  0  0  0  0  0  0  0  0  0  0
  -92.6099   30.8041   -4.9188 C   0  0  0  0  0  0  0  0  0  0  0  0
  -92.6087   29.3575   -4.3665 C   0  0  0  0  0  0  0  0  0  0  0  0
  -93.6740   28.6401   -5.1213 C   0  0  0  0  0  0  0  0  0  0  0  0
  -87.6160   31.2428   -0.5251 C   0  0  0  0  0  0  0  0  0  0  0  0
  -86.4387   30.6867    0.0779 C   0  0  0  0  0  0  0  0  0  0  0  0
  -86.2373   29.5286    0.7704 C   0  0  0  0  0  0  0  0  0  0  0  0
  -84.9577   29.4337    1.1745 N   0  0  0  0  0  0  0  0  0  0  0  0
  -84.3044   30.5203    0.7546 C   0  0  0  0  0  0  0  0  0  0  0  0
  -82.9891   30.8745    0.9182 C   0  0  0  0  0  0  0  0  0  0  0  0
  -82.5296   32.0609    0.3909 C   0  0  0  0  0  0  0  0  0  0  0  0
  -83.3895   32.8833   -0.2968 C   0  0  0  0  0  0  0  0  0  0  0  0
  -84.7187   32.5127   -0.4552 C   0  0  0  0  0  0  0  0  0  0  0  0
  -85.2038   31.3145    0.0712 C   0  0  0  0  0  0  0  0  0  0  0  0
  -84.5169   28.6591    1.7216 H   0  0  0  0  0  0  0  0  0  0  0  0
 52 53  1  0  0  0
 53 54  1  0  0  0
 53 51  1  0  0  0
 51 30  1  0  0  0
 30 26  1  0  0  0
 26 27  1  0  0  0
 27 28  2  0  0  0
 27  1  1  0  0  0
  1 55  1  0  0  0
 55 56  1  0  0  0
 56 57  2  0  0  0
 57 58  1  0  0  0
 58 59  1  0  0  0
 59 60  2  0  0  0
 60 61  1  0  0  0
 61 62  2  0  0  0
 62 63  1  0  0  0
 63 64  2  0  0  0
  1  2  1  0  0  0
  2  3  1  0  0  0
  3  4  2  0  0  0
  3  6  1  0  0  0
  6  7  1  0  0  0
  7  8  1  0  0  0
  8  9  1  0  0  0
  9 10  1  0  0  0
 10 11  1  0  0  0
 11 12  2  0  0  0
 11 13  1  0  0  0
 13 14  1  0  0  0
 13 17  1  0  0  0
 17 18  1  0  0  0
 18 19  2  0  0  0
 19 20  1  0  0  0
 20 21  2  0  0  0
 21 22  1  0  0  0
 21 23  1  0  0  0
 23 24  2  0  0  0
 30 31  1  0  0  0
 31 32  2  0  0  0
 31 33  1  0  0  0
 33 35  1  0  0  0
 35 40  1  0  0  0
 40 41  1  0  0  0
 41 42  2  0  0  0
 42 43  1  0  0  0
 43 44  1  0  0  0
 44 45  2  0  0  0
 45 46  1  0  0  0
 46 47  2  0  0  0
 47 48  1  0  0  0
 48 49  2  0  0  0
 35 36  1  0  0  0
 36 37  1  0  0  0
 36 38  2  0  0  0
 64 56  1  0  0  0
 10  6  1  0  0  0
 24 18  1  0  0  0
 49 41  1  0  0  0
 64 59  1  0  0  0
 49 44  1  0  0  0
 26 29  1  0  0  0
 58 65  1  0  0  0
  2  5  1  0  0  0
 14 15  1  0  0  0
 14 16  1  0  0  0
 22 25  1  0  0  0
 33 34  1  0  0  0
 43 50  1  0  0  0
 37 39  1  0  0  0
M  END
> <minimizedAffinity>
-9.39079

> <CNNscore>
0.1373948604

> <CNNaffinity>
7.4052901268

> <CNN_VS>
1.0174487829

> <CNNaffinity_variance>
0.7851969004

$$$$
[H]OC(=O)[C@@]([H])(N([H])C(=O)[C@@]([H])(N([H])C(=O)[C@@]([H])(N([H])C(=O)[C@@]1([H])N(C(=O)[C@@]([H])(N([H])[H])C([H])([H])c2c([H])c([H])c(O[H])c([H])c2[H])C([H])([H])C([H])([H])C1([H])[H])C([H])([H])c1c([H])n([H])c2c([H])c([H])c([H])c([H])c12)C([H])([H])C([H])(C([H])([H])[H])C([H])([H])[H])C([H])([H])c1c([H])n([H])c2c([H])c([H])c([H])c([H])c12


 65 70  0  0  0  0  0  0  0  0999 V2000
  -87.8312   30.6202   -1.6988 C   0  0  0  0  0  0  0  0  0  0  0  0
  -87.8519   31.1763   -2.8934 N   0  0  0  0  0  0  0  0  0  0  0  0
  -87.8785   31.7531   -4.1984 C   0  0  0  0  0  0  0  0  0  0  0  0
  -88.0412   31.1049   -5.2261 O   0  0  0  0  0  0  0  0  0  0  0  0
  -88.2268   30.0032   -3.4893 H   0  0  0  0  0  0  0  0  0  0  0  0
  -87.7019   33.2435   -4.4088 C   0  0  0  0  0  0  0  0  0  0  0  0
  -86.9589   33.7683   -3.1955 C   0  0  0  0  0  0  0  0  0  0  0  0
  -87.5552   35.1979   -3.1184 C   0  0  0  0  0  0  0  0  0  0  0  0
  -89.0303   34.8818   -3.3411 C   0  0  0  0  0  0  0  0  0  0  0  0
  -88.9739   33.9003   -4.3778 N   0  0  0  0  0  0  0  0  0  0  0  0
  -90.0384   33.6006   -5.2869 C   0  0  0  0  0  0  0  0  0  0  0  0
  -89.8694   32.6935   -6.1811 O   0  0  0  0  0  0  0  0  0  0  0  0
  -91.3543   34.2455   -5.3020 C   0  0  0  0  0  0  0  0  0  0  0  0
  -92.1838   33.7625   -4.1720 N   0  0  0  0  0  0  0  0  0  0  0  0
  -91.6604   33.7966   -3.2803 H   0  0  0  0  0  0  0  0  0  0  0  0
  -92.6890   32.9030   -4.3817 H   0  0  0  0  0  0  0  0  0  0  0  0
  -91.3240   35.7427   -5.1745 C   0  0  0  0  0  0  0  0  0  0  0  0
  -90.7273   36.3460   -6.4155 C   0  0  0  0  0  0  0  0  0  0  0  0
  -91.2845   36.1031   -7.6473 C   0  0  0  0  0  0  0  0  0  0  0  0
  -90.7212   36.7074   -8.7658 C   0  0  0  0  0  0  0  0  0  0  0  0
  -89.6135   37.5432   -8.6474 C   0  0  0  0  0  0  0  0  0  0  0  0
  -89.0681   38.1371   -9.7776 O   0  0  0  0  0  0  0  0  0  0  0  0
  -89.0794   37.7634   -7.4008 C   0  0  0  0  0  0  0  0  0  0  0  0
  -89.6388   37.1606   -6.2729 C   0  0  0  0  0  0  0  0  0  0  0  0
  -89.4528   39.0555  -10.0172 H   0  0  0  0  0  0  0  0  0  0  0  0
  -89.8594   29.1264   -2.3878 N   0  0  0  0  0  0  0  0  0  0  0  0
  -89.0276   29.7299   -1.4483 C   0  0  0  0  0  0  0  0  0  0  0  0
  -89.3122   29.5071   -0.2085 O   0  0  0  0  0  0  0  0  0  0  0  0
  -89.6119   29.2840   -3.4108 H   0  0  0  0  0  0  0  0  0  0  0  0
  -90.9995   28.3231   -2.0535 C   0  0  0  0  0  0  0  0  0  0  0  0
  -90.7906   26.8901   -2.4715 C   0  0  0  0  0  0  0  0  0  0  0  0
  -90.0200   26.5890   -3.4196 O   0  0  0  0  0  0  0  0  0  0  0  0
  -91.4355   25.7988   -1.8319 N   0  0  0  0  0  0  0  0  0  0  0  0
  -92.0943   25.9682   -1.0616 H   0  0  0  0  0  0  0  0  0  0  0  0
  -91.1848   24.4326   -2.2520 C   0  0  0  0  0  0  0  0  0  0  0  0
  -92.4663   23.7267   -2.3722 C   0  0  0  0  0  0  0  0  0  0  0  0
  -92.4599   22.3351   -2.6079 O   0  0  0  0  0  0  0  0  0  0  0  0
  -93.6002   24.2565   -2.2854 O   0  0  0  0  0  0  0  0  0  0  0  0
  -93.2582   21.7578   -2.4965 H   0  0  0  0  0  0  0  0  0  0  0  0
  -90.2512   23.7369   -1.3185 C   0  0  0  0  0  0  0  0  0  0  0  0
  -90.2526   24.2496    0.0618 C   0  0  0  0  0  0  0  0  0  0  0  0
  -91.1545   23.9916    1.0740 C   0  0  0  0  0  0  0  0  0  0  0  0
  -90.8255   24.6738    2.1755 N   0  0  0  0  0  0  0  0  0  0  0  0
  -89.6975   25.3971    1.9163 C   0  0  0  0  0  0  0  0  0  0  0  0
  -88.9735   26.2438    2.7118 C   0  0  0  0  0  0  0  0  0  0  0  0
  -87.8315   26.8635    2.1775 C   0  0  0  0  0  0  0  0  0  0  0  0
  -87.4520   26.6181    0.8736 C   0  0  0  0  0  0  0  0  0  0  0  0
  -88.2082   25.7612    0.1081 C   0  0  0  0  0  0  0  0  0  0  0  0
  -89.3381   25.1395    0.6141 C   0  0  0  0  0  0  0  0  0  0  0  0
  -91.3658   24.6380    3.0742 H   0  0  0  0  0  0  0  0  0  0  0  0
  -92.2611   28.8384   -2.5838 C   0  0  0  0  0  0  0  0  0  0  0  0
  -93.6168   30.8231   -2.7956 C   0  0  0  0  0  0  0  0  0  0  0  0
  -92.2794   30.1741   -3.2290 C   0  0  0  0  0  0  0  0  0  0  0  0
  -92.2792   30.2143   -4.7182 C   0  0  0  0  0  0  0  0  0  0  0  0
  -87.5037   31.4637   -0.4975 C   0  0  0  0  0  0  0  0  0  0  0  0
  -86.1305   31.7070   -0.1599 C   0  0  0  0  0  0  0  0  0  0  0  0
  -85.3028   32.7560   -0.4353 C   0  0  0  0  0  0  0  0  0  0  0  0
  -84.0745   32.5361    0.0673 N   0  0  0  0  0  0  0  0  0  0  0  0
  -84.0783   31.3479    0.6771 C   0  0  0  0  0  0  0  0  0  0  0  0
  -83.0684   30.6938    1.3363 C   0  0  0  0  0  0  0  0  0  0  0  0
  -83.3052   29.4579    1.8959 C   0  0  0  0  0  0  0  0  0  0  0  0
  -84.5507   28.8865    1.7926 C   0  0  0  0  0  0  0  0  0  0  0  0
  -85.5642   29.5595    1.1225 C   0  0  0  0  0  0  0  0  0  0  0  0
  -85.3447   30.8128    0.5488 C   0  0  0  0  0  0  0  0  0  0  0  0
  -83.2399   33.1637    0.0104 H   0  0  0  0  0  0  0  0  0  0  0  0
 52 53  1  0  0  0
 53 54  1  0  0  0
 53 51  1  0  0  0
 51 30  1  0  0  0
 30 26  1  0  0  0
 26 27  1  0  0  0
 27 28  2  0  0  0
 27  1  1  0  0  0
  1 55  1  0  0  0
 55 56  1  0  0  0
 56 57  2  0  0  0
 57 58  1  0  0  0
 58 59  1  0  0  0
 59 60  2  0  0  0
 60 61  1  0  0  0
 61 62  2  0  0  0
 62 63  1  0  0  0
 63 64  2  0  0  0
  1  2  1  0  0  0
  2  3  1  0  0  0
  3  4  2  0  0  0
  3  6  1  0  0  0
  6  7  1  0  0  0
  7  8  1  0  0  0
  8  9  1  0  0  0
  9 10  1  0  0  0
 10 11  1  0  0  0
 11 12  2  0  0  0
 11 13  1  0  0  0
 13 14  1  0  0  0
 13 17  1  0  0  0
 17 18  1  0  0  0
 18 19  2  0  0  0
 19 20  1  0  0  0
 20 21  2  0  0  0
 21 22  1  0  0  0
 21 23  1  0  0  0
 23 24  2  0  0  0
 30 31  1  0  0  0
 31 32  2  0  0  0
 31 33  1  0  0  0
 33 35  1  0  0  0
 35 40  1  0  0  0
 40 41  1  0  0  0
 41 42  2  0  0  0
 42 43  1  0  0  0
 43 44  1  0  0  0
 44 45  2  0  0  0
 45 46  1  0  0  0
 46 47  2  0  0  0
 47 48  1  0  0  0
 48 49  2  0  0  0
 35 36  1  0  0  0
 36 37  1  0  0  0
 36 38  2  0  0  0
 64 56  1  0  0  0
 10  6  1  0  0  0
 24 18  1  0  0  0
 49 41  1  0  0  0
 64 59  1  0  0  0
 49 44  1  0  0  0
 26 29  1  0  0  0
 58 65  1  0  0  0
  2  5  1  0  0  0
 14 15  1  0  0  0
 14 16  1  0  0  0
 22 25  1  0  0  0
 33 34  1  0  0  0
 43 50  1  0  0  0
 37 39  1  0  0  0
M  END
> <minimizedAffinity>
-9.43582

> <CNNscore>
0.1341197342

> <CNNaffinity>
7.5088996887

> <CNN_VS>
1.0070916414

> <CNNaffinity_variance>
0.7566460371

$$$$
[H]OC(=O)[C@@]([H])(N([H])C(=O)[C@@]([H])(N([H])C(=O)[C@@]([H])(N([H])C(=O)[C@@]1([H])N(C(=O)[C@@]([H])(N([H])[H])C([H])([H])c2c([H])c([H])c(O[H])c([H])c2[H])C([H])([H])C([H])([H])C1([H])[H])C([H])([H])c1c([H])n([H])c2c([H])c([H])c([H])c([H])c12)C([H])([H])C([H])(C([H])([H])[H])C([H])([H])[H])C([H])([H])c1c([H])n([H])c2c([H])c([H])c([H])c([H])c12


 65 70  0  0  0  0  0  0  0  0999 V2000
  -87.8973   31.1751   -1.5363 C   0  0  0  0  0  0  0  0  0  0  0  0
  -87.9273   31.6003   -2.7833 N   0  0  0  0  0  0  0  0  0  0  0  0
  -87.9618   32.0342   -4.1424 C   0  0  0  0  0  0  0  0  0  0  0  0
  -88.0462   31.2717   -5.0985 O   0  0  0  0  0  0  0  0  0  0  0  0
  -88.1952   30.3458   -3.2587 H   0  0  0  0  0  0  0  0  0  0  0  0
  -87.8934   33.5039   -4.5060 C   0  0  0  0  0  0  0  0  0  0  0  0
  -86.9725   34.1590   -3.4950 C   0  0  0  0  0  0  0  0  0  0  0  0
  -87.6106   35.5713   -3.4327 C   0  0  0  0  0  0  0  0  0  0  0  0
  -89.0858   35.1921   -3.3586 C   0  0  0  0  0  0  0  0  0  0  0  0
  -89.1686   34.1224   -4.3020 N   0  0  0  0  0  0  0  0  0  0  0  0
  -90.3622   33.7093   -4.9760 C   0  0  0  0  0  0  0  0  0  0  0  0
  -90.3126   32.7300   -5.8063 O   0  0  0  0  0  0  0  0  0  0  0  0
  -91.6881   34.3105   -4.8083 C   0  0  0  0  0  0  0  0  0  0  0  0
  -91.5911   35.5831   -4.0536 N   0  0  0  0  0  0  0  0  0  0  0  0
  -90.8503   36.1933   -4.4398 H   0  0  0  0  0  0  0  0  0  0  0  0
  -91.6073   35.4545   -3.0431 H   0  0  0  0  0  0  0  0  0  0  0  0
  -92.3931   34.6504   -6.0914 C   0  0  0  0  0  0  0  0  0  0  0  0
  -93.5891   33.7563   -6.2658 C   0  0  0  0  0  0  0  0  0  0  0  0
  -93.5291   32.6642   -7.0968 C   0  0  0  0  0  0  0  0  0  0  0  0
  -94.6472   31.8445   -7.2040 C   0  0  0  0  0  0  0  0  0  0  0  0
  -95.8088   32.1195   -6.4865 C   0  0  0  0  0  0  0  0  0  0  0  0
  -96.9130   31.2867   -6.6078 O   0  0  0  0  0  0  0  0  0  0  0  0
  -95.8361   33.2210   -5.6658 C   0  0  0  0  0  0  0  0  0  0  0  0
  -94.7180   34.0490   -5.5526 C   0  0  0  0  0  0  0  0  0  0  0  0
  -96.9521   30.5127   -5.9382 H   0  0  0  0  0  0  0  0  0  0  0  0
  -90.1075   29.8352   -1.9095 N   0  0  0  0  0  0  0  0  0  0  0  0
  -89.1907   30.5160   -1.1128 C   0  0  0  0  0  0  0  0  0  0  0  0
  -89.4791   30.6004    0.1432 O   0  0  0  0  0  0  0  0  0  0  0  0
  -89.8602   29.7386   -2.9401 H   0  0  0  0  0  0  0  0  0  0  0  0
  -91.3328   29.2713   -1.4220 C   0  0  0  0  0  0  0  0  0  0  0  0
  -91.2343   27.7705   -1.3244 C   0  0  0  0  0  0  0  0  0  0  0  0
  -90.4838   27.1111   -2.0895 O   0  0  0  0  0  0  0  0  0  0  0  0
  -91.9667   27.0102   -0.3749 N   0  0  0  0  0  0  0  0  0  0  0  0
  -92.6149   27.4777    0.2711 H   0  0  0  0  0  0  0  0  0  0  0  0
  -91.8212   25.5682   -0.3003 C   0  0  0  0  0  0  0  0  0  0  0  0
  -93.0845   24.9390   -0.7041 C   0  0  0  0  0  0  0  0  0  0  0  0
  -94.1988   25.7601   -0.9803 O   0  0  0  0  0  0  0  0  0  0  0  0
  -93.2760   23.7054   -0.8292 O   0  0  0  0  0  0  0  0  0  0  0  0
  -95.0108   25.4402   -1.4505 H   0  0  0  0  0  0  0  0  0  0  0  0
  -91.3921   25.1324    1.0609 C   0  0  0  0  0  0  0  0  0  0  0  0
  -90.4600   26.0457    1.7430 C   0  0  0  0  0  0  0  0  0  0  0  0
  -90.6990   26.8673    2.8256 C   0  0  0  0  0  0  0  0  0  0  0  0
  -89.6014   27.5671    3.1301 N   0  0  0  0  0  0  0  0  0  0  0  0
  -88.6116   27.2223    2.2560 C   0  0  0  0  0  0  0  0  0  0  0  0
  -87.3163   27.6532    2.1538 C   0  0  0  0  0  0  0  0  0  0  0  0
  -86.5024   27.1168    1.1421 C   0  0  0  0  0  0  0  0  0  0  0  0
  -87.0061   26.1725    0.2709 C   0  0  0  0  0  0  0  0  0  0  0  0
  -88.3135   25.7676    0.4079 C   0  0  0  0  0  0  0  0  0  0  0  0
  -89.1343   26.2833    1.3978 C   0  0  0  0  0  0  0  0  0  0  0  0
  -89.5430   28.2592    3.9165 H   0  0  0  0  0  0  0  0  0  0  0  0
  -92.5116   29.6636   -2.1935 C   0  0  0  0  0  0  0  0  0  0  0  0
  -93.6003   31.5663   -3.2016 C   0  0  0  0  0  0  0  0  0  0  0  0
  -92.3580   30.6466   -3.2939 C   0  0  0  0  0  0  0  0  0  0  0  0
  -92.3537   30.1187   -4.6869 C   0  0  0  0  0  0  0  0  0  0  0  0
  -87.3536   32.0763   -0.4619 C   0  0  0  0  0  0  0  0  0  0  0  0
  -85.9439   32.3381   -0.4078 C   0  0  0  0  0  0  0  0  0  0  0  0
  -85.1821   33.3151   -0.9793 C   0  0  0  0  0  0  0  0  0  0  0  0
  -83.8841   33.1474   -0.6686 N   0  0  0  0  0  0  0  0  0  0  0  0
  -83.7757   32.0658    0.1074 C   0  0  0  0  0  0  0  0  0  0  0  0
  -82.6632   31.4976    0.6747 C   0  0  0  0  0  0  0  0  0  0  0  0
  -82.7927   30.3663    1.4494 C   0  0  0  0  0  0  0  0  0  0  0  0
  -84.0343   29.8129    1.6513 C   0  0  0  0  0  0  0  0  0  0  0  0
  -85.1524   30.3983    1.0712 C   0  0  0  0  0  0  0  0  0  0  0  0
  -85.0423   31.5450    0.2832 C   0  0  0  0  0  0  0  0  0  0  0  0
  -83.0753   33.7409   -0.9640 H   0  0  0  0  0  0  0  0  0  0  0  0
 52 53  1  0  0  0
 53 54  1  0  0  0
 53 51  1  0  0  0
 51 30  1  0  0  0
 30 26  1  0  0  0
 26 27  1  0  0  0
 27 28  2  0  0  0
 27  1  1  0  0  0
  1 55  1  0  0  0
 55 56  1  0  0  0
 56 57  2  0  0  0
 57 58  1  0  0  0
 58 59  1  0  0  0
 59 60  2  0  0  0
 60 61  1  0  0  0
 61 62  2  0  0  0
 62 63  1  0  0  0
 63 64  2  0  0  0
  1  2  1  0  0  0
  2  3  1  0  0  0
  3  4  2  0  0  0
  3  6  1  0  0  0
  6  7  1  0  0  0
  7  8  1  0  0  0
  8  9  1  0  0  0
  9 10  1  0  0  0
 10 11  1  0  0  0
 11 12  2  0  0  0
 11 13  1  0  0  0
 13 14  1  0  0  0
 13 17  1  0  0  0
 17 18  1  0  0  0
 18 19  2  0  0  0
 19 20  1  0  0  0
 20 21  2  0  0  0
 21 22  1  0  0  0
 21 23  1  0  0  0
 23 24  2  0  0  0
 30 31  1  0  0  0
 31 32  2  0  0  0
 31 33  1  0  0  0
 33 35  1  0  0  0
 35 40  1  0  0  0
 40 41  1  0  0  0
 41 42  2  0  0  0
 42 43  1  0  0  0
 43 44  1  0  0  0
 44 45  2  0  0  0
 45 46  1  0  0  0
 46 47  2  0  0  0
 47 48  1  0  0  0
 48 49  2  0  0  0
 35 36  1  0  0  0
 36 37  1  0  0  0
 36 38  2  0  0  0
 64 56  1  0  0  0
 10  6  1  0  0  0
 24 18  1  0  0  0
 49 41  1  0  0  0
 64 59  1  0  0  0
 49 44  1  0  0  0
 26 29  1  0  0  0
 58 65  1  0  0  0
  2  5  1  0  0  0
 14 15  1  0  0  0
 14 16  1  0  0  0
 22 25  1  0  0  0
 33 34  1  0  0  0
 43 50  1  0  0  0
 37 39  1  0  0  0
M  END
> <minimizedAffinity>
-9.26287

> <CNNscore>
0.1224361807

> <CNNaffinity>
7.3914504051

> <CNN_VS>
0.9049809575

> <CNNaffinity_variance>
0.7719379067

$$$$
[H]O[C@@]1([H])[C@]([H])(O[H])[C@@]([H])(C([H])([H])OP(=O)(O[H])OP(=O)(O[H])O[H])O[C@@]1([H])n1c([H])nc2c(N([H])[H])nc([H])nc21


 34 36  0  0  0  0  0  0  0  0999 V2000
  -87.5285   29.8920    0.0875 C   0  0  0  0  0  0  0  0  0  0  0  0
  -87.8679   28.6858    0.7423 O   0  0  0  0  0  0  0  0  0  0  0  0
  -89.1559   28.4665    0.3149 C   0  0  0  0  0  0  0  0  0  0  0  0
  -89.2434   28.8832   -1.1308 C   0  0  0  0  0  0  0  0  0  0  0  0
  -90.1695   29.9237   -1.2296 O   0  0  0  0  0  0  0  0  0  0  0  0
  -87.8671   29.5274   -1.3435 C   0  0  0  0  0  0  0  0  0  0  0  0
  -86.9806   28.5456   -1.8047 O   0  0  0  0  0  0  0  0  0  0  0  0
  -90.4308   30.2528   -0.3207 H   0  0  0  0  0  0  0  0  0  0  0  0
  -86.7508   27.9233   -1.0706 H   0  0  0  0  0  0  0  0  0  0  0  0
  -81.9619   32.2416    0.3501 N   0  0  0  0  0  0  0  0  0  0  0  0
  -83.3237   32.2981   -0.0171 C   0  0  0  0  0  0  0  0  0  0  0  0
  -83.7678   33.3939   -0.6543 N   0  0  0  0  0  0  0  0  0  0  0  0
  -85.0465   33.4721   -1.0114 C   0  0  0  0  0  0  0  0  0  0  0  0
  -85.9028   32.4790   -0.7484 N   0  0  0  0  0  0  0  0  0  0  0  0
  -85.5430   31.3486   -0.1158 C   0  0  0  0  0  0  0  0  0  0  0  0
  -86.1551   30.2295    0.2685 N   0  0  0  0  0  0  0  0  0  0  0  0
  -85.2468   29.4442    0.8725 C   0  0  0  0  0  0  0  0  0  0  0  0
  -84.0602   30.0748    0.8663 N   0  0  0  0  0  0  0  0  0  0  0  0
  -84.2017   31.2700    0.2571 C   0  0  0  0  0  0  0  0  0  0  0  0
  -81.6581   32.6261    1.2602 H   0  0  0  0  0  0  0  0  0  0  0  0
  -81.2790   31.8151   -0.2960 H   0  0  0  0  0  0  0  0  0  0  0  0
  -89.5770   27.0229    0.4012 C   0  0  0  0  0  0  0  0  0  0  0  0
  -90.4791   26.8917    1.4558 O   0  0  0  0  0  0  0  0  0  0  0  0
  -89.6855   26.6434    2.9261 P   0  0  0  0  0  0  0  0  0  0  0  0
  -88.1698   25.9388    2.6840 O   0  0  0  0  0  0  0  0  0  0  0  0
  -89.5118   27.9683    3.6372 O   0  0  0  0  0  0  0  0  0  0  0  0
  -88.1601   25.3190    1.9110 H   0  0  0  0  0  0  0  0  0  0  0  0
  -90.5901   25.6298    3.9436 O   0  0  0  0  0  0  0  0  0  0  0  0
  -90.3922   24.0144    3.5110 P   0  0  0  0  0  0  0  0  0  0  0  0
  -90.1088   23.8839    1.8505 O   0  0  0  0  0  0  0  0  0  0  0  0
  -89.0823   23.3017    4.3136 O   0  0  0  0  0  0  0  0  0  0  0  0
  -91.6688   23.2189    3.7954 O   0  0  0  0  0  0  0  0  0  0  0  0
  -89.1896   23.6241    1.6354 H   0  0  0  0  0  0  0  0  0  0  0  0
  -89.4513   22.6883    4.9884 H   0  0  0  0  0  0  0  0  0  0  0  0
 10 11  1  0  0  0
 11 12  2  0  0  0
 12 13  1  0  0  0
 13 14  2  0  0  0
 14 15  1  0  0  0
 15 16  1  0  0  0
 16 17  1  0  0  0
 17 18  2  0  0  0
 18 19  1  0  0  0
 16  1  1  0  0  0
  1  2  1  0  0  0
  2  3  1  0  0  0
  3 22  1  0  0  0
 22 23  1  0  0  0
 23 24  1  0  0  0
 24 25  1  0  0  0
 24 26  2  0  0  0
 24 28  1  0  0  0
 28 29  1  0  0  0
 29 30  1  0  0  0
 29 31  1  0  0  0
 29 32  2  0  0  0
  3  4  1  0  0  0
  4  5  1  0  0  0
  4  6  1  0  0  0
  6  7  1  0  0  0
 19 11  1  0  0  0
  6  1  1  0  0  0
 19 15  2  0  0  0
 10 20  1  0  0  0
 10 21  1  0  0  0
 25 27  1  0  0  0
 30 33  1  0  0  0
 31 34  1  0  0  0
  5  8  1  0  0  0
  7  9  1  0  0  0
M  END
> <minimizedAffinity>
-8.20469

> <CNNscore>
0.8637619019

> <CNNaffinity>
5.4543180466

> <CNN_VS>
4.7112321854

> <CNNaffinity_variance>
0.2595390379

$$$$
[H]O[C@@]1([H])[C@]([H])(O[H])[C@@]([H])(C([H])([H])OP(=O)(O[H])OP(=O)(O[H])O[H])O[C@@]1([H])n1c([H])nc2c(N([H])[H])nc([H])nc21


 34 36  0  0  0  0  0  0  0  0999 V2000
  -87.4792   29.1704    0.9813 C   0  0  0  0  0  0  0  0  0  0  0  0
  -87.4741   28.0981    1.9027 O   0  0  0  0  0  0  0  0  0  0  0  0
  -88.7428   27.5855    1.7709 C   0  0  0  0  0  0  0  0  0  0  0  0
  -89.1239   27.6560    0.3146 C   0  0  0  0  0  0  0  0  0  0  0  0
  -90.2405   28.4861    0.1956 O   0  0  0  0  0  0  0  0  0  0  0  0
  -87.9481   28.4518   -0.2674 C   0  0  0  0  0  0  0  0  0  0  0  0
  -86.9643   27.5493   -0.6921 O   0  0  0  0  0  0  0  0  0  0  0  0
  -90.4237   28.9594    1.0588 H   0  0  0  0  0  0  0  0  0  0  0  0
  -86.5105   27.1482    0.0902 H   0  0  0  0  0  0  0  0  0  0  0  0
  -82.5298   32.4762   -0.0919 N   0  0  0  0  0  0  0  0  0  0  0  0
  -83.9246   32.2654   -0.1442 C   0  0  0  0  0  0  0  0  0  0  0  0
  -84.6935   33.2169   -0.6987 N   0  0  0  0  0  0  0  0  0  0  0  0
  -86.0105   33.0427   -0.7605 C   0  0  0  0  0  0  0  0  0  0  0  0
  -86.5877   31.9359   -0.2802 N   0  0  0  0  0  0  0  0  0  0  0  0
  -85.8941   30.9353    0.2899 C   0  0  0  0  0  0  0  0  0  0  0  0
  -86.1875   29.7567    0.8372 N   0  0  0  0  0  0  0  0  0  0  0  0
  -85.0394   29.1894    1.2451 C   0  0  0  0  0  0  0  0  0  0  0  0
  -84.0220   30.0169    0.9517 N   0  0  0  0  0  0  0  0  0  0  0  0
  -84.5136   31.1213    0.3530 C   0  0  0  0  0  0  0  0  0  0  0  0
  -82.1145   32.9731    0.7138 H   0  0  0  0  0  0  0  0  0  0  0  0
  -81.9349   32.1311   -0.8617 H   0  0  0  0  0  0  0  0  0  0  0  0
  -88.8545   26.1472    2.2039 C   0  0  0  0  0  0  0  0  0  0  0  0
  -90.2063   25.8126    2.2686 O   0  0  0  0  0  0  0  0  0  0  0  0
  -90.5483   24.8643    3.6239 P   0  0  0  0  0  0  0  0  0  0  0  0
  -89.1628   24.0677    4.1702 O   0  0  0  0  0  0  0  0  0  0  0  0
  -91.0886   25.7422    4.7323 O   0  0  0  0  0  0  0  0  0  0  0  0
  -88.5536   23.8179    3.4297 H   0  0  0  0  0  0  0  0  0  0  0  0
  -91.7306   23.6989    3.2700 O   0  0  0  0  0  0  0  0  0  0  0  0
  -91.4929   23.0505    1.7342 P   0  0  0  0  0  0  0  0  0  0  0  0
  -89.8472   23.0388    1.3523 O   0  0  0  0  0  0  0  0  0  0  0  0
  -92.0567   21.4571    1.6274 O   0  0  0  0  0  0  0  0  0  0  0  0
  -92.1771   23.9142    0.6715 O   0  0  0  0  0  0  0  0  0  0  0  0
  -89.4606   22.1393    1.3397 H   0  0  0  0  0  0  0  0  0  0  0  0
  -92.8780   21.4731    1.0861 H   0  0  0  0  0  0  0  0  0  0  0  0
 10 11  1  0  0  0
 11 12  2  0  0  0
 12 13  1  0  0  0
 13 14  2  0  0  0
 14 15  1  0  0  0
 15 16  1  0  0  0
 16 17  1  0  0  0
 17 18  2  0  0  0
 18 19  1  0  0  0
 16  1  1  0  0  0
  1  2  1  0  0  0
  2  3  1  0  0  0
  3 22  1  0  0  0
 22 23  1  0  0  0
 23 24  1  0  0  0
 24 25  1  0  0  0
 24 26  2  0  0  0
 24 28  1  0  0  0
 28 29  1  0  0  0
 29 30  1  0  0  0
 29 31  1  0  0  0
 29 32  2  0  0  0
  3  4  1  0  0  0
  4  5  1  0  0  0
  4  6  1  0  0  0
  6  7  1  0  0  0
 19 11  1  0  0  0
  6  1  1  0  0  0
 19 15  2  0  0  0
 10 20  1  0  0  0
 10 21  1  0  0  0
 25 27  1  0  0  0
 30 33  1  0  0  0
 31 34  1  0  0  0
  5  8  1  0  0  0
  7  9  1  0  0  0
M  END
> <minimizedAffinity>
-7.86174

> <CNNscore>
0.7294222116

> <CNNaffinity>
5.4086241722

> <CNN_VS>
3.9451706409

> <CNNaffinity_variance>
0.2984994054

$$$$
[H]O[C@@]1([H])[C@]([H])(O[H])[C@@]([H])(C([H])([H])OP(=O)(O[H])OP(=O)(O[H])O[H])O[C@@]1([H])n1c([H])nc2c(N([H])[H])nc([H])nc21


 34 36  0  0  0  0  0  0  0  0999 V2000
  -87.8528   30.2653   -0.1275 C   0  0  0  0  0  0  0  0  0  0  0  0
  -88.3152   29.0203    0.3573 O   0  0  0  0  0  0  0  0  0  0  0  0
  -89.5952   28.9631   -0.1408 C   0  0  0  0  0  0  0  0  0  0  0  0
  -89.5829   29.5598   -1.5246 C   0  0  0  0  0  0  0  0  0  0  0  0
  -90.4194   30.6781   -1.5248 O   0  0  0  0  0  0  0  0  0  0  0  0
  -88.1521   30.1085   -1.6044 C   0  0  0  0  0  0  0  0  0  0  0  0
  -87.3245   29.1204   -2.1533 O   0  0  0  0  0  0  0  0  0  0  0  0
  -90.6960   30.9137   -0.5918 H   0  0  0  0  0  0  0  0  0  0  0  0
  -87.1782   28.3958   -1.4957 H   0  0  0  0  0  0  0  0  0  0  0  0
  -82.1029   32.0340    0.4957 N   0  0  0  0  0  0  0  0  0  0  0  0
  -83.4238   32.2245    0.0357 C   0  0  0  0  0  0  0  0  0  0  0  0
  -83.7083   33.3503   -0.6395 N   0  0  0  0  0  0  0  0  0  0  0  0
  -84.9450   33.5541   -1.0838 C   0  0  0  0  0  0  0  0  0  0  0  0
  -85.9154   32.6584   -0.8718 N   0  0  0  0  0  0  0  0  0  0  0  0
  -85.7178   31.5068   -0.2067 C   0  0  0  0  0  0  0  0  0  0  0  0
  -86.4670   30.4625    0.1442 N   0  0  0  0  0  0  0  0  0  0  0  0
  -85.6876   29.5975    0.8154 C   0  0  0  0  0  0  0  0  0  0  0  0
  -84.4443   30.1025    0.8851 N   0  0  0  0  0  0  0  0  0  0  0  0
  -84.4200   31.2965    0.2577 C   0  0  0  0  0  0  0  0  0  0  0  0
  -81.8228   32.3992    1.4211 H   0  0  0  0  0  0  0  0  0  0  0  0
  -81.4261   31.5298   -0.0987 H   0  0  0  0  0  0  0  0  0  0  0  0
  -90.1312   27.5599   -0.2525 C   0  0  0  0  0  0  0  0  0  0  0  0
  -90.7964   27.2491    0.9325 O   0  0  0  0  0  0  0  0  0  0  0  0
  -89.8919   26.1975    1.8964 P   0  0  0  0  0  0  0  0  0  0  0  0
  -90.8412   24.9134    2.4464 O   0  0  0  0  0  0  0  0  0  0  0  0
  -88.7293   25.6511    1.0958 O   0  0  0  0  0  0  0  0  0  0  0  0
  -91.7814   25.1807    2.6088 H   0  0  0  0  0  0  0  0  0  0  0  0
  -89.2515   27.0050    3.2450 O   0  0  0  0  0  0  0  0  0  0  0  0
  -90.4818   27.5542    4.2553 P   0  0  0  0  0  0  0  0  0  0  0  0
  -91.5282   28.5710    3.4036 O   0  0  0  0  0  0  0  0  0  0  0  0
  -91.4019   26.2776    4.8813 O   0  0  0  0  0  0  0  0  0  0  0  0
  -89.9064   28.3889    5.4023 O   0  0  0  0  0  0  0  0  0  0  0  0
  -92.4064   28.1705    3.2394 H   0  0  0  0  0  0  0  0  0  0  0  0
  -91.1689   26.1882    5.8329 H   0  0  0  0  0  0  0  0  0  0  0  0
 10 11  1  0  0  0
 11 12  2  0  0  0
 12 13  1  0  0  0
 13 14  2  0  0  0
 14 15  1  0  0  0
 15 16  1  0  0  0
 16 17  1  0  0  0
 17 18  2  0  0  0
 18 19  1  0  0  0
 16  1  1  0  0  0
  1  2  1  0  0  0
  2  3  1  0  0  0
  3 22  1  0  0  0
 22 23  1  0  0  0
 23 24  1  0  0  0
 24 25  1  0  0  0
 24 26  2  0  0  0
 24 28  1  0  0  0
 28 29  1  0  0  0
 29 30  1  0  0  0
 29 31  1  0  0  0
 29 32  2  0  0  0
  3  4  1  0  0  0
  4  5  1  0  0  0
  4  6  1  0  0  0
  6  7  1  0  0  0
 19 11  1  0  0  0
  6  1  1  0  0  0
 19 15  2  0  0  0
 10 20  1  0  0  0
 10 21  1  0  0  0
 25 27  1  0  0  0
 30 33  1  0  0  0
 31 34  1  0  0  0
  5  8  1  0  0  0
  7  9  1  0  0  0
M  END
> <minimizedAffinity>
-8.27259

> <CNNscore>
0.6897827387

> <CNNaffinity>
5.2796292305

> <CNN_VS>
3.6417970657

> <CNNaffinity_variance>
0.3578884602

$$$$
[H]O[C@@]1([H])[C@]([H])(O[H])[C@@]([H])(C([H])([H])OP(=O)(O[H])OP(=O)(O[H])O[H])O[C@@]1([H])n1c([H])nc2c(N([H])[H])nc([H])nc21


 34 36  0  0  0  0  0  0  0  0999 V2000
  -87.9646   30.3770   -0.3178 C   0  0  0  0  0  0  0  0  0  0  0  0
  -88.5763   29.3129    0.3837 O   0  0  0  0  0  0  0  0  0  0  0  0
  -89.8042   29.2196   -0.2274 C   0  0  0  0  0  0  0  0  0  0  0  0
  -89.6107   29.4710   -1.7007 C   0  0  0  0  0  0  0  0  0  0  0  0
  -90.3437   30.6074   -2.0491 O   0  0  0  0  0  0  0  0  0  0  0  0
  -88.1367   29.8952   -1.7439 C   0  0  0  0  0  0  0  0  0  0  0  0
  -87.3499   28.7559   -1.9572 O   0  0  0  0  0  0  0  0  0  0  0  0
  -90.6851   31.0733   -1.2312 H   0  0  0  0  0  0  0  0  0  0  0  0
  -87.3290   28.1993   -1.1395 H   0  0  0  0  0  0  0  0  0  0  0  0
  -82.2252   32.0028    0.6791 N   0  0  0  0  0  0  0  0  0  0  0  0
  -83.4989   32.2095    0.1066 C   0  0  0  0  0  0  0  0  0  0  0  0
  -83.6917   33.3086   -0.6411 N   0  0  0  0  0  0  0  0  0  0  0  0
  -84.8823   33.5268   -1.1918 C   0  0  0  0  0  0  0  0  0  0  0  0
  -85.8957   32.6719   -1.0163 N   0  0  0  0  0  0  0  0  0  0  0  0
  -85.7896   31.5492   -0.2843 C   0  0  0  0  0  0  0  0  0  0  0  0
  -86.5986   30.5462    0.0541 N   0  0  0  0  0  0  0  0  0  0  0  0
  -85.9036   29.6925    0.8252 C   0  0  0  0  0  0  0  0  0  0  0  0
  -84.6533   30.1633    0.9702 N   0  0  0  0  0  0  0  0  0  0  0  0
  -84.5399   31.3236    0.2916 C   0  0  0  0  0  0  0  0  0  0  0  0
  -82.0064   32.4047    1.6058 H   0  0  0  0  0  0  0  0  0  0  0  0
  -81.5212   31.4500    0.1649 H   0  0  0  0  0  0  0  0  0  0  0  0
  -90.4467   27.8658   -0.0749 C   0  0  0  0  0  0  0  0  0  0  0  0
  -89.5859   26.9091   -0.6107 O   0  0  0  0  0  0  0  0  0  0  0  0
  -89.2653   25.6722    0.4940 P   0  0  0  0  0  0  0  0  0  0  0  0
  -87.7169   25.0391    0.2607 O   0  0  0  0  0  0  0  0  0  0  0  0
  -89.3763   26.2118    1.9038 O   0  0  0  0  0  0  0  0  0  0  0  0
  -87.4448   25.0470   -0.6920 H   0  0  0  0  0  0  0  0  0  0  0  0
  -90.3885   24.4092    0.3381 O   0  0  0  0  0  0  0  0  0  0  0  0
  -89.9016   23.3164   -0.8470 P   0  0  0  0  0  0  0  0  0  0  0  0
  -89.1315   24.1296   -2.1120 O   0  0  0  0  0  0  0  0  0  0  0  0
  -88.8167   22.1671   -0.2388 O   0  0  0  0  0  0  0  0  0  0  0  0
  -91.1133   22.6106   -1.4612 O   0  0  0  0  0  0  0  0  0  0  0  0
  -88.1675   23.9622   -2.1477 H   0  0  0  0  0  0  0  0  0  0  0  0
  -89.2999   21.3124   -0.1772 H   0  0  0  0  0  0  0  0  0  0  0  0
 10 11  1  0  0  0
 11 12  2  0  0  0
 12 13  1  0  0  0
 13 14  2  0  0  0
 14 15  1  0  0  0
 15 16  1  0  0  0
 16 17  1  0  0  0
 17 18  2  0  0  0
 18 19  1  0  0  0
 16  1  1  0  0  0
  1  2  1  0  0  0
  2  3  1  0  0  0
  3 22  1  0  0  0
 22 23  1  0  0  0
 23 24  1  0  0  0
 24 25  1  0  0  0
 24 26  2  0  0  0
 24 28  1  0  0  0
 28 29  1  0  0  0
 29 30  1  0  0  0
 29 31  1  0  0  0
 29 32  2  0  0  0
  3  4  1  0  0  0
  4  5  1  0  0  0
  4  6  1  0  0  0
  6  7  1  0  0  0
 19 11  1  0  0  0
  6  1  1  0  0  0
 19 15  2  0  0  0
 10 20  1  0  0  0
 10 21  1  0  0  0
 25 27  1  0  0  0
 30 33  1  0  0  0
 31 34  1  0  0  0
  5  8  1  0  0  0
  7  9  1  0  0  0
M  END
> <minimizedAffinity>
-8.03269

> <CNNscore>
0.6801828146

> <CNNaffinity>
5.2788000107

> <CNN_VS>
3.5905489922

> <CNNaffinity_variance>
0.3415109515

$$$$
[H]O[C@@]1([H])[C@]([H])(O[H])[C@@]([H])(C([H])([H])OP(=O)(O[H])OP(=O)(O[H])O[H])O[C@@]1([H])n1c([H])nc2c(N([H])[H])nc([H])nc21


 34 36  0  0  0  0  0  0  0  0999 V2000
  -87.5030   29.4570    0.2032 C   0  0  0  0  0  0  0  0  0  0  0  0
  -87.6050   28.1947    0.8316 O   0  0  0  0  0  0  0  0  0  0  0  0
  -88.8733   27.7917    0.4872 C   0  0  0  0  0  0  0  0  0  0  0  0
  -89.1320   28.2311   -0.9309 C   0  0  0  0  0  0  0  0  0  0  0  0
  -90.2101   29.1187   -0.9228 O   0  0  0  0  0  0  0  0  0  0  0  0
  -87.8895   29.0858   -1.2139 C   0  0  0  0  0  0  0  0  0  0  0  0
  -86.9016   28.2661   -1.7750 O   0  0  0  0  0  0  0  0  0  0  0  0
  -90.4489   29.3773    0.0146 H   0  0  0  0  0  0  0  0  0  0  0  0
  -86.5252   27.6660   -1.0843 H   0  0  0  0  0  0  0  0  0  0  0  0
  -82.3488   32.6205    0.1469 N   0  0  0  0  0  0  0  0  0  0  0  0
  -83.7252   32.4734   -0.1295 C   0  0  0  0  0  0  0  0  0  0  0  0
  -84.3713   33.4951   -0.7151 N   0  0  0  0  0  0  0  0  0  0  0  0
  -85.6683   33.3819   -0.9863 C   0  0  0  0  0  0  0  0  0  0  0  0
  -86.3456   32.2681   -0.6872 N   0  0  0  0  0  0  0  0  0  0  0  0
  -85.7777   31.1996   -0.1013 C   0  0  0  0  0  0  0  0  0  0  0  0
  -86.1870   29.9971    0.3006 N   0  0  0  0  0  0  0  0  0  0  0  0
  -85.1322   29.3531    0.8287 C   0  0  0  0  0  0  0  0  0  0  0  0
  -84.0572   30.1562    0.7572 N   0  0  0  0  0  0  0  0  0  0  0  0
  -84.4178   31.3217    0.1817 C   0  0  0  0  0  0  0  0  0  0  0  0
  -82.0457   33.0384    1.0424 H   0  0  0  0  0  0  0  0  0  0  0  0
  -81.6547   32.3084   -0.5506 H   0  0  0  0  0  0  0  0  0  0  0  0
  -89.0627   26.2985    0.5452 C   0  0  0  0  0  0  0  0  0  0  0  0
  -90.3184   26.0367    1.0912 O   0  0  0  0  0  0  0  0  0  0  0  0
  -91.4203   25.5443   -0.0905 P   0  0  0  0  0  0  0  0  0  0  0  0
  -92.3405   26.8492   -0.6409 O   0  0  0  0  0  0  0  0  0  0  0  0
  -90.6725   24.9342   -1.2566 O   0  0  0  0  0  0  0  0  0  0  0  0
  -92.5173   27.5145    0.0718 H   0  0  0  0  0  0  0  0  0  0  0  0
  -92.4772   24.3627    0.5160 O   0  0  0  0  0  0  0  0  0  0  0  0
  -91.6445   23.2351    1.4491 P   0  0  0  0  0  0  0  0  0  0  0  0
  -92.3381   21.7045    1.2746 O   0  0  0  0  0  0  0  0  0  0  0  0
  -90.0175   23.1171    0.9941 O   0  0  0  0  0  0  0  0  0  0  0  0
  -91.7422   23.5869    2.9358 O   0  0  0  0  0  0  0  0  0  0  0  0
  -91.7774   21.0826    0.7671 H   0  0  0  0  0  0  0  0  0  0  0  0
  -89.4840   23.5426    1.7027 H   0  0  0  0  0  0  0  0  0  0  0  0
 10 11  1  0  0  0
 11 12  2  0  0  0
 12 13  1  0  0  0
 13 14  2  0  0  0
 14 15  1  0  0  0
 15 16  1  0  0  0
 16 17  1  0  0  0
 17 18  2  0  0  0
 18 19  1  0  0  0
 16  1  1  0  0  0
  1  2  1  0  0  0
  2  3  1  0  0  0
  3 22  1  0  0  0
 22 23  1  0  0  0
 23 24  1  0  0  0
 24 25  1  0  0  0
 24 26  2  0  0  0
 24 28  1  0  0  0
 28 29  1  0  0  0
 29 30  1  0  0  0
 29 31  1  0  0  0
 29 32  2  0  0  0
  3  4  1  0  0  0
  4  5  1  0  0  0
  4  6  1  0  0  0
  6  7  1  0  0  0
 19 11  1  0  0  0
  6  1  1  0  0  0
 19 15  2  0  0  0
 10 20  1  0  0  0
 10 21  1  0  0  0
 25 27  1  0  0  0
 30 33  1  0  0  0
 31 34  1  0  0  0
  5  8  1  0  0  0
  7  9  1  0  0  0
M  END
> <minimizedAffinity>
-7.40570

> <CNNscore>
0.6610403657

> <CNNaffinity>
5.3888101578

> <CNN_VS>
3.5622210503

> <CNNaffinity_variance>
0.3233318329

$$$$
[H]O[C@@]1([H])[C@]([H])(O[H])[C@@]([H])(C([H])([H])OP(=O)(O[H])OP(=O)(O[H])O[H])O[C@@]1([H])n1c([H])nc2c(N([H])[H])nc([H])nc21


 34 36  0  0  0  0  0  0  0  0999 V2000
  -88.3645   31.9266   -0.9199 C   0  0  0  0  0  0  0  0  0  0  0  0
  -88.7733   30.8035   -0.1647 O   0  0  0  0  0  0  0  0  0  0  0  0
  -90.0332   30.5563   -0.6560 C   0  0  0  0  0  0  0  0  0  0  0  0
  -90.0123   30.8142   -2.1407 C   0  0  0  0  0  0  0  0  0  0  0  0
  -90.9074   31.8502   -2.4160 O   0  0  0  0  0  0  0  0  0  0  0  0
  -88.6114   31.4130   -2.3237 C   0  0  0  0  0  0  0  0  0  0  0  0
  -87.7161   30.3750   -2.6127 O   0  0  0  0  0  0  0  0  0  0  0  0
  -91.2236   32.2797   -1.5686 H   0  0  0  0  0  0  0  0  0  0  0  0
  -87.5504   29.8333   -1.8016 H   0  0  0  0  0  0  0  0  0  0  0  0
  -82.4808   32.3292    0.4206 N   0  0  0  0  0  0  0  0  0  0  0  0
  -83.6930   31.6118    0.3287 C   0  0  0  0  0  0  0  0  0  0  0  0
  -83.7008   30.3215    0.7018 N   0  0  0  0  0  0  0  0  0  0  0  0
  -84.8299   29.6232    0.6251 C   0  0  0  0  0  0  0  0  0  0  0  0
  -85.9623   30.1805    0.1826 N   0  0  0  0  0  0  0  0  0  0  0  0
  -86.0433   31.4637   -0.2104 C   0  0  0  0  0  0  0  0  0  0  0  0
  -87.0000   32.2633   -0.6797 N   0  0  0  0  0  0  0  0  0  0  0  0
  -86.4604   33.4747   -0.8981 C   0  0  0  0  0  0  0  0  0  0  0  0
  -85.1595   33.4334   -0.5639 N   0  0  0  0  0  0  0  0  0  0  0  0
  -84.8575   32.1929   -0.1286 C   0  0  0  0  0  0  0  0  0  0  0  0
  -81.8180   32.3232   -0.3726 H   0  0  0  0  0  0  0  0  0  0  0  0
  -82.2662   32.8552    1.2825 H   0  0  0  0  0  0  0  0  0  0  0  0
  -90.4894   29.1364   -0.4448 C   0  0  0  0  0  0  0  0  0  0  0  0
  -90.8960   28.9993    0.8815 O   0  0  0  0  0  0  0  0  0  0  0  0
  -90.0727   27.7455    1.6583 P   0  0  0  0  0  0  0  0  0  0  0  0
  -90.4504   27.7019    3.3039 O   0  0  0  0  0  0  0  0  0  0  0  0
  -90.4502   26.4237    1.0247 O   0  0  0  0  0  0  0  0  0  0  0  0
  -90.6132   28.6047    3.6785 H   0  0  0  0  0  0  0  0  0  0  0  0
  -88.3927   27.9291    1.4999 O   0  0  0  0  0  0  0  0  0  0  0  0
  -87.6030   26.4628    1.7486 P   0  0  0  0  0  0  0  0  0  0  0  0
  -88.3481   25.6011    2.9963 O   0  0  0  0  0  0  0  0  0  0  0  0
  -87.6296   25.4884    0.3638 O   0  0  0  0  0  0  0  0  0  0  0  0
  -86.1557   26.6969    2.1893 O   0  0  0  0  0  0  0  0  0  0  0  0
  -88.8352   24.8118    2.6825 H   0  0  0  0  0  0  0  0  0  0  0  0
  -86.7201   25.4879   -0.0112 H   0  0  0  0  0  0  0  0  0  0  0  0
 10 11  1  0  0  0
 11 12  2  0  0  0
 12 13  1  0  0  0
 13 14  2  0  0  0
 14 15  1  0  0  0
 15 16  1  0  0  0
 16 17  1  0  0  0
 17 18  2  0  0  0
 18 19  1  0  0  0
 16  1  1  0  0  0
  1  2  1  0  0  0
  2  3  1  0  0  0
  3 22  1  0  0  0
 22 23  1  0  0  0
 23 24  1  0  0  0
 24 25  1  0  0  0
 24 26  2  0  0  0
 24 28  1  0  0  0
 28 29  1  0  0  0
 29 30  1  0  0  0
 29 31  1  0  0  0
 29 32  2  0  0  0
  3  4  1  0  0  0
  4  5  1  0  0  0
  4  6  1  0  0  0
  6  7  1  0  0  0
 19 11  1  0  0  0
  6  1  1  0  0  0
 19 15  2  0  0  0
 10 20  1  0  0  0
 10 21  1  0  0  0
 25 27  1  0  0  0
 30 33  1  0  0  0
 31 34  1  0  0  0
  5  8  1  0  0  0
  7  9  1  0  0  0
M  END
> <minimizedAffinity>
-7.74328

> <CNNscore>
0.5958777666

> <CNNaffinity>
5.1755990982

> <CNN_VS>
3.0840244293

> <CNNaffinity_variance>
0.3827834427

$$$$
[H]O[C@@]1([H])[C@]([H])(O[H])[C@@]([H])(C([H])([H])OP(=O)(O[H])OP(=O)(O[H])O[H])O[C@@]1([H])n1c([H])nc2c(N([H])[H])nc([H])nc21


 34 36  0  0  0  0  0  0  0  0999 V2000
  -87.6161   33.0001   -1.2814 C   0  0  0  0  0  0  0  0  0  0  0  0
  -88.3277   31.9149   -0.7204 O   0  0  0  0  0  0  0  0  0  0  0  0
  -89.5849   32.0754   -1.2529 C   0  0  0  0  0  0  0  0  0  0  0  0
  -89.4304   32.5464   -2.6762 C   0  0  0  0  0  0  0  0  0  0  0  0
  -90.0241   33.8056   -2.7857 O   0  0  0  0  0  0  0  0  0  0  0  0
  -87.9173   32.7901   -2.7512 C   0  0  0  0  0  0  0  0  0  0  0  0
  -87.2972   31.6164   -3.1989 O   0  0  0  0  0  0  0  0  0  0  0  0
  -90.2625   34.1647   -1.8820 H   0  0  0  0  0  0  0  0  0  0  0  0
  -87.3106   30.9314   -2.4851 H   0  0  0  0  0  0  0  0  0  0  0  0
  -81.9894   31.9407    0.6667 N   0  0  0  0  0  0  0  0  0  0  0  0
  -83.3771   31.6818    0.6613 C   0  0  0  0  0  0  0  0  0  0  0  0
  -83.8488   30.7135    1.4636 N   0  0  0  0  0  0  0  0  0  0  0  0
  -85.1522   30.4499    1.4774 C   0  0  0  0  0  0  0  0  0  0  0  0
  -86.0066   31.1311    0.7062 N   0  0  0  0  0  0  0  0  0  0  0  0
  -85.6201   32.1147   -0.1248 C   0  0  0  0  0  0  0  0  0  0  0  0
  -86.2236   32.9374   -0.9814 N   0  0  0  0  0  0  0  0  0  0  0  0
  -85.2848   33.7234   -1.5358 C   0  0  0  0  0  0  0  0  0  0  0  0
  -84.0876   33.3911   -1.0238 N   0  0  0  0  0  0  0  0  0  0  0  0
  -84.2529   32.3884   -0.1367 C   0  0  0  0  0  0  0  0  0  0  0  0
  -81.3654   31.4143    0.0328 H   0  0  0  0  0  0  0  0  0  0  0  0
  -81.6089   32.6559    1.3064 H   0  0  0  0  0  0  0  0  0  0  0  0
  -90.3909   30.8032   -1.2771 C   0  0  0  0  0  0  0  0  0  0  0  0
  -89.5106   29.7249   -1.2014 O   0  0  0  0  0  0  0  0  0  0  0  0
  -90.2202   28.3946   -0.4398 P   0  0  0  0  0  0  0  0  0  0  0  0
  -89.0445   27.3123    0.1069 O   0  0  0  0  0  0  0  0  0  0  0  0
  -91.0484   28.8671    0.7357 O   0  0  0  0  0  0  0  0  0  0  0  0
  -88.2524   27.2824   -0.4877 H   0  0  0  0  0  0  0  0  0  0  0  0
  -91.2574   27.5675   -1.4987 O   0  0  0  0  0  0  0  0  0  0  0  0
  -90.3788   26.7185   -2.6576 P   0  0  0  0  0  0  0  0  0  0  0  0
  -88.9471   27.5377   -3.0226 O   0  0  0  0  0  0  0  0  0  0  0  0
  -89.9612   25.1672   -2.1220 O   0  0  0  0  0  0  0  0  0  0  0  0
  -91.1661   26.6198   -3.9668 O   0  0  0  0  0  0  0  0  0  0  0  0
  -88.1471   27.0857   -2.6844 H   0  0  0  0  0  0  0  0  0  0  0  0
  -90.5205   24.5265   -2.6165 H   0  0  0  0  0  0  0  0  0  0  0  0
 10 11  1  0  0  0
 11 12  2  0  0  0
 12 13  1  0  0  0
 13 14  2  0  0  0
 14 15  1  0  0  0
 15 16  1  0  0  0
 16 17  1  0  0  0
 17 18  2  0  0  0
 18 19  1  0  0  0
 16  1  1  0  0  0
  1  2  1  0  0  0
  2  3  1  0  0  0
  3 22  1  0  0  0
 22 23  1  0  0  0
 23 24  1  0  0  0
 24 25  1  0  0  0
 24 26  2  0  0  0
 24 28  1  0  0  0
 28 29  1  0  0  0
 29 30  1  0  0  0
 29 31  1  0  0  0
 29 32  2  0  0  0
  3  4  1  0  0  0
  4  5  1  0  0  0
  4  6  1  0  0  0
  6  7  1  0  0  0
 19 11  1  0  0  0
  6  1  1  0  0  0
 19 15  2  0  0  0
 10 20  1  0  0  0
 10 21  1  0  0  0
 25 27  1  0  0  0
 30 33  1  0  0  0
 31 34  1  0  0  0
  5  8  1  0  0  0
  7  9  1  0  0  0
M  END
> <minimizedAffinity>
-7.20759

> <CNNscore>
0.5412836075

> <CNNaffinity>
5.1097059250

> <CNN_VS>
2.7657999992

> <CNNaffinity_variance>
0.2607482374

$$$$
[H]O[C@@]1([H])[C@]([H])(O[H])[C@@]([H])(C([H])([H])OP(=O)(O[H])OP(=O)(O[H])O[H])O[C@@]1([H])n1c([H])nc2c(N([H])[H])nc([H])nc21


 34 36  0  0  0  0  0  0  0  0999 V2000
  -87.1684   34.2771   -2.3842 C   0  0  0  0  0  0  0  0  0  0  0  0
  -88.5553   34.5330   -2.4833 O   0  0  0  0  0  0  0  0  0  0  0  0
  -88.6153   35.4644   -3.4926 C   0  0  0  0  0  0  0  0  0  0  0  0
  -87.5861   35.0937   -4.5293 C   0  0  0  0  0  0  0  0  0  0  0  0
  -86.6622   36.1370   -4.6191 O   0  0  0  0  0  0  0  0  0  0  0  0
  -86.8509   33.9441   -3.8276 C   0  0  0  0  0  0  0  0  0  0  0  0
  -87.4675   32.7371   -4.1820 O   0  0  0  0  0  0  0  0  0  0  0  0
  -86.8001   36.7971   -3.8789 H   0  0  0  0  0  0  0  0  0  0  0  0
  -88.3455   32.6592   -3.7327 H   0  0  0  0  0  0  0  0  0  0  0  0
  -84.9516   30.0777    1.3613 N   0  0  0  0  0  0  0  0  0  0  0  0
  -84.8039   31.1996    0.5174 C   0  0  0  0  0  0  0  0  0  0  0  0
  -83.5779   31.7268    0.3656 N   0  0  0  0  0  0  0  0  0  0  0  0
  -83.4115   32.7839   -0.4241 C   0  0  0  0  0  0  0  0  0  0  0  0
  -84.4431   33.3353   -1.0726 N   0  0  0  0  0  0  0  0  0  0  0  0
  -85.7015   32.8718   -0.9774 C   0  0  0  0  0  0  0  0  0  0  0  0
  -86.8862   33.2047   -1.4879 N   0  0  0  0  0  0  0  0  0  0  0  0
  -87.8020   32.3446   -1.0106 C   0  0  0  0  0  0  0  0  0  0  0  0
  -87.1877   31.4688   -0.1973 N   0  0  0  0  0  0  0  0  0  0  0  0
  -85.8722   31.7635   -0.1487 C   0  0  0  0  0  0  0  0  0  0  0  0
  -85.1239   30.2130    2.3715 H   0  0  0  0  0  0  0  0  0  0  0  0
  -84.8859   29.1287    0.9605 H   0  0  0  0  0  0  0  0  0  0  0  0
  -89.9557   35.5182   -4.1777 C   0  0  0  0  0  0  0  0  0  0  0  0
  -89.7642   35.2693   -5.5359 O   0  0  0  0  0  0  0  0  0  0  0  0
  -91.2206   34.9162   -6.3151 P   0  0  0  0  0  0  0  0  0  0  0  0
  -91.9571   36.3241   -6.8879 O   0  0  0  0  0  0  0  0  0  0  0  0
  -90.9591   33.9819   -7.4770 O   0  0  0  0  0  0  0  0  0  0  0  0
  -91.7917   37.1037   -6.2991 H   0  0  0  0  0  0  0  0  0  0  0  0
  -92.3015   34.1370   -5.2636 O   0  0  0  0  0  0  0  0  0  0  0  0
  -91.9573   32.4919   -5.1606 P   0  0  0  0  0  0  0  0  0  0  0  0
  -92.7127   31.6561   -6.4196 O   0  0  0  0  0  0  0  0  0  0  0  0
  -90.2948   32.1868   -5.2657 O   0  0  0  0  0  0  0  0  0  0  0  0
  -92.5102   31.9049   -3.8593 O   0  0  0  0  0  0  0  0  0  0  0  0
  -92.0846   31.3231   -7.0930 H   0  0  0  0  0  0  0  0  0  0  0  0
  -89.9878   31.9268   -4.3680 H   0  0  0  0  0  0  0  0  0  0  0  0
 10 11  1  0  0  0
 11 12  2  0  0  0
 12 13  1  0  0  0
 13 14  2  0  0  0
 14 15  1  0  0  0
 15 16  1  0  0  0
 16 17  1  0  0  0
 17 18  2  0  0  0
 18 19  1  0  0  0
 16  1  1  0  0  0
  1  2  1  0  0  0
  2  3  1  0  0  0
  3 22  1  0  0  0
 22 23  1  0  0  0
 23 24  1  0  0  0
 24 25  1  0  0  0
 24 26  2  0  0  0
 24 28  1  0  0  0
 28 29  1  0  0  0
 29 30  1  0  0  0
 29 31  1  0  0  0
 29 32  2  0  0  0
  3  4  1  0  0  0
  4  5  1  0  0  0
  4  6  1  0  0  0
  6  7  1  0  0  0
 19 11  1  0  0  0
  6  1  1  0  0  0
 19 15  2  0  0  0
 10 20  1  0  0  0
 10 21  1  0  0  0
 25 27  1  0  0  0
 30 33  1  0  0  0
 31 34  1  0  0  0
  5  8  1  0  0  0
  7  9  1  0  0  0
M  END
> <minimizedAffinity>
-6.56059

> <CNNscore>
0.4603259265

> <CNNaffinity>
4.8791913986

> <CNN_VS>
2.2460184097

> <CNNaffinity_variance>
0.0570515022

$$$$
[H]O[C@@]1([H])[C@]([H])(O[H])[C@@]([H])(C([H])([H])OP(=O)(O[H])OP(=O)(O[H])O[H])O[C@@]1([H])n1c([H])nc2c(N([H])[H])nc([H])nc21


 34 36  0  0  0  0  0  0  0  0999 V2000
  -88.2527   31.8351   -1.0470 C   0  0  0  0  0  0  0  0  0  0  0  0
  -89.3182   30.9069   -1.0038 O   0  0  0  0  0  0  0  0  0  0  0  0
  -90.2825   31.5242   -1.7647 C   0  0  0  0  0  0  0  0  0  0  0  0
  -89.5962   32.2121   -2.9167 C   0  0  0  0  0  0  0  0  0  0  0  0
  -89.8425   33.5829   -2.8155 O   0  0  0  0  0  0  0  0  0  0  0  0
  -88.1195   32.0246   -2.5442 C   0  0  0  0  0  0  0  0  0  0  0  0
  -87.6572   30.8401   -3.1324 O   0  0  0  0  0  0  0  0  0  0  0  0
  -90.2674   33.8025   -1.9358 H   0  0  0  0  0  0  0  0  0  0  0  0
  -88.0380   30.0566   -2.6634 H   0  0  0  0  0  0  0  0  0  0  0  0
  -82.7751   30.5558    1.1750 N   0  0  0  0  0  0  0  0  0  0  0  0
  -83.6757   31.3931    0.4818 C   0  0  0  0  0  0  0  0  0  0  0  0
  -83.2195   32.5610    0.0002 N   0  0  0  0  0  0  0  0  0  0  0  0
  -84.0475   33.3680   -0.6568 C   0  0  0  0  0  0  0  0  0  0  0  0
  -85.3298   33.0402   -0.8488 N   0  0  0  0  0  0  0  0  0  0  0  0
  -85.8683   31.8925   -0.4011 C   0  0  0  0  0  0  0  0  0  0  0  0
  -87.0698   31.3183   -0.4414 N   0  0  0  0  0  0  0  0  0  0  0  0
  -86.9895   30.1390    0.1983 C   0  0  0  0  0  0  0  0  0  0  0  0
  -85.7315   29.9740    0.6412 N   0  0  0  0  0  0  0  0  0  0  0  0
  -84.9973   31.0488    0.2872 C   0  0  0  0  0  0  0  0  0  0  0  0
  -82.6435   30.6733    2.1934 H   0  0  0  0  0  0  0  0  0  0  0  0
  -82.2539   29.8312    0.6565 H   0  0  0  0  0  0  0  0  0  0  0  0
  -91.2936   30.5674   -2.3400 C   0  0  0  0  0  0  0  0  0  0  0  0
  -90.6082   29.5617   -3.0198 O   0  0  0  0  0  0  0  0  0  0  0  0
  -91.2620   28.0375   -2.6999 P   0  0  0  0  0  0  0  0  0  0  0  0
  -90.5109   26.8486   -3.6354 O   0  0  0  0  0  0  0  0  0  0  0  0
  -91.0810   27.7069   -1.2339 O   0  0  0  0  0  0  0  0  0  0  0  0
  -90.2393   27.1847   -4.5271 H   0  0  0  0  0  0  0  0  0  0  0  0
  -92.9264   28.0062   -3.0312 O   0  0  0  0  0  0  0  0  0  0  0  0
  -93.2063   27.8895   -4.6876 P   0  0  0  0  0  0  0  0  0  0  0  0
  -92.0743   28.8108   -5.5387 O   0  0  0  0  0  0  0  0  0  0  0  0
  -93.0865   26.2921   -5.2372 O   0  0  0  0  0  0  0  0  0  0  0  0
  -94.5822   28.4580   -5.0442 O   0  0  0  0  0  0  0  0  0  0  0  0
  -91.4248   28.2667   -6.0294 H   0  0  0  0  0  0  0  0  0  0  0  0
  -93.9984   25.9830   -5.4391 H   0  0  0  0  0  0  0  0  0  0  0  0
 10 11  1  0  0  0
 11 12  2  0  0  0
 12 13  1  0  0  0
 13 14  2  0  0  0
 14 15  1  0  0  0
 15 16  1  0  0  0
 16 17  1  0  0  0
 17 18  2  0  0  0
 18 19  1  0  0  0
 16  1  1  0  0  0
  1  2  1  0  0  0
  2  3  1  0  0  0
  3 22  1  0  0  0
 22 23  1  0  0  0
 23 24  1  0  0  0
 24 25  1  0  0  0
 24 26  2  0  0  0
 24 28  1  0  0  0
 28 29  1  0  0  0
 29 30  1  0  0  0
 29 31  1  0  0  0
 29 32  2  0  0  0
  3  4  1  0  0  0
  4  5  1  0  0  0
  4  6  1  0  0  0
  6  7  1  0  0  0
 19 11  1  0  0  0
  6  1  1  0  0  0
 19 15  2  0  0  0
 10 20  1  0  0  0
 10 21  1  0  0  0
 25 27  1  0  0  0
 30 33  1  0  0  0
 31 34  1  0  0  0
  5  8  1  0  0  0
  7  9  1  0  0  0
M  END
> <minimizedAffinity>
-6.59169

> <CNNscore>
0.4440940917

> <CNNaffinity>
4.9523239136

> <CNN_VS>
2.1992979050

> <CNNaffinity_variance>
0.1433460712

$$$$
[H]Oc1c([H])c([H])c([H])c2c3c(Cl)c([H])c([H])c([H])c3n([C@]3([H])O[C@]([H])(C([H])([H])O[H])[C@@]([H])(O[H])[C@]([H])(O[H])[C@@]3([H])O[H])c12


 31 34  0  0  0  0  0  0  0  0999 V2000
  -87.9102   30.5501   -1.0514 N   0  0  0  0  0  0  0  0  0  0  0  0
  -87.9648   31.8044   -1.5846 C   0  0  0  0  0  0  0  0  0  0  0  0
  -88.9351   32.4309   -2.3027 C   0  0  0  0  0  0  0  0  0  0  0  0
  -90.1046   31.7366   -2.5833 O   0  0  0  0  0  0  0  0  0  0  0  0
  -88.7934   33.7387   -2.7621 C   0  0  0  0  0  0  0  0  0  0  0  0
  -87.6302   34.3919   -2.4673 C   0  0  0  0  0  0  0  0  0  0  0  0
  -86.6156   33.8022   -1.7427 C   0  0  0  0  0  0  0  0  0  0  0  0
  -86.7976   32.5014   -1.3055 C   0  0  0  0  0  0  0  0  0  0  0  0
  -86.0002   31.6695   -0.5857 C   0  0  0  0  0  0  0  0  0  0  0  0
  -84.7391   31.8139   -0.0366 C   0  0  0  0  0  0  0  0  0  0  0  0
  -83.8566   33.3163   -0.2202 Cl  0  0  0  0  0  0  0  0  0  0  0  0
  -84.1434   30.7643    0.6756 C   0  0  0  0  0  0  0  0  0  0  0  0
  -84.8443   29.5936    0.8122 C   0  0  0  0  0  0  0  0  0  0  0  0
  -86.1028   29.4693    0.2562 C   0  0  0  0  0  0  0  0  0  0  0  0
  -86.6986   30.5026   -0.4495 C   0  0  0  0  0  0  0  0  0  0  0  0
  -90.8686   32.1567   -3.1190 H   0  0  0  0  0  0  0  0  0  0  0  0
  -90.5419   28.3906   -0.0583 C   0  0  0  0  0  0  0  0  0  0  0  0
  -89.3414   29.0626    0.1605 O   0  0  0  0  0  0  0  0  0  0  0  0
  -88.8665   29.4786   -1.0779 C   0  0  0  0  0  0  0  0  0  0  0  0
  -88.5580   28.3674   -2.0302 C   0  0  0  0  0  0  0  0  0  0  0  0
  -88.0002   28.8859   -3.1887 O   0  0  0  0  0  0  0  0  0  0  0  0
  -89.9020   27.6821   -2.3303 C   0  0  0  0  0  0  0  0  0  0  0  0
  -89.7557   26.6488   -3.2153 O   0  0  0  0  0  0  0  0  0  0  0  0
  -90.3894   27.1952   -0.9583 C   0  0  0  0  0  0  0  0  0  0  0  0
  -91.6283   26.5985   -1.0974 O   0  0  0  0  0  0  0  0  0  0  0  0
  -87.9013   28.1406   -3.8305 H   0  0  0  0  0  0  0  0  0  0  0  0
  -90.1473   26.8977   -4.0984 H   0  0  0  0  0  0  0  0  0  0  0  0
  -91.7280   26.2457   -2.0207 H   0  0  0  0  0  0  0  0  0  0  0  0
  -90.6532   26.6912    1.5705 O   0  0  0  0  0  0  0  0  0  0  0  0
  -91.1002   27.9669    1.2771 C   0  0  0  0  0  0  0  0  0  0  0  0
  -91.3072   26.0599    1.1682 H   0  0  0  0  0  0  0  0  0  0  0  0
 29 30  1  0  0  0
 30 17  1  0  0  0
 17 18  1  0  0  0
 18 19  1  0  0  0
 19 20  1  0  0  0
 20 21  1  0  0  0
 20 22  1  0  0  0
 22 23  1  0  0  0
 22 24  1  0  0  0
 24 25  1  0  0  0
 19  1  1  0  0  0
  1  2  1  0  0  0
  2  3  2  0  0  0
  3  4  1  0  0  0
  3  5  1  0  0  0
  5  6  2  0  0  0
  6  7  1  0  0  0
  7  8  2  0  0  0
  8  9  1  0  0  0
  9 10  2  0  0  0
 10 11  1  0  0  0
 10 12  1  0  0  0
 12 13  2  0  0  0
 13 14  1  0  0  0
 14 15  2  0  0  0
 24 17  1  0  0  0
 15  1  1  0  0  0
  8  2  1  0  0  0
 15  9  1  0  0  0
 29 31  1  0  0  0
 21 26  1  0  0  0
 23 27  1  0  0  0
 25 28  1  0  0  0
  4 16  1  0  0  0
M  END
> <minimizedAffinity>
-9.03663

> <CNNscore>
0.6230639219

> <CNNaffinity>
5.7539548874

> <CNN_VS>
3.5850818157

> <CNNaffinity_variance>
0.0780883804

$$$$
[H]Oc1c([H])c([H])c([H])c2c3c(Cl)c([H])c([H])c([H])c3n([C@]3([H])O[C@]([H])(C([H])([H])O[H])[C@@]([H])(O[H])[C@]([H])(O[H])[C@@]3([H])O[H])c12


 31 34  0  0  0  0  0  0  0  0999 V2000
  -86.7067   28.6024    0.7723 N   0  0  0  0  0  0  0  0  0  0  0  0
  -85.4365   28.7094    1.2575 C   0  0  0  0  0  0  0  0  0  0  0  0
  -84.6660   27.8298    1.9519 C   0  0  0  0  0  0  0  0  0  0  0  0
  -85.1960   26.5836    2.2595 O   0  0  0  0  0  0  0  0  0  0  0  0
  -83.3702   28.1378    2.3612 C   0  0  0  0  0  0  0  0  0  0  0  0
  -82.8805   29.3724    2.0411 C   0  0  0  0  0  0  0  0  0  0  0  0
  -83.6205   30.3006    1.3387 C   0  0  0  0  0  0  0  0  0  0  0  0
  -84.9033   29.9537    0.9514 C   0  0  0  0  0  0  0  0  0  0  0  0
  -85.8558   30.6358    0.2631 C   0  0  0  0  0  0  0  0  0  0  0  0
  -85.8924   31.9020   -0.2920 C   0  0  0  0  0  0  0  0  0  0  0  0
  -84.5076   32.9679   -0.1661 Cl  0  0  0  0  0  0  0  0  0  0  0  0
  -87.0348   32.3567   -0.9642 C   0  0  0  0  0  0  0  0  0  0  0  0
  -88.1120   31.5130   -1.0557 C   0  0  0  0  0  0  0  0  0  0  0  0
  -88.0555   30.2519   -0.4946 C   0  0  0  0  0  0  0  0  0  0  0  0
  -86.9294   29.7951    0.1718 C   0  0  0  0  0  0  0  0  0  0  0  0
  -84.6630   25.8816    2.7794 H   0  0  0  0  0  0  0  0  0  0  0  0
  -88.7283   25.8615   -0.2158 C   0  0  0  0  0  0  0  0  0  0  0  0
  -88.2401   27.1578   -0.3642 O   0  0  0  0  0  0  0  0  0  0  0  0
  -87.6472   27.5189    0.8402 C   0  0  0  0  0  0  0  0  0  0  0  0
  -88.5821   27.5534    2.0070 C   0  0  0  0  0  0  0  0  0  0  0  0
  -87.9131   28.0196    3.1283 O   0  0  0  0  0  0  0  0  0  0  0  0
  -89.0527   26.1038    2.2151 C   0  0  0  0  0  0  0  0  0  0  0  0
  -89.9075   25.9979    3.2784 O   0  0  0  0  0  0  0  0  0  0  0  0
  -89.7390   25.7385    0.8912 C   0  0  0  0  0  0  0  0  0  0  0  0
  -90.1649   24.4247    0.9432 O   0  0  0  0  0  0  0  0  0  0  0  0
  -88.5282   27.9363    3.8976 H   0  0  0  0  0  0  0  0  0  0  0  0
  -89.4547   25.5313    4.0351 H   0  0  0  0  0  0  0  0  0  0  0  0
  -90.3223   24.1610    1.8879 H   0  0  0  0  0  0  0  0  0  0  0  0
  -89.1438   24.0705   -1.6899 O   0  0  0  0  0  0  0  0  0  0  0  0
  -89.3385   25.4301   -1.5258 C   0  0  0  0  0  0  0  0  0  0  0  0
  -88.2626   23.9601   -2.1367 H   0  0  0  0  0  0  0  0  0  0  0  0
 29 30  1  0  0  0
 30 17  1  0  0  0
 17 18  1  0  0  0
 18 19  1  0  0  0
 19 20  1  0  0  0
 20 21  1  0  0  0
 20 22  1  0  0  0
 22 23  1  0  0  0
 22 24  1  0  0  0
 24 25  1  0  0  0
 19  1  1  0  0  0
  1  2  1  0  0  0
  2  3  2  0  0  0
  3  4  1  0  0  0
  3  5  1  0  0  0
  5  6  2  0  0  0
  6  7  1  0  0  0
  7  8  2  0  0  0
  8  9  1  0  0  0
  9 10  2  0  0  0
 10 11  1  0  0  0
 10 12  1  0  0  0
 12 13  2  0  0  0
 13 14  1  0  0  0
 14 15  2  0  0  0
 24 17  1  0  0  0
 15  1  1  0  0  0
  8  2  1  0  0  0
 15  9  1  0  0  0
 29 31  1  0  0  0
 21 26  1  0  0  0
 23 27  1  0  0  0
 25 28  1  0  0  0
  4 16  1  0  0  0
M  END
> <minimizedAffinity>
-10.09577

> <CNNscore>
0.6230245233

> <CNNaffinity>
5.9611473083

> <CNN_VS>
3.7139408588

> <CNNaffinity_variance>
0.1011737585

$$$$
[H]Oc1c([H])c([H])c([H])c2c3c(Cl)c([H])c([H])c([H])c3n([C@]3([H])O[C@]([H])(C([H])([H])O[H])[C@@]([H])(O[H])[C@]([H])(O[H])[C@@]3([H])O[H])c12


 31 34  0  0  0  0  0  0  0  0999 V2000
  -86.4898   29.1687    0.9110 N   0  0  0  0  0  0  0  0  0  0  0  0
  -85.2475   28.9001    1.4059 C   0  0  0  0  0  0  0  0  0  0  0  0
  -84.7650   27.8198    2.0767 C   0  0  0  0  0  0  0  0  0  0  0  0
  -85.6282   26.7650    2.3426 O   0  0  0  0  0  0  0  0  0  0  0  0
  -83.4407   27.7389    2.5021 C   0  0  0  0  0  0  0  0  0  0  0  0
  -82.6193   28.7944    2.2232 C   0  0  0  0  0  0  0  0  0  0  0  0
  -83.0587   29.9129    1.5461 C   0  0  0  0  0  0  0  0  0  0  0  0
  -84.3819   29.9521    1.1414 C   0  0  0  0  0  0  0  0  0  0  0  0
  -85.0945   30.8940    0.4698 C   0  0  0  0  0  0  0  0  0  0  0  0
  -84.7660   32.1346   -0.0458 C   0  0  0  0  0  0  0  0  0  0  0  0
  -83.1392   32.7637    0.1204 Cl  0  0  0  0  0  0  0  0  0  0  0  0
  -85.7252   32.9113   -0.7095 C   0  0  0  0  0  0  0  0  0  0  0  0
  -86.9947   32.4078   -0.8329 C   0  0  0  0  0  0  0  0  0  0  0  0
  -87.3028   31.1664   -0.3110 C   0  0  0  0  0  0  0  0  0  0  0  0
  -86.3599   30.3924    0.3468 C   0  0  0  0  0  0  0  0  0  0  0  0
  -85.3212   25.9269    2.8432 H   0  0  0  0  0  0  0  0  0  0  0  0
  -89.5153   27.7326    2.0770 C   0  0  0  0  0  0  0  0  0  0  0  0
  -88.1646   28.0492    2.2038 O   0  0  0  0  0  0  0  0  0  0  0  0
  -87.6978   28.3922    0.9402 C   0  0  0  0  0  0  0  0  0  0  0  0
  -87.7782   27.2932   -0.0711 C   0  0  0  0  0  0  0  0  0  0  0  0
  -87.1978   27.7085   -1.2597 O   0  0  0  0  0  0  0  0  0  0  0  0
  -89.2767   27.0063   -0.2659 C   0  0  0  0  0  0  0  0  0  0  0  0
  -89.4863   26.0216   -1.1927 O   0  0  0  0  0  0  0  0  0  0  0  0
  -89.7637   26.5911    1.1296 C   0  0  0  0  0  0  0  0  0  0  0  0
  -91.1244   26.3527    1.0880 O   0  0  0  0  0  0  0  0  0  0  0  0
  -87.3555   27.0002   -1.9310 H   0  0  0  0  0  0  0  0  0  0  0  0
  -89.8671   26.4138   -2.0272 H   0  0  0  0  0  0  0  0  0  0  0  0
  -91.3903   26.0905    0.1674 H   0  0  0  0  0  0  0  0  0  0  0  0
  -91.2925   27.9995    3.6013 O   0  0  0  0  0  0  0  0  0  0  0  0
  -90.0563   27.3990    3.4447 C   0  0  0  0  0  0  0  0  0  0  0  0
  -91.1237   28.9111    3.9601 H   0  0  0  0  0  0  0  0  0  0  0  0
 29 30  1  0  0  0
 30 17  1  0  0  0
 17 18  1  0  0  0
 18 19  1  0  0  0
 19 20  1  0  0  0
 20 21  1  0  0  0
 20 22  1  0  0  0
 22 23  1  0  0  0
 22 24  1  0  0  0
 24 25  1  0  0  0
 19  1  1  0  0  0
  1  2  1  0  0  0
  2  3  2  0  0  0
  3  4  1  0  0  0
  3  5  1  0  0  0
  5  6  2  0  0  0
  6  7  1  0  0  0
  7  8  2  0  0  0
  8  9  1  0  0  0
  9 10  2  0  0  0
 10 11  1  0  0  0
 10 12  1  0  0  0
 12 13  2  0  0  0
 13 14  1  0  0  0
 14 15  2  0  0  0
 24 17  1  0  0  0
 15  1  1  0  0  0
  8  2  1  0  0  0
 15  9  1  0  0  0
 29 31  1  0  0  0
 21 26  1  0  0  0
 23 27  1  0  0  0
 25 28  1  0  0  0
  4 16  1  0  0  0
M  END
> <minimizedAffinity>
-11.04164

> <CNNscore>
0.6088612080

> <CNNaffinity>
5.8627614975

> <CNN_VS>
3.5696079731

> <CNNaffinity_variance>
0.1065487862

$$$$
[H]Oc1c([H])c([H])c([H])c2c3c(Cl)c([H])c([H])c([H])c3n([C@]3([H])O[C@]([H])(C([H])([H])O[H])[C@@]([H])(O[H])[C@]([H])(O[H])[C@@]3([H])O[H])c12


 31 34  0  0  0  0  0  0  0  0999 V2000
  -87.4546   29.9457   -0.1181 N   0  0  0  0  0  0  0  0  0  0  0  0
  -86.4420   29.9230    0.7955 C   0  0  0  0  0  0  0  0  0  0  0  0
  -86.1718   29.0605    1.8117 C   0  0  0  0  0  0  0  0  0  0  0  0
  -87.0323   27.9904    2.0193 O   0  0  0  0  0  0  0  0  0  0  0  0
  -85.0660   29.2158    2.6452 C   0  0  0  0  0  0  0  0  0  0  0  0
  -84.2405   30.2792    2.4121 C   0  0  0  0  0  0  0  0  0  0  0  0
  -84.4695   31.1824    1.3952 C   0  0  0  0  0  0  0  0  0  0  0  0
  -85.5796   30.9909    0.5907 C   0  0  0  0  0  0  0  0  0  0  0  0
  -86.0606   31.6928   -0.4686 C   0  0  0  0  0  0  0  0  0  0  0  0
  -85.6264   32.8335   -1.1190 C   0  0  0  0  0  0  0  0  0  0  0  0
  -84.1764   33.6616   -0.5882 Cl  0  0  0  0  0  0  0  0  0  0  0  0
  -86.3355   33.3485   -2.2124 C   0  0  0  0  0  0  0  0  0  0  0  0
  -87.4686   32.6913   -2.6180 C   0  0  0  0  0  0  0  0  0  0  0  0
  -87.8858   31.5533   -1.9551 C   0  0  0  0  0  0  0  0  0  0  0  0
  -87.1900   31.0379   -0.8729 C   0  0  0  0  0  0  0  0  0  0  0  0
  -86.8794   27.3097    2.7679 H   0  0  0  0  0  0  0  0  0  0  0  0
  -89.3115   26.9961   -0.7718 C   0  0  0  0  0  0  0  0  0  0  0  0
  -88.3248   27.9316   -1.0750 O   0  0  0  0  0  0  0  0  0  0  0  0
  -88.5705   29.0603   -0.3017 C   0  0  0  0  0  0  0  0  0  0  0  0
  -89.8804   29.7280   -0.5759 C   0  0  0  0  0  0  0  0  0  0  0  0
  -89.9780   30.8909    0.1726 O   0  0  0  0  0  0  0  0  0  0  0  0
  -90.9647   28.7188   -0.1612 C   0  0  0  0  0  0  0  0  0  0  0  0
  -92.2227   29.2240   -0.3471 O   0  0  0  0  0  0  0  0  0  0  0  0
  -90.7013   27.4974   -1.0533 C   0  0  0  0  0  0  0  0  0  0  0  0
  -91.5957   26.4939   -0.7321 O   0  0  0  0  0  0  0  0  0  0  0  0
  -90.8892   31.2518    0.0439 H   0  0  0  0  0  0  0  0  0  0  0  0
  -92.6440   29.4240    0.5348 H   0  0  0  0  0  0  0  0  0  0  0  0
  -92.4207   26.8916   -0.3470 H   0  0  0  0  0  0  0  0  0  0  0  0
  -89.6011   25.8763   -2.8249 O   0  0  0  0  0  0  0  0  0  0  0  0
  -89.0405   25.7439   -1.5674 C   0  0  0  0  0  0  0  0  0  0  0  0
  -90.5386   25.5529   -2.7551 H   0  0  0  0  0  0  0  0  0  0  0  0
 29 30  1  0  0  0
 30 17  1  0  0  0
 17 18  1  0  0  0
 18 19  1  0  0  0
 19 20  1  0  0  0
 20 21  1  0  0  0
 20 22  1  0  0  0
 22 23  1  0  0  0
 22 24  1  0  0  0
 24 25  1  0  0  0
 19  1  1  0  0  0
  1  2  1  0  0  0
  2  3  2  0  0  0
  3  4  1  0  0  0
  3  5  1  0  0  0
  5  6  2  0  0  0
  6  7  1  0  0  0
  7  8  2  0  0  0
  8  9  1  0  0  0
  9 10  2  0  0  0
 10 11  1  0  0  0
 10 12  1  0  0  0
 12 13  2  0  0  0
 13 14  1  0  0  0
 14 15  2  0  0  0
 24 17  1  0  0  0
 15  1  1  0  0  0
  8  2  1  0  0  0
 15  9  1  0  0  0
 29 31  1  0  0  0
 21 26  1  0  0  0
 23 27  1  0  0  0
 25 28  1  0  0  0
  4 16  1  0  0  0
M  END
> <minimizedAffinity>
-8.90497

> <CNNscore>
0.5559344888

> <CNNaffinity>
5.4734315872

> <CNN_VS>
3.0428693295

> <CNNaffinity_variance>
0.1189165860

$$$$
[H]Oc1c([H])c([H])c([H])c2c3c(Cl)c([H])c([H])c([H])c3n([C@]3([H])O[C@]([H])(C([H])([H])O[H])[C@@]([H])(O[H])[C@]([H])(O[H])[C@@]3([H])O[H])c12


 31 34  0  0  0  0  0  0  0  0999 V2000
  -86.7682   29.3421    0.2728 N   0  0  0  0  0  0  0  0  0  0  0  0
  -85.7422   28.8401    1.0183 C   0  0  0  0  0  0  0  0  0  0  0  0
  -85.5745   27.6264    1.6087 C   0  0  0  0  0  0  0  0  0  0  0  0
  -86.5811   26.6792    1.4744 O   0  0  0  0  0  0  0  0  0  0  0  0
  -84.4318   27.3058    2.3387 C   0  0  0  0  0  0  0  0  0  0  0  0
  -83.4615   28.2612    2.4500 C   0  0  0  0  0  0  0  0  0  0  0  0
  -83.5824   29.5070    1.8707 C   0  0  0  0  0  0  0  0  0  0  0  0
  -84.7339   29.7840    1.1541 C   0  0  0  0  0  0  0  0  0  0  0  0
  -85.1358   30.8944    0.4822 C   0  0  0  0  0  0  0  0  0  0  0  0
  -84.5535   32.1311    0.2718 C   0  0  0  0  0  0  0  0  0  0  0  0
  -82.9779   32.4976    0.9447 Cl  0  0  0  0  0  0  0  0  0  0  0  0
  -85.2104   33.1133   -0.4816 C   0  0  0  0  0  0  0  0  0  0  0  0
  -86.4430   32.8142   -1.0027 C   0  0  0  0  0  0  0  0  0  0  0  0
  -87.0076   31.5729   -0.7812 C   0  0  0  0  0  0  0  0  0  0  0  0
  -86.3643   30.5965   -0.0373 C   0  0  0  0  0  0  0  0  0  0  0  0
  -86.5101   25.7497    1.8964 H   0  0  0  0  0  0  0  0  0  0  0  0
  -90.1506   28.2799    0.3566 C   0  0  0  0  0  0  0  0  0  0  0  0
  -88.8727   28.3900    0.9005 O   0  0  0  0  0  0  0  0  0  0  0  0
  -88.0116   28.7469   -0.1307 C   0  0  0  0  0  0  0  0  0  0  0  0
  -87.9132   27.7417   -1.2338 C   0  0  0  0  0  0  0  0  0  0  0  0
  -86.9585   28.1487   -2.1531 O   0  0  0  0  0  0  0  0  0  0  0  0
  -89.3071   27.6868   -1.8817 C   0  0  0  0  0  0  0  0  0  0  0  0
  -89.3429   26.8073   -2.9294 O   0  0  0  0  0  0  0  0  0  0  0  0
  -90.2354   27.2526   -0.7386 C   0  0  0  0  0  0  0  0  0  0  0  0
  -91.5390   27.2154   -1.1959 O   0  0  0  0  0  0  0  0  0  0  0  0
  -86.9895   27.5174   -2.9132 H   0  0  0  0  0  0  0  0  0  0  0  0
  -89.4072   27.3056   -3.7913 H   0  0  0  0  0  0  0  0  0  0  0  0
  -91.5453   27.0569   -2.1766 H   0  0  0  0  0  0  0  0  0  0  0  0
  -91.3459   29.0658    2.2292 O   0  0  0  0  0  0  0  0  0  0  0  0
  -91.1120   27.9358    1.4665 C   0  0  0  0  0  0  0  0  0  0  0  0
  -90.6423   29.0871    2.9312 H   0  0  0  0  0  0  0  0  0  0  0  0
 29 30  1  0  0  0
 30 17  1  0  0  0
 17 18  1  0  0  0
 18 19  1  0  0  0
 19 20  1  0  0  0
 20 21  1  0  0  0
 20 22  1  0  0  0
 22 23  1  0  0  0
 22 24  1  0  0  0
 24 25  1  0  0  0
 19  1  1  0  0  0
  1  2  1  0  0  0
  2  3  2  0  0  0
  3  4  1  0  0  0
  3  5  1  0  0  0
  5  6  2  0  0  0
  6  7  1  0  0  0
  7  8  2  0  0  0
  8  9  1  0  0  0
  9 10  2  0  0  0
 10 11  1  0  0  0
 10 12  1  0  0  0
 12 13  2  0  0  0
 13 14  1  0  0  0
 14 15  2  0  0  0
 24 17  1  0  0  0
 15  1  1  0  0  0
  8  2  1  0  0  0
 15  9  1  0  0  0
 29 31  1  0  0  0
 21 26  1  0  0  0
 23 27  1  0  0  0
 25 28  1  0  0  0
  4 16  1  0  0  0
M  END
> <minimizedAffinity>
-10.31205

> <CNNscore>
0.5292062163

> <CNNaffinity>
5.5033798218

> <CNN_VS>
2.9124228954

> <CNNaffinity_variance>
0.2760745585

$$$$
[H]Oc1c([H])c([H])c([H])c2c3c(Cl)c([H])c([H])c([H])c3n([C@]3([H])O[C@]([H])(C([H])([H])O[H])[C@@]([H])(O[H])[C@]([H])(O[H])[C@@]3([H])O[H])c12


 31 34  0  0  0  0  0  0  0  0999 V2000
  -87.2686   29.8334   -0.4088 N   0  0  0  0  0  0  0  0  0  0  0  0
  -86.9087   31.0576   -0.8908 C   0  0  0  0  0  0  0  0  0  0  0  0
  -87.4766   31.8486   -1.8403 C   0  0  0  0  0  0  0  0  0  0  0  0
  -88.6267   31.3994   -2.4760 O   0  0  0  0  0  0  0  0  0  0  0  0
  -86.9443   33.0872   -2.1924 C   0  0  0  0  0  0  0  0  0  0  0  0
  -85.8126   33.4979   -1.5465 C   0  0  0  0  0  0  0  0  0  0  0  0
  -85.1978   32.7340   -0.5766 C   0  0  0  0  0  0  0  0  0  0  0  0
  -85.7597   31.5099   -0.2573 C   0  0  0  0  0  0  0  0  0  0  0  0
  -85.3954   30.5530    0.6359 C   0  0  0  0  0  0  0  0  0  0  0  0
  -84.3502   30.4528    1.5360 C   0  0  0  0  0  0  0  0  0  0  0  0
  -83.1678   31.7387    1.6717 Cl  0  0  0  0  0  0  0  0  0  0  0  0
  -84.2160   29.3237    2.3551 C   0  0  0  0  0  0  0  0  0  0  0  0
  -85.1478   28.3243    2.2393 C   0  0  0  0  0  0  0  0  0  0  0  0
  -86.1846   28.4435    1.3341 C   0  0  0  0  0  0  0  0  0  0  0  0
  -86.3240   29.5568    0.5206 C   0  0  0  0  0  0  0  0  0  0  0  0
  -89.0974   31.9514   -3.1977 H   0  0  0  0  0  0  0  0  0  0  0  0
  -90.5840   28.6161   -0.7282 C   0  0  0  0  0  0  0  0  0  0  0  0
  -89.5250   29.1491    0.0034 O   0  0  0  0  0  0  0  0  0  0  0  0
  -88.3707   28.9786   -0.7521 C   0  0  0  0  0  0  0  0  0  0  0  0
  -88.0142   27.5526   -1.0284 C   0  0  0  0  0  0  0  0  0  0  0  0
  -86.8012   27.4953   -1.6973 O   0  0  0  0  0  0  0  0  0  0  0  0
  -89.1485   26.9953   -1.9054 C   0  0  0  0  0  0  0  0  0  0  0  0
  -88.9276   25.6888   -2.2467 O   0  0  0  0  0  0  0  0  0  0  0  0
  -90.4057   27.1554   -1.0389 C   0  0  0  0  0  0  0  0  0  0  0  0
  -91.5103   26.7272   -1.7508 O   0  0  0  0  0  0  0  0  0  0  0  0
  -86.6453   26.5525   -1.9502 H   0  0  0  0  0  0  0  0  0  0  0  0
  -88.6946   25.6235   -3.2146 H   0  0  0  0  0  0  0  0  0  0  0  0
  -91.2317   26.0588   -2.4308 H   0  0  0  0  0  0  0  0  0  0  0  0
  -92.8540   29.2432   -0.8116 O   0  0  0  0  0  0  0  0  0  0  0  0
  -91.8566   28.8290    0.0527 C   0  0  0  0  0  0  0  0  0  0  0  0
  -92.7944   30.2342   -0.8625 H   0  0  0  0  0  0  0  0  0  0  0  0
 29 30  1  0  0  0
 30 17  1  0  0  0
 17 18  1  0  0  0
 18 19  1  0  0  0
 19 20  1  0  0  0
 20 21  1  0  0  0
 20 22  1  0  0  0
 22 23  1  0  0  0
 22 24  1  0  0  0
 24 25  1  0  0  0
 19  1  1  0  0  0
  1  2  1  0  0  0
  2  3  2  0  0  0
  3  4  1  0  0  0
  3  5  1  0  0  0
  5  6  2  0  0  0
  6  7  1  0  0  0
  7  8  2  0  0  0
  8  9  1  0  0  0
  9 10  2  0  0  0
 10 11  1  0  0  0
 10 12  1  0  0  0
 12 13  2  0  0  0
 13 14  1  0  0  0
 14 15  2  0  0  0
 24 17  1  0  0  0
 15  1  1  0  0  0
  8  2  1  0  0  0
 15  9  1  0  0  0
 29 31  1  0  0  0
 21 26  1  0  0  0
 23 27  1  0  0  0
 25 28  1  0  0  0
  4 16  1  0  0  0
M  END
> <minimizedAffinity>
-8.87354

> <CNNscore>
0.4321227372

> <CNNaffinity>
5.3978219032

> <CNN_VS>
2.3325216770

> <CNNaffinity_variance>
0.0781914368

$$$$
[H]Oc1c([H])c([H])c([H])c2c3c(Cl)c([H])c([H])c([H])c3n([C@]3([H])O[C@]([H])(C([H])([H])O[H])[C@@]([H])(O[H])[C@]([H])(O[H])[C@@]3([H])O[H])c12


 31 34  0  0  0  0  0  0  0  0999 V2000
  -87.2484   29.7430    0.3495 N   0  0  0  0  0  0  0  0  0  0  0  0
  -86.9417   30.9641   -0.1751 C   0  0  0  0  0  0  0  0  0  0  0  0
  -87.6862   31.8384   -0.9038 C   0  0  0  0  0  0  0  0  0  0  0  0
  -88.9978   31.4988   -1.2081 O   0  0  0  0  0  0  0  0  0  0  0  0
  -87.1774   33.0560   -1.3512 C   0  0  0  0  0  0  0  0  0  0  0  0
  -85.8835   33.3580   -1.0331 C   0  0  0  0  0  0  0  0  0  0  0  0
  -85.0863   32.5066   -0.2969 C   0  0  0  0  0  0  0  0  0  0  0  0
  -85.6314   31.3071    0.1277 C   0  0  0  0  0  0  0  0  0  0  0  0
  -85.1103   30.2838    0.8538 C   0  0  0  0  0  0  0  0  0  0  0  0
  -83.8687   30.0691    1.4240 C   0  0  0  0  0  0  0  0  0  0  0  0
  -82.5991   31.2662    1.2656 Cl  0  0  0  0  0  0  0  0  0  0  0  0
  -83.6018   28.8931    2.1377 C   0  0  0  0  0  0  0  0  0  0  0  0
  -84.6036   27.9641    2.2544 C   0  0  0  0  0  0  0  0  0  0  0  0
  -85.8371   28.1973    1.6776 C   0  0  0  0  0  0  0  0  0  0  0  0
  -86.1087   29.3577    0.9702 C   0  0  0  0  0  0  0  0  0  0  0  0
  -89.6050   32.1168   -1.7528 H   0  0  0  0  0  0  0  0  0  0  0  0
  -90.3195   28.2767    1.3463 C   0  0  0  0  0  0  0  0  0  0  0  0
  -88.9695   28.5686    1.5277 O   0  0  0  0  0  0  0  0  0  0  0  0
  -88.4649   28.9809    0.2999 C   0  0  0  0  0  0  0  0  0  0  0  0
  -88.5294   27.9456   -0.7775 C   0  0  0  0  0  0  0  0  0  0  0  0
  -87.9125   28.4242   -1.9232 O   0  0  0  0  0  0  0  0  0  0  0  0
  -90.0251   27.6892   -1.0289 C   0  0  0  0  0  0  0  0  0  0  0  0
  -90.2197   26.7644   -2.0185 O   0  0  0  0  0  0  0  0  0  0  0  0
  -90.5542   27.1971    0.3257 C   0  0  0  0  0  0  0  0  0  0  0  0
  -91.9157   26.9783    0.2337 O   0  0  0  0  0  0  0  0  0  0  0  0
  -88.0594   27.7594   -2.6398 H   0  0  0  0  0  0  0  0  0  0  0  0
  -90.5736   27.2105   -2.8377 H   0  0  0  0  0  0  0  0  0  0  0  0
  -92.1591   26.7750   -0.7077 H   0  0  0  0  0  0  0  0  0  0  0  0
  -91.6133   28.9303    3.2043 O   0  0  0  0  0  0  0  0  0  0  0  0
  -90.9010   27.8684    2.6766 C   0  0  0  0  0  0  0  0  0  0  0  0
  -90.9670   29.4764    3.7261 H   0  0  0  0  0  0  0  0  0  0  0  0
 29 30  1  0  0  0
 30 17  1  0  0  0
 17 18  1  0  0  0
 18 19  1  0  0  0
 19 20  1  0  0  0
 20 21  1  0  0  0
 20 22  1  0  0  0
 22 23  1  0  0  0
 22 24  1  0  0  0
 24 25  1  0  0  0
 19  1  1  0  0  0
  1  2  1  0  0  0
  2  3  2  0  0  0
  3  4  1  0  0  0
  3  5  1  0  0  0
  5  6  2  0  0  0
  6  7  1  0  0  0
  7  8  2  0  0  0
  8  9  1  0  0  0
  9 10  2  0  0  0
 10 11  1  0  0  0
 10 12  1  0  0  0
 12 13  2  0  0  0
 13 14  1  0  0  0
 14 15  2  0  0  0
 24 17  1  0  0  0
 15  1  1  0  0  0
  8  2  1  0  0  0
 15  9  1  0  0  0
 29 31  1  0  0  0
 21 26  1  0  0  0
 23 27  1  0  0  0
 25 28  1  0  0  0
  4 16  1  0  0  0
M  END
> <minimizedAffinity>
-10.31412

> <CNNscore>
0.4270535111

> <CNNaffinity>
5.5290665627

> <CNN_VS>
2.3612072468

> <CNNaffinity_variance>
0.1355473101

$$$$
[H]Oc1c([H])c([H])c([H])c2c3c(Cl)c([H])c([H])c([H])c3n([C@]3([H])O[C@]([H])(C([H])([H])O[H])[C@@]([H])(O[H])[C@]([H])(O[H])[C@@]3([H])O[H])c12


 31 34  0  0  0  0  0  0  0  0999 V2000
  -86.7734   28.8476    1.0901 N   0  0  0  0  0  0  0  0  0  0  0  0
  -86.8971   30.0129    0.3921 C   0  0  0  0  0  0  0  0  0  0  0  0
  -87.9673   30.5733   -0.2326 C   0  0  0  0  0  0  0  0  0  0  0  0
  -89.1818   29.9008   -0.1984 O   0  0  0  0  0  0  0  0  0  0  0  0
  -87.8838   31.7931   -0.9010 C   0  0  0  0  0  0  0  0  0  0  0  0
  -86.6739   32.4274   -0.9143 C   0  0  0  0  0  0  0  0  0  0  0  0
  -85.5582   31.9022   -0.2965 C   0  0  0  0  0  0  0  0  0  0  0  0
  -85.6851   30.6881    0.3562 C   0  0  0  0  0  0  0  0  0  0  0  0
  -84.7889   29.9328    1.0435 C   0  0  0  0  0  0  0  0  0  0  0  0
  -83.4474   30.0965    1.3374 C   0  0  0  0  0  0  0  0  0  0  0  0
  -82.5819   31.5142    0.7795 Cl  0  0  0  0  0  0  0  0  0  0  0  0
  -82.7552   29.1343    2.0849 C   0  0  0  0  0  0  0  0  0  0  0  0
  -83.4437   28.0294    2.5156 C   0  0  0  0  0  0  0  0  0  0  0  0
  -84.7835   27.8845    2.2116 C   0  0  0  0  0  0  0  0  0  0  0  0
  -85.4749   28.8315    1.4728 C   0  0  0  0  0  0  0  0  0  0  0  0
  -90.0206   30.2740   -0.6503 H   0  0  0  0  0  0  0  0  0  0  0  0
  -89.3411   27.0634    2.7632 C   0  0  0  0  0  0  0  0  0  0  0  0
  -88.1198   27.7325    2.7252 O   0  0  0  0  0  0  0  0  0  0  0  0
  -87.7402   27.8290    1.3914 C   0  0  0  0  0  0  0  0  0  0  0  0
  -87.5204   26.5151    0.7116 C   0  0  0  0  0  0  0  0  0  0  0  0
  -87.0508   26.7276   -0.5755 O   0  0  0  0  0  0  0  0  0  0  0  0
  -88.8913   25.8180    0.6847 C   0  0  0  0  0  0  0  0  0  0  0  0
  -88.8269   24.6005    0.0635 O   0  0  0  0  0  0  0  0  0  0  0  0
  -89.2735   25.6848    2.1657 C   0  0  0  0  0  0  0  0  0  0  0  0
  -90.5258   25.1088    2.2657 O   0  0  0  0  0  0  0  0  0  0  0  0
  -87.0112   25.8488   -1.0265 H   0  0  0  0  0  0  0  0  0  0  0  0
  -89.2847   24.6444   -0.8218 H   0  0  0  0  0  0  0  0  0  0  0  0
  -90.7024   24.5504    1.4633 H   0  0  0  0  0  0  0  0  0  0  0  0
  -91.1415   27.2994    4.2652 O   0  0  0  0  0  0  0  0  0  0  0  0
  -89.7961   26.9850    4.1990 C   0  0  0  0  0  0  0  0  0  0  0  0
  -91.1993   28.2866    4.3672 H   0  0  0  0  0  0  0  0  0  0  0  0
 29 30  1  0  0  0
 30 17  1  0  0  0
 17 18  1  0  0  0
 18 19  1  0  0  0
 19 20  1  0  0  0
 20 21  1  0  0  0
 20 22  1  0  0  0
 22 23  1  0  0  0
 22 24  1  0  0  0
 24 25  1  0  0  0
 19  1  1  0  0  0
  1  2  1  0  0  0
  2  3  2  0  0  0
  3  4  1  0  0  0
  3  5  1  0  0  0
  5  6  2  0  0  0
  6  7  1  0  0  0
  7  8  2  0  0  0
  8  9  1  0  0  0
  9 10  2  0  0  0
 10 11  1  0  0  0
 10 12  1  0  0  0
 12 13  2  0  0  0
 13 14  1  0  0  0
 14 15  2  0  0  0
 24 17  1  0  0  0
 15  1  1  0  0  0
  8  2  1  0  0  0
 15  9  1  0  0  0
 29 31  1  0  0  0
 21 26  1  0  0  0
 23 27  1  0  0  0
 25 28  1  0  0  0
  4 16  1  0  0  0
M  END
> <minimizedAffinity>
-10.89346

> <CNNscore>
0.4017744362

> <CNNaffinity>
5.4833116531

> <CNN_VS>
2.2030544281

> <CNNaffinity_variance>
0.2996877730

$$$$
[H]Oc1c([H])c([H])c([H])c2c3c(Cl)c([H])c([H])c([H])c3n([C@]3([H])O[C@]([H])(C([H])([H])O[H])[C@@]([H])(O[H])[C@]([H])(O[H])[C@@]3([H])O[H])c12


 31 34  0  0  0  0  0  0  0  0999 V2000
  -91.0526   25.5902    0.9154 N   0  0  0  0  0  0  0  0  0  0  0  0
  -90.8089   24.4425    1.6109 C   0  0  0  0  0  0  0  0  0  0  0  0
  -90.8097   23.1402    1.2185 C   0  0  0  0  0  0  0  0  0  0  0  0
  -91.1013   22.8476   -0.1073 O   0  0  0  0  0  0  0  0  0  0  0  0
  -90.5287   22.0978    2.0993 C   0  0  0  0  0  0  0  0  0  0  0  0
  -90.2457   22.4219    3.3960 C   0  0  0  0  0  0  0  0  0  0  0  0
  -90.2316   23.7261    3.8447 C   0  0  0  0  0  0  0  0  0  0  0  0
  -90.5165   24.7312    2.9365 C   0  0  0  0  0  0  0  0  0  0  0  0
  -90.5780   26.0817    3.0721 C   0  0  0  0  0  0  0  0  0  0  0  0
  -90.3825   26.9310    4.1459 C   0  0  0  0  0  0  0  0  0  0  0  0
  -89.9667   26.2894    5.7224 Cl  0  0  0  0  0  0  0  0  0  0  0  0
  -90.5129   28.3181    3.9951 C   0  0  0  0  0  0  0  0  0  0  0  0
  -90.8387   28.8078    2.7564 C   0  0  0  0  0  0  0  0  0  0  0  0
  -91.0299   27.9427    1.6963 C   0  0  0  0  0  0  0  0  0  0  0  0
  -90.9028   26.5699    1.8375 C   0  0  0  0  0  0  0  0  0  0  0  0
  -91.1165   21.8869   -0.4593 H   0  0  0  0  0  0  0  0  0  0  0  0
  -92.9564   25.7507   -2.0722 C   0  0  0  0  0  0  0  0  0  0  0  0
  -92.5114   25.1067   -0.9198 O   0  0  0  0  0  0  0  0  0  0  0  0
  -91.3923   25.7947   -0.4652 C   0  0  0  0  0  0  0  0  0  0  0  0
  -90.2376   25.7996   -1.4157 C   0  0  0  0  0  0  0  0  0  0  0  0
  -89.1486   26.4218   -0.8250 O   0  0  0  0  0  0  0  0  0  0  0  0
  -90.7105   26.5835   -2.6518 C   0  0  0  0  0  0  0  0  0  0  0  0
  -89.7263   26.6768   -3.5978 O   0  0  0  0  0  0  0  0  0  0  0  0
  -91.9198   25.7866   -3.1614 C   0  0  0  0  0  0  0  0  0  0  0  0
  -92.4652   26.4312   -4.2555 O   0  0  0  0  0  0  0  0  0  0  0  0
  -88.4403   26.4957   -1.5106 H   0  0  0  0  0  0  0  0  0  0  0  0
  -89.3804   27.6117   -3.6395 H   0  0  0  0  0  0  0  0  0  0  0  0
  -91.7657   26.9724   -4.7081 H   0  0  0  0  0  0  0  0  0  0  0  0
  -93.8292   23.9418   -3.3048 O   0  0  0  0  0  0  0  0  0  0  0  0
  -94.1982   25.0478   -2.5606 C   0  0  0  0  0  0  0  0  0  0  0  0
  -93.7139   24.2535   -4.2417 H   0  0  0  0  0  0  0  0  0  0  0  0
 29 30  1  0  0  0
 30 17  1  0  0  0
 17 18  1  0  0  0
 18 19  1  0  0  0
 19 20  1  0  0  0
 20 21  1  0  0  0
 20 22  1  0  0  0
 22 23  1  0  0  0
 22 24  1  0  0  0
 24 25  1  0  0  0
 19  1  1  0  0  0
  1  2  1  0  0  0
  2  3  2  0  0  0
  3  4  1  0  0  0
  3  5  1  0  0  0
  5  6  2  0  0  0
  6  7  1  0  0  0
  7  8  2  0  0  0
  8  9  1  0  0  0
  9 10  2  0  0  0
 10 11  1  0  0  0
 10 12  1  0  0  0
 12 13  2  0  0  0
 13 14  1  0  0  0
 14 15  2  0  0  0
 24 17  1  0  0  0
 15  1  1  0  0  0
  8  2  1  0  0  0
 15  9  1  0  0  0
 29 31  1  0  0  0
 21 26  1  0  0  0
 23 27  1  0  0  0
 25 28  1  0  0  0
  4 16  1  0  0  0
M  END
> <minimizedAffinity>
-7.20305

> <CNNscore>
0.3980537951

> <CNNaffinity>
4.5948209763

> <CNN_VS>
1.8289859295

> <CNNaffinity_variance>
0.1145600304

$$$$
[H]N=C(N([H])[H])N([H])C([H])([H])C([H])([H])C([H])([H])[C@@]([H])(C(=O)N1C([H])([H])C([H])([H])C([H])([H])[C@@]1([H])C(=O)N([H])[C@]([H])(C(=N[H])N([H])[H])C([H])([H])c1c([H])c([H])c([H])c([H])c1[H])N([H])C(=O)OC([H])([H])c1c([H])c([H])c([H])c([H])c1[H]


 49 51  0  0  0  0  0  0  0  0999 V2000
  -88.1024   27.8074    0.1804 C   0  0  0  0  0  0  0  0  0  0  0  0
  -88.0293   29.0868    0.0574 O   0  0  0  0  0  0  0  0  0  0  0  0
  -88.6533   26.9792   -0.8215 N   0  0  0  0  0  0  0  0  0  0  0  0
  -88.6303   25.5341   -0.7506 C   0  0  0  0  0  0  0  0  0  0  0  0
  -90.0838   25.2331   -1.1507 C   0  0  0  0  0  0  0  0  0  0  0  0
  -90.1389   26.1020   -2.4175 C   0  0  0  0  0  0  0  0  0  0  0  0
  -89.3027   27.3349   -2.0419 C   0  0  0  0  0  0  0  0  0  0  0  0
  -90.2311   28.4927   -1.9605 C   0  0  0  0  0  0  0  0  0  0  0  0
  -91.3918   28.4441   -1.5376 O   0  0  0  0  0  0  0  0  0  0  0  0
  -89.7480   29.7519   -2.4021 N   0  0  0  0  0  0  0  0  0  0  0  0
  -88.7771   29.8197   -2.7591 H   0  0  0  0  0  0  0  0  0  0  0  0
  -90.5903   30.9686   -2.3622 C   0  0  0  0  0  0  0  0  0  0  0  0
  -90.8259   31.4581   -3.7402 C   0  0  0  0  0  0  0  0  0  0  0  0
  -91.8299   32.4463   -4.0021 N   0  0  0  0  0  0  0  0  0  0  0  0
  -90.1165   30.9865   -4.7283 N   0  0  0  0  0  0  0  0  0  0  0  0
  -92.7434   32.3675   -3.4938 H   0  0  0  0  0  0  0  0  0  0  0  0
  -91.7120   33.2296   -4.6577 H   0  0  0  0  0  0  0  0  0  0  0  0
  -89.3843   30.2769   -4.6083 H   0  0  0  0  0  0  0  0  0  0  0  0
  -89.8738   31.9622   -1.5167 C   0  0  0  0  0  0  0  0  0  0  0  0
  -88.8684   32.7958   -2.1483 C   0  0  0  0  0  0  0  0  0  0  0  0
  -89.1500   34.0781   -2.5485 C   0  0  0  0  0  0  0  0  0  0  0  0
  -88.2245   34.9011   -3.1511 C   0  0  0  0  0  0  0  0  0  0  0  0
  -86.9427   34.4504   -3.3801 C   0  0  0  0  0  0  0  0  0  0  0  0
  -86.6267   33.1651   -2.9896 C   0  0  0  0  0  0  0  0  0  0  0  0
  -87.5695   32.3469   -2.3836 C   0  0  0  0  0  0  0  0  0  0  0  0
  -87.5512   27.3114    1.4680 C   0  0  0  0  0  0  0  0  0  0  0  0
  -86.6046   28.3627    1.9544 N   0  0  0  0  0  0  0  0  0  0  0  0
  -85.2915   27.9593    2.2614 C   0  0  0  0  0  0  0  0  0  0  0  0
  -84.9168   26.7693    2.1349 O   0  0  0  0  0  0  0  0  0  0  0  0
  -86.8969   29.3485    2.0634 H   0  0  0  0  0  0  0  0  0  0  0  0
  -84.3728   28.8868    2.7178 O   0  0  0  0  0  0  0  0  0  0  0  0
  -83.2943   29.4055    2.0075 C   0  0  0  0  0  0  0  0  0  0  0  0
  -83.5842   30.6003    1.1967 C   0  0  0  0  0  0  0  0  0  0  0  0
  -82.5986   31.2301    0.4569 C   0  0  0  0  0  0  0  0  0  0  0  0
  -82.8592   32.3500   -0.2996 C   0  0  0  0  0  0  0  0  0  0  0  0
  -84.1281   32.8872   -0.3449 C   0  0  0  0  0  0  0  0  0  0  0  0
  -85.1126   32.2632    0.3905 C   0  0  0  0  0  0  0  0  0  0  0  0
  -84.8561   31.1418    1.1492 C   0  0  0  0  0  0  0  0  0  0  0  0
  -88.6285   27.2714    2.5312 C   0  0  0  0  0  0  0  0  0  0  0  0
  -89.4180   26.0379    2.6634 C   0  0  0  0  0  0  0  0  0  0  0  0
  -89.2610   25.4612    4.0537 C   0  0  0  0  0  0  0  0  0  0  0  0
  -89.3175   24.0230    4.0545 N   0  0  0  0  0  0  0  0  0  0  0  0
  -88.5719   23.4891    4.5212 H   0  0  0  0  0  0  0  0  0  0  0  0
  -90.1259   22.4096    2.3869 N   0  0  0  0  0  0  0  0  0  0  0  0
  -90.3804   23.3518    3.4249 C   0  0  0  0  0  0  0  0  0  0  0  0
  -91.6156   23.5423    3.7392 N   0  0  0  0  0  0  0  0  0  0  0  0
  -89.3626   21.7173    2.5094 H   0  0  0  0  0  0  0  0  0  0  0  0
  -90.7365   22.4688    1.5384 H   0  0  0  0  0  0  0  0  0  0  0  0
  -91.9408   24.1890    4.4648 H   0  0  0  0  0  0  0  0  0  0  0  0
 44 45  1  0  0  0
 45 46  2  0  0  0
 45 42  1  0  0  0
 42 41  1  0  0  0
 41 40  1  0  0  0
 40 39  1  0  0  0
 39 26  1  0  0  0
 26 27  1  0  0  0
 27 28  1  0  0  0
 28 29  2  0  0  0
 28 31  1  0  0  0
 31 32  1  0  0  0
 32 33  1  0  0  0
 33 34  2  0  0  0
 34 35  1  0  0  0
 35 36  2  0  0  0
 36 37  1  0  0  0
 37 38  2  0  0  0
 26  1  1  0  0  0
  1  2  2  0  0  0
  1  3  1  0  0  0
  3  4  1  0  0  0
  4  5  1  0  0  0
  5  6  1  0  0  0
  6  7  1  0  0  0
  7  8  1  0  0  0
  8  9  2  0  0  0
  8 10  1  0  0  0
 10 12  1  0  0  0
 12 19  1  0  0  0
 19 20  1  0  0  0
 20 21  2  0  0  0
 21 22  1  0  0  0
 22 23  2  0  0  0
 23 24  1  0  0  0
 24 25  2  0  0  0
 12 13  1  0  0  0
 13 14  1  0  0  0
 13 15  2  0  0  0
 38 33  1  0  0  0
  7  3  1  0  0  0
 25 20  1  0  0  0
 44 47  1  0  0  0
 44 48  1  0  0  0
 46 49  1  0  0  0
 42 43  1  0  0  0
 27 30  1  0  0  0
 10 11  1  0  0  0
 14 16  1  0  0  0
 14 17  1  0  0  0
 15 18  1  0  0  0
M  END
> <minimizedAffinity>
-9.24412

> <CNNscore>
0.4409130216

> <CNNaffinity>
7.2626371384

> <CNN_VS>
3.2021913528

> <CNNaffinity_variance>
0.2035212070

$$$$
[H]N=C(N([H])[H])N([H])C([H])([H])C([H])([H])C([H])([H])[C@@]([H])(C(=O)N1C([H])([H])C([H])([H])C([H])([H])[C@@]1([H])C(=O)N([H])[C@]([H])(C(=N[H])N([H])[H])C([H])([H])c1c([H])c([H])c([H])c([H])c1[H])N([H])C(=O)OC([H])([H])c1c([H])c([H])c([H])c([H])c1[H]


 49 51  0  0  0  0  0  0  0  0999 V2000
  -89.0266   28.4728   -2.5337 C   0  0  0  0  0  0  0  0  0  0  0  0
  -87.9488   28.4738   -3.2377 O   0  0  0  0  0  0  0  0  0  0  0  0
  -90.1504   29.2603   -2.8658 N   0  0  0  0  0  0  0  0  0  0  0  0
  -91.4089   29.1771   -2.1564 C   0  0  0  0  0  0  0  0  0  0  0  0
  -91.7032   30.6753   -1.9769 C   0  0  0  0  0  0  0  0  0  0  0  0
  -91.4837   31.1104   -3.4347 C   0  0  0  0  0  0  0  0  0  0  0  0
  -90.3059   30.2375   -3.8946 C   0  0  0  0  0  0  0  0  0  0  0  0
  -89.1421   31.1377   -4.1051 C   0  0  0  0  0  0  0  0  0  0  0  0
  -88.3400   31.0545   -5.0421 O   0  0  0  0  0  0  0  0  0  0  0  0
  -88.9354   32.1735   -3.1572 N   0  0  0  0  0  0  0  0  0  0  0  0
  -89.5956   32.2661   -2.3632 H   0  0  0  0  0  0  0  0  0  0  0  0
  -87.8076   33.1253   -3.2746 C   0  0  0  0  0  0  0  0  0  0  0  0
  -86.8985   32.9674   -2.1160 C   0  0  0  0  0  0  0  0  0  0  0  0
  -85.5783   33.5238   -2.1429 N   0  0  0  0  0  0  0  0  0  0  0  0
  -87.2984   32.3149   -1.0595 N   0  0  0  0  0  0  0  0  0  0  0  0
  -85.0312   33.4513   -3.0343 H   0  0  0  0  0  0  0  0  0  0  0  0
  -85.1320   33.9907   -1.3430 H   0  0  0  0  0  0  0  0  0  0  0  0
  -88.2299   31.8910   -0.9776 H   0  0  0  0  0  0  0  0  0  0  0  0
  -88.3998   34.4884   -3.3558 C   0  0  0  0  0  0  0  0  0  0  0  0
  -88.2637   35.2176   -4.6025 C   0  0  0  0  0  0  0  0  0  0  0  0
  -89.2418   35.1795   -5.5646 C   0  0  0  0  0  0  0  0  0  0  0  0
  -89.1511   35.8569   -6.7605 C   0  0  0  0  0  0  0  0  0  0  0  0
  -88.0391   36.6207   -7.0406 C   0  0  0  0  0  0  0  0  0  0  0  0
  -87.0367   36.6803   -6.0939 C   0  0  0  0  0  0  0  0  0  0  0  0
  -87.1416   35.9924   -4.8934 C   0  0  0  0  0  0  0  0  0  0  0  0
  -88.9562   27.5668   -1.3581 C   0  0  0  0  0  0  0  0  0  0  0  0
  -88.3928   28.3774   -0.2342 N   0  0  0  0  0  0  0  0  0  0  0  0
  -87.5325   27.7233    0.6677 C   0  0  0  0  0  0  0  0  0  0  0  0
  -87.2404   26.5101    0.5441 O   0  0  0  0  0  0  0  0  0  0  0  0
  -88.6223   29.3789   -0.1183 H   0  0  0  0  0  0  0  0  0  0  0  0
  -86.9831   28.4210    1.7279 O   0  0  0  0  0  0  0  0  0  0  0  0
  -85.6738   28.3317    2.1908 C   0  0  0  0  0  0  0  0  0  0  0  0
  -84.7856   29.4395    1.8000 C   0  0  0  0  0  0  0  0  0  0  0  0
  -83.4084   29.3042    1.8170 C   0  0  0  0  0  0  0  0  0  0  0  0
  -82.5706   30.3356    1.4583 C   0  0  0  0  0  0  0  0  0  0  0  0
  -83.0841   31.5531    1.0651 C   0  0  0  0  0  0  0  0  0  0  0  0
  -84.4551   31.6923    1.0468 C   0  0  0  0  0  0  0  0  0  0  0  0
  -85.2976   30.6623    1.4051 C   0  0  0  0  0  0  0  0  0  0  0  0
  -90.3457   27.1999   -0.8814 C   0  0  0  0  0  0  0  0  0  0  0  0
  -90.5770   25.8172   -0.4375 C   0  0  0  0  0  0  0  0  0  0  0  0
  -89.6740   24.8660   -1.1925 C   0  0  0  0  0  0  0  0  0  0  0  0
  -89.0381   23.9138   -0.3204 N   0  0  0  0  0  0  0  0  0  0  0  0
  -88.2261   24.2065    0.2398 H   0  0  0  0  0  0  0  0  0  0  0  0
  -90.9112   22.3245   -0.3791 N   0  0  0  0  0  0  0  0  0  0  0  0
  -89.5202   22.5959   -0.2325 C   0  0  0  0  0  0  0  0  0  0  0  0
  -88.7549   21.5811   -0.0200 N   0  0  0  0  0  0  0  0  0  0  0  0
  -91.4383   22.7880   -1.1434 H   0  0  0  0  0  0  0  0  0  0  0  0
  -91.3347   21.6575    0.3079 H   0  0  0  0  0  0  0  0  0  0  0  0
  -87.7387   21.6313    0.1038 H   0  0  0  0  0  0  0  0  0  0  0  0
 44 45  1  0  0  0
 45 46  2  0  0  0
 45 42  1  0  0  0
 42 41  1  0  0  0
 41 40  1  0  0  0
 40 39  1  0  0  0
 39 26  1  0  0  0
 26 27  1  0  0  0
 27 28  1  0  0  0
 28 29  2  0  0  0
 28 31  1  0  0  0
 31 32  1  0  0  0
 32 33  1  0  0  0
 33 34  2  0  0  0
 34 35  1  0  0  0
 35 36  2  0  0  0
 36 37  1  0  0  0
 37 38  2  0  0  0
 26  1  1  0  0  0
  1  2  2  0  0  0
  1  3  1  0  0  0
  3  4  1  0  0  0
  4  5  1  0  0  0
  5  6  1  0  0  0
  6  7  1  0  0  0
  7  8  1  0  0  0
  8  9  2  0  0  0
  8 10  1  0  0  0
 10 12  1  0  0  0
 12 19  1  0  0  0
 19 20  1  0  0  0
 20 21  2  0  0  0
 21 22  1  0  0  0
 22 23  2  0  0  0
 23 24  1  0  0  0
 24 25  2  0  0  0
 12 13  1  0  0  0
 13 14  1  0  0  0
 13 15  2  0  0  0
 38 33  1  0  0  0
  7  3  1  0  0  0
 25 20  1  0  0  0
 44 47  1  0  0  0
 44 48  1  0  0  0
 46 49  1  0  0  0
 42 43  1  0  0  0
 27 30  1  0  0  0
 10 11  1  0  0  0
 14 16  1  0  0  0
 14 17  1  0  0  0
 15 18  1  0  0  0
M  END
> <minimizedAffinity>
-8.59427

> <CNNscore>
0.1521925926

> <CNNaffinity>
6.5184769630

> <CNN_VS>
0.9920638800

> <CNNaffinity_variance>
0.2761695981

$$$$
[H]N=C(N([H])[H])N([H])C([H])([H])C([H])([H])C([H])([H])[C@@]([H])(C(=O)N1C([H])([H])C([H])([H])C([H])([H])[C@@]1([H])C(=O)N([H])[C@]([H])(C(=N[H])N([H])[H])C([H])([H])c1c([H])c([H])c([H])c([H])c1[H])N([H])C(=O)OC([H])([H])c1c([H])c([H])c([H])c([H])c1[H]


 49 51  0  0  0  0  0  0  0  0999 V2000
  -88.8208   27.3549    0.0808 C   0  0  0  0  0  0  0  0  0  0  0  0
  -88.6966   28.5549   -0.3683 O   0  0  0  0  0  0  0  0  0  0  0  0
  -89.4078   26.3182   -0.6770 N   0  0  0  0  0  0  0  0  0  0  0  0
  -89.4428   24.9409   -0.2346 C   0  0  0  0  0  0  0  0  0  0  0  0
  -90.9086   24.6047   -0.5540 C   0  0  0  0  0  0  0  0  0  0  0  0
  -90.9327   25.1178   -2.0027 C   0  0  0  0  0  0  0  0  0  0  0  0
  -90.0462   26.3717   -1.9526 C   0  0  0  0  0  0  0  0  0  0  0  0
  -90.9270   27.5471   -2.1801 C   0  0  0  0  0  0  0  0  0  0  0  0
  -91.9890   27.7646   -1.5858 O   0  0  0  0  0  0  0  0  0  0  0  0
  -90.5172   28.4936   -3.1549 N   0  0  0  0  0  0  0  0  0  0  0  0
  -89.6291   28.3354   -3.6657 H   0  0  0  0  0  0  0  0  0  0  0  0
  -91.3204   29.6998   -3.4575 C   0  0  0  0  0  0  0  0  0  0  0  0
  -92.3467   29.3740   -4.4745 C   0  0  0  0  0  0  0  0  0  0  0  0
  -93.6238   28.8556   -4.0828 N   0  0  0  0  0  0  0  0  0  0  0  0
  -92.0894   29.5572   -5.7403 N   0  0  0  0  0  0  0  0  0  0  0  0
  -93.6520   28.1457   -3.3118 H   0  0  0  0  0  0  0  0  0  0  0  0
  -94.5162   29.1355   -4.5097 H   0  0  0  0  0  0  0  0  0  0  0  0
  -91.1948   29.9231   -6.0866 H   0  0  0  0  0  0  0  0  0  0  0  0
  -90.3691   30.7471   -3.9196 C   0  0  0  0  0  0  0  0  0  0  0  0
  -89.5682   31.4292   -2.9206 C   0  0  0  0  0  0  0  0  0  0  0  0
  -90.0764   31.7362   -1.6832 C   0  0  0  0  0  0  0  0  0  0  0  0
  -89.3496   32.3825   -0.7079 C   0  0  0  0  0  0  0  0  0  0  0  0
  -88.0452   32.7549   -0.9492 C   0  0  0  0  0  0  0  0  0  0  0  0
  -87.5036   32.4610   -2.1840 C   0  0  0  0  0  0  0  0  0  0  0  0
  -88.2478   31.8095   -3.1573 C   0  0  0  0  0  0  0  0  0  0  0  0
  -88.2860   27.1872    1.4569 C   0  0  0  0  0  0  0  0  0  0  0  0
  -87.1748   28.1783    1.6010 N   0  0  0  0  0  0  0  0  0  0  0  0
  -85.9203   27.6891    2.0110 C   0  0  0  0  0  0  0  0  0  0  0  0
  -85.7280   26.4727    2.2475 O   0  0  0  0  0  0  0  0  0  0  0  0
  -87.3159   29.1845    1.4090 H   0  0  0  0  0  0  0  0  0  0  0  0
  -84.8560   28.5588    2.1639 O   0  0  0  0  0  0  0  0  0  0  0  0
  -84.9283   29.9093    2.4920 C   0  0  0  0  0  0  0  0  0  0  0  0
  -84.3152   30.8318    1.5214 C   0  0  0  0  0  0  0  0  0  0  0  0
  -82.9529   30.8265    1.2777 C   0  0  0  0  0  0  0  0  0  0  0  0
  -82.3708   31.6883    0.3763 C   0  0  0  0  0  0  0  0  0  0  0  0
  -83.1372   32.5968   -0.3222 C   0  0  0  0  0  0  0  0  0  0  0  0
  -84.4943   32.6057   -0.0826 C   0  0  0  0  0  0  0  0  0  0  0  0
  -85.0813   31.7445    0.8190 C   0  0  0  0  0  0  0  0  0  0  0  0
  -89.3052   27.6310    2.4848 C   0  0  0  0  0  0  0  0  0  0  0  0
  -89.6785   26.6761    3.5390 C   0  0  0  0  0  0  0  0  0  0  0  0
  -88.9218   25.3775    3.3622 C   0  0  0  0  0  0  0  0  0  0  0  0
  -89.4327   24.3318    4.2091 N   0  0  0  0  0  0  0  0  0  0  0  0
  -89.1336   24.2878    5.1926 H   0  0  0  0  0  0  0  0  0  0  0  0
  -89.8579   22.1291    3.2065 N   0  0  0  0  0  0  0  0  0  0  0  0
  -90.3323   23.3788    3.6999 C   0  0  0  0  0  0  0  0  0  0  0  0
  -91.6054   23.5717    3.6497 N   0  0  0  0  0  0  0  0  0  0  0  0
  -89.1444   21.6091    3.7516 H   0  0  0  0  0  0  0  0  0  0  0  0
  -90.2643   21.7968    2.3006 H   0  0  0  0  0  0  0  0  0  0  0  0
  -92.0807   24.4217    3.9692 H   0  0  0  0  0  0  0  0  0  0  0  0
 44 45  1  0  0  0
 45 46  2  0  0  0
 45 42  1  0  0  0
 42 41  1  0  0  0
 41 40  1  0  0  0
 40 39  1  0  0  0
 39 26  1  0  0  0
 26 27  1  0  0  0
 27 28  1  0  0  0
 28 29  2  0  0  0
 28 31  1  0  0  0
 31 32  1  0  0  0
 32 33  1  0  0  0
 33 34  2  0  0  0
 34 35  1  0  0  0
 35 36  2  0  0  0
 36 37  1  0  0  0
 37 38  2  0  0  0
 26  1  1  0  0  0
  1  2  2  0  0  0
  1  3  1  0  0  0
  3  4  1  0  0  0
  4  5  1  0  0  0
  5  6  1  0  0  0
  6  7  1  0  0  0
  7  8  1  0  0  0
  8  9  2  0  0  0
  8 10  1  0  0  0
 10 12  1  0  0  0
 12 19  1  0  0  0
 19 20  1  0  0  0
 20 21  2  0  0  0
 21 22  1  0  0  0
 22 23  2  0  0  0
 23 24  1  0  0  0
 24 25  2  0  0  0
 12 13  1  0  0  0
 13 14  1  0  0  0
 13 15  2  0  0  0
 38 33  1  0  0  0
  7  3  1  0  0  0
 25 20  1  0  0  0
 44 47  1  0  0  0
 44 48  1  0  0  0
 46 49  1  0  0  0
 42 43  1  0  0  0
 27 30  1  0  0  0
 10 11  1  0  0  0
 14 16  1  0  0  0
 14 17  1  0  0  0
 15 18  1  0  0  0
M  END
> <minimizedAffinity>
-8.77580

> <CNNscore>
0.1238653287

> <CNNaffinity>
6.7020363808

> <CNN_VS>
0.8301499486

> <CNNaffinity_variance>
0.2673496008

$$$$
[H]N=C(N([H])[H])N([H])C([H])([H])C([H])([H])C([H])([H])[C@@]([H])(C(=O)N1C([H])([H])C([H])([H])C([H])([H])[C@@]1([H])C(=O)N([H])[C@]([H])(C(=N[H])N([H])[H])C([H])([H])c1c([H])c([H])c([H])c([H])c1[H])N([H])C(=O)OC([H])([H])c1c([H])c([H])c([H])c([H])c1[H]


 49 51  0  0  0  0  0  0  0  0999 V2000
  -89.3017   30.1108   -1.0617 C   0  0  0  0  0  0  0  0  0  0  0  0
  -88.7878   29.5434   -0.0267 O   0  0  0  0  0  0  0  0  0  0  0  0
  -90.6704   29.9960   -1.3888 N   0  0  0  0  0  0  0  0  0  0  0  0
  -91.2851   30.7262   -2.4763 C   0  0  0  0  0  0  0  0  0  0  0  0
  -92.0952   29.5912   -3.1235 C   0  0  0  0  0  0  0  0  0  0  0  0
  -92.7792   29.0669   -1.8507 C   0  0  0  0  0  0  0  0  0  0  0  0
  -91.6901   29.2070   -0.7761 C   0  0  0  0  0  0  0  0  0  0  0  0
  -91.2844   27.8349   -0.3739 C   0  0  0  0  0  0  0  0  0  0  0  0
  -91.6165   27.2754    0.6773 O   0  0  0  0  0  0  0  0  0  0  0  0
  -90.4515   27.1103   -1.2656 N   0  0  0  0  0  0  0  0  0  0  0  0
  -90.1608   27.5564   -2.1552 H   0  0  0  0  0  0  0  0  0  0  0  0
  -89.9917   25.7363   -0.9617 C   0  0  0  0  0  0  0  0  0  0  0  0
  -88.5284   25.7387   -0.7329 C   0  0  0  0  0  0  0  0  0  0  0  0
  -87.9755   25.1742    0.4625 N   0  0  0  0  0  0  0  0  0  0  0  0
  -87.7313   26.2603   -1.6243 N   0  0  0  0  0  0  0  0  0  0  0  0
  -88.4753   25.3499    1.3672 H   0  0  0  0  0  0  0  0  0  0  0  0
  -87.1187   24.6067    0.4904 H   0  0  0  0  0  0  0  0  0  0  0  0
  -88.0633   26.6819   -2.4996 H   0  0  0  0  0  0  0  0  0  0  0  0
  -90.3892   24.8832   -2.1148 C   0  0  0  0  0  0  0  0  0  0  0  0
  -91.7537   24.9819   -2.5975 C   0  0  0  0  0  0  0  0  0  0  0  0
  -92.7804   24.3084   -1.9843 C   0  0  0  0  0  0  0  0  0  0  0  0
  -94.0883   24.3754   -2.4110 C   0  0  0  0  0  0  0  0  0  0  0  0
  -94.4212   25.1461   -3.5036 C   0  0  0  0  0  0  0  0  0  0  0  0
  -93.4119   25.8364   -4.1433 C   0  0  0  0  0  0  0  0  0  0  0  0
  -92.0985   25.7594   -3.7024 C   0  0  0  0  0  0  0  0  0  0  0  0
  -88.3128   30.8856   -1.8551 C   0  0  0  0  0  0  0  0  0  0  0  0
  -87.0601   30.9314   -1.0388 N   0  0  0  0  0  0  0  0  0  0  0  0
  -86.6267   32.1926   -0.5886 C   0  0  0  0  0  0  0  0  0  0  0  0
  -87.2575   33.2437   -0.8528 O   0  0  0  0  0  0  0  0  0  0  0  0
  -86.5285   30.0743   -0.8109 H   0  0  0  0  0  0  0  0  0  0  0  0
  -85.4739   32.2974    0.1682 O   0  0  0  0  0  0  0  0  0  0  0  0
  -84.2949   31.5802   -0.0119 C   0  0  0  0  0  0  0  0  0  0  0  0
  -84.0897   30.4536    0.9143 C   0  0  0  0  0  0  0  0  0  0  0  0
  -85.1565   29.7818    1.4852 C   0  0  0  0  0  0  0  0  0  0  0  0
  -84.9741   28.7313    2.3556 C   0  0  0  0  0  0  0  0  0  0  0  0
  -83.7052   28.3092    2.6907 C   0  0  0  0  0  0  0  0  0  0  0  0
  -82.6399   28.9755    2.1245 C   0  0  0  0  0  0  0  0  0  0  0  0
  -82.8180   30.0278    1.2526 C   0  0  0  0  0  0  0  0  0  0  0  0
  -87.9091   30.1226   -3.0990 C   0  0  0  0  0  0  0  0  0  0  0  0
  -87.6695   30.8916   -4.3293 C   0  0  0  0  0  0  0  0  0  0  0  0
  -88.2394   32.2871   -4.1949 C   0  0  0  0  0  0  0  0  0  0  0  0
  -87.2120   33.2951   -4.1908 N   0  0  0  0  0  0  0  0  0  0  0  0
  -86.2534   33.0372   -3.9201 H   0  0  0  0  0  0  0  0  0  0  0  0
  -88.6650   34.9096   -5.3398 N   0  0  0  0  0  0  0  0  0  0  0  0
  -87.5127   34.6198   -4.5534 C   0  0  0  0  0  0  0  0  0  0  0  0
  -86.7849   35.6251   -4.2063 N   0  0  0  0  0  0  0  0  0  0  0  0
  -89.5650   34.4496   -5.1052 H   0  0  0  0  0  0  0  0  0  0  0  0
  -88.5374   35.5858   -6.1288 H   0  0  0  0  0  0  0  0  0  0  0  0
  -85.9312   35.5615   -3.6428 H   0  0  0  0  0  0  0  0  0  0  0  0
 44 45  1  0  0  0
 45 46  2  0  0  0
 45 42  1  0  0  0
 42 41  1  0  0  0
 41 40  1  0  0  0
 40 39  1  0  0  0
 39 26  1  0  0  0
 26 27  1  0  0  0
 27 28  1  0  0  0
 28 29  2  0  0  0
 28 31  1  0  0  0
 31 32  1  0  0  0
 32 33  1  0  0  0
 33 34  2  0  0  0
 34 35  1  0  0  0
 35 36  2  0  0  0
 36 37  1  0  0  0
 37 38  2  0  0  0
 26  1  1  0  0  0
  1  2  2  0  0  0
  1  3  1  0  0  0
  3  4  1  0  0  0
  4  5  1  0  0  0
  5  6  1  0  0  0
  6  7  1  0  0  0
  7  8  1  0  0  0
  8  9  2  0  0  0
  8 10  1  0  0  0
 10 12  1  0  0  0
 12 19  1  0  0  0
 19 20  1  0  0  0
 20 21  2  0  0  0
 21 22  1  0  0  0
 22 23  2  0  0  0
 23 24  1  0  0  0
 24 25  2  0  0  0
 12 13  1  0  0  0
 13 14  1  0  0  0
 13 15  2  0  0  0
 38 33  1  0  0  0
  7  3  1  0  0  0
 25 20  1  0  0  0
 44 47  1  0  0  0
 44 48  1  0  0  0
 46 49  1  0  0  0
 42 43  1  0  0  0
 27 30  1  0  0  0
 10 11  1  0  0  0
 14 16  1  0  0  0
 14 17  1  0  0  0
 15 18  1  0  0  0
M  END
> <minimizedAffinity>
-8.38860

> <CNNscore>
0.1209263131

> <CNNaffinity>
5.9536952972

> <CNN_VS>
0.7199584246

> <CNNaffinity_variance>
1.0340141058

$$$$
[H]N=C(N([H])[H])N([H])C([H])([H])C([H])([H])C([H])([H])[C@@]([H])(C(=O)N1C([H])([H])C([H])([H])C([H])([H])[C@@]1([H])C(=O)N([H])[C@]([H])(C(=N[H])N([H])[H])C([H])([H])c1c([H])c([H])c([H])c([H])c1[H])N([H])C(=O)OC([H])([H])c1c([H])c([H])c([H])c([H])c1[H]


 49 51  0  0  0  0  0  0  0  0999 V2000
  -89.0830   28.4692    0.5963 C   0  0  0  0  0  0  0  0  0  0  0  0
  -90.2364   28.7099    1.1148 O   0  0  0  0  0  0  0  0  0  0  0  0
  -88.6787   29.0151   -0.6414 N   0  0  0  0  0  0  0  0  0  0  0  0
  -87.3438   28.8535   -1.1760 C   0  0  0  0  0  0  0  0  0  0  0  0
  -87.6905   28.4797   -2.6264 C   0  0  0  0  0  0  0  0  0  0  0  0
  -88.6745   29.6258   -2.9110 C   0  0  0  0  0  0  0  0  0  0  0  0
  -89.4208   29.7952   -1.5787 C   0  0  0  0  0  0  0  0  0  0  0  0
  -90.8264   29.3658   -1.7997 C   0  0  0  0  0  0  0  0  0  0  0  0
  -91.8239   30.0668   -1.5948 O   0  0  0  0  0  0  0  0  0  0  0  0
  -91.0406   28.0490   -2.2839 N   0  0  0  0  0  0  0  0  0  0  0  0
  -90.2203   27.4418   -2.4659 H   0  0  0  0  0  0  0  0  0  0  0  0
  -92.4006   27.5230   -2.5392 C   0  0  0  0  0  0  0  0  0  0  0  0
  -92.5058   26.1391   -2.0218 C   0  0  0  0  0  0  0  0  0  0  0  0
  -92.2652   25.0182   -2.8814 N   0  0  0  0  0  0  0  0  0  0  0  0
  -92.8221   25.9337   -0.7729 N   0  0  0  0  0  0  0  0  0  0  0  0
  -92.6380   25.0591   -3.8604 H   0  0  0  0  0  0  0  0  0  0  0  0
  -91.7494   24.1746   -2.5996 H   0  0  0  0  0  0  0  0  0  0  0  0
  -93.0086   26.6921   -0.1065 H   0  0  0  0  0  0  0  0  0  0  0  0
  -92.6257   27.6033   -4.0082 C   0  0  0  0  0  0  0  0  0  0  0  0
  -93.3291   28.7608   -4.5279 C   0  0  0  0  0  0  0  0  0  0  0  0
  -92.7390   29.6126   -5.4278 C   0  0  0  0  0  0  0  0  0  0  0  0
  -93.3720   30.7214   -5.9445 C   0  0  0  0  0  0  0  0  0  0  0  0
  -94.6612   31.0229   -5.5631 C   0  0  0  0  0  0  0  0  0  0  0  0
  -95.2836   30.1862   -4.6591 C   0  0  0  0  0  0  0  0  0  0  0  0
  -94.6335   29.0726   -4.1466 C   0  0  0  0  0  0  0  0  0  0  0  0
  -88.2423   27.5724    1.4311 C   0  0  0  0  0  0  0  0  0  0  0  0
  -87.1242   28.4139    1.9596 N   0  0  0  0  0  0  0  0  0  0  0  0
  -85.8492   27.8225    2.0358 C   0  0  0  0  0  0  0  0  0  0  0  0
  -85.6449   26.6386    1.6764 O   0  0  0  0  0  0  0  0  0  0  0  0
  -87.2751   29.3920    2.2592 H   0  0  0  0  0  0  0  0  0  0  0  0
  -84.7774   28.5510    2.5186 O   0  0  0  0  0  0  0  0  0  0  0  0
  -84.7593   29.9139    2.7992 C   0  0  0  0  0  0  0  0  0  0  0  0
  -84.2630   30.7785    1.7151 C   0  0  0  0  0  0  0  0  0  0  0  0
  -85.1115   31.6117    1.0072 C   0  0  0  0  0  0  0  0  0  0  0  0
  -84.6574   32.4193   -0.0106 C   0  0  0  0  0  0  0  0  0  0  0  0
  -83.3243   32.4237   -0.3619 C   0  0  0  0  0  0  0  0  0  0  0  0
  -82.4758   31.5953    0.3403 C   0  0  0  0  0  0  0  0  0  0  0  0
  -82.9262   30.7852    1.3601 C   0  0  0  0  0  0  0  0  0  0  0  0
  -88.9916   27.1403    2.6738 C   0  0  0  0  0  0  0  0  0  0  0  0
  -89.2038   25.7002    2.8824 C   0  0  0  0  0  0  0  0  0  0  0  0
  -90.2380   25.1762    1.9097 C   0  0  0  0  0  0  0  0  0  0  0  0
  -89.7423   24.0697    1.1342 N   0  0  0  0  0  0  0  0  0  0  0  0
  -89.3827   23.2356    1.6178 H   0  0  0  0  0  0  0  0  0  0  0  0
  -88.8807   25.0185   -0.9623 N   0  0  0  0  0  0  0  0  0  0  0  0
  -89.7488   24.1251   -0.2707 C   0  0  0  0  0  0  0  0  0  0  0  0
  -90.5188   23.3917   -0.9986 N   0  0  0  0  0  0  0  0  0  0  0  0
  -87.8902   25.0936   -0.6622 H   0  0  0  0  0  0  0  0  0  0  0  0
  -89.2993   25.5626   -1.7528 H   0  0  0  0  0  0  0  0  0  0  0  0
  -91.1902   22.7083   -0.6344 H   0  0  0  0  0  0  0  0  0  0  0  0
 44 45  1  0  0  0
 45 46  2  0  0  0
 45 42  1  0  0  0
 42 41  1  0  0  0
 41 40  1  0  0  0
 40 39  1  0  0  0
 39 26  1  0  0  0
 26 27  1  0  0  0
 27 28  1  0  0  0
 28 29  2  0  0  0
 28 31  1  0  0  0
 31 32  1  0  0  0
 32 33  1  0  0  0
 33 34  2  0  0  0
 34 35  1  0  0  0
 35 36  2  0  0  0
 36 37  1  0  0  0
 37 38  2  0  0  0
 26  1  1  0  0  0
  1  2  2  0  0  0
  1  3  1  0  0  0
  3  4  1  0  0  0
  4  5  1  0  0  0
  5  6  1  0  0  0
  6  7  1  0  0  0
  7  8  1  0  0  0
  8  9  2  0  0  0
  8 10  1  0  0  0
 10 12  1  0  0  0
 12 19  1  0  0  0
 19 20  1  0  0  0
 20 21  2  0  0  0
 21 22  1  0  0  0
 22 23  2  0  0  0
 23 24  1  0  0  0
 24 25  2  0  0  0
 12 13  1  0  0  0
 13 14  1  0  0  0
 13 15  2  0  0  0
 38 33  1  0  0  0
  7  3  1  0  0  0
 25 20  1  0  0  0
 44 47  1  0  0  0
 44 48  1  0  0  0
 46 49  1  0  0  0
 42 43  1  0  0  0
 27 30  1  0  0  0
 10 11  1  0  0  0
 14 16  1  0  0  0
 14 17  1  0  0  0
 15 18  1  0  0  0
M  END
> <minimizedAffinity>
-7.46285

> <CNNscore>
0.0972726867

> <CNNaffinity>
6.0240006447

> <CNN_VS>
0.5859706998

> <CNNaffinity_variance>
0.6615039110

$$$$
[H]N=C(N([H])[H])N([H])C([H])([H])C([H])([H])C([H])([H])[C@@]([H])(C(=O)N1C([H])([H])C([H])([H])C([H])([H])[C@@]1([H])C(=O)N([H])[C@]([H])(C(=N[H])N([H])[H])C([H])([H])c1c([H])c([H])c([H])c([H])c1[H])N([H])C(=O)OC([H])([H])c1c([H])c([H])c([H])c([H])c1[H]


 49 51  0  0  0  0  0  0  0  0999 V2000
  -90.6178   28.9091   -1.0976 C   0  0  0  0  0  0  0  0  0  0  0  0
  -91.2193   29.9289   -0.5923 O   0  0  0  0  0  0  0  0  0  0  0  0
  -89.2365   28.6778   -0.9193 N   0  0  0  0  0  0  0  0  0  0  0  0
  -88.5729   27.4757   -1.3759 C   0  0  0  0  0  0  0  0  0  0  0  0
  -87.3328   28.1004   -2.0356 C   0  0  0  0  0  0  0  0  0  0  0  0
  -86.9105   29.0118   -0.8721 C   0  0  0  0  0  0  0  0  0  0  0  0
  -88.2489   29.4978   -0.2949 C   0  0  0  0  0  0  0  0  0  0  0  0
  -88.3517   30.9533   -0.5778 C   0  0  0  0  0  0  0  0  0  0  0  0
  -89.2779   31.6848   -0.2097 O   0  0  0  0  0  0  0  0  0  0  0  0
  -87.3056   31.5502   -1.3284 N   0  0  0  0  0  0  0  0  0  0  0  0
  -86.5160   30.9586   -1.6470 H   0  0  0  0  0  0  0  0  0  0  0  0
  -87.3101   32.9921   -1.6637 C   0  0  0  0  0  0  0  0  0  0  0  0
  -86.9297   33.1757   -3.0834 C   0  0  0  0  0  0  0  0  0  0  0  0
  -86.3154   34.3933   -3.5228 N   0  0  0  0  0  0  0  0  0  0  0  0
  -87.1559   32.2234   -3.9459 N   0  0  0  0  0  0  0  0  0  0  0  0
  -86.6788   35.2967   -3.1343 H   0  0  0  0  0  0  0  0  0  0  0  0
  -85.5394   34.4385   -4.1958 H   0  0  0  0  0  0  0  0  0  0  0  0
  -87.5938   31.3290   -3.6964 H   0  0  0  0  0  0  0  0  0  0  0  0
  -86.3629   33.6560   -0.7271 C   0  0  0  0  0  0  0  0  0  0  0  0
  -85.2305   32.8881   -0.2446 C   0  0  0  0  0  0  0  0  0  0  0  0
  -83.9889   33.0065   -0.8176 C   0  0  0  0  0  0  0  0  0  0  0  0
  -82.8893   32.2960   -0.3897 C   0  0  0  0  0  0  0  0  0  0  0  0
  -83.0019   31.4135    0.6625 C   0  0  0  0  0  0  0  0  0  0  0  0
  -84.2372   31.2708    1.2611 C   0  0  0  0  0  0  0  0  0  0  0  0
  -85.3365   31.9930    0.8192 C   0  0  0  0  0  0  0  0  0  0  0  0
  -91.5230   28.0206   -1.8715 C   0  0  0  0  0  0  0  0  0  0  0  0
  -92.0136   26.9812   -0.9141 N   0  0  0  0  0  0  0  0  0  0  0  0
  -91.8366   25.6325   -1.2763 C   0  0  0  0  0  0  0  0  0  0  0  0
  -91.2893   25.3021   -2.3551 O   0  0  0  0  0  0  0  0  0  0  0  0
  -92.4660   27.2363   -0.0200 H   0  0  0  0  0  0  0  0  0  0  0  0
  -92.2724   24.6276   -0.4321 O   0  0  0  0  0  0  0  0  0  0  0  0
  -91.4869   23.6456    0.1639 C   0  0  0  0  0  0  0  0  0  0  0  0
  -90.9024   24.0046    1.4671 C   0  0  0  0  0  0  0  0  0  0  0  0
  -90.1541   25.1570    1.6325 C   0  0  0  0  0  0  0  0  0  0  0  0
  -89.5999   25.4979    2.8454 C   0  0  0  0  0  0  0  0  0  0  0  0
  -89.7754   24.6909    3.9492 C   0  0  0  0  0  0  0  0  0  0  0  0
  -90.5198   23.5422    3.7890 C   0  0  0  0  0  0  0  0  0  0  0  0
  -91.0765   23.1971    2.5765 C   0  0  0  0  0  0  0  0  0  0  0  0
  -92.7789   28.7611   -2.2799 C   0  0  0  0  0  0  0  0  0  0  0  0
  -93.2116   28.6591   -3.6816 C   0  0  0  0  0  0  0  0  0  0  0  0
  -92.2339   29.3777   -4.5860 C   0  0  0  0  0  0  0  0  0  0  0  0
  -92.6936   29.4314   -5.9488 N   0  0  0  0  0  0  0  0  0  0  0  0
  -92.8266   30.3462   -6.4007 H   0  0  0  0  0  0  0  0  0  0  0  0
  -94.2997   27.8620   -6.9464 N   0  0  0  0  0  0  0  0  0  0  0  0
  -92.9584   28.2467   -6.6582 C   0  0  0  0  0  0  0  0  0  0  0  0
  -92.0302   27.4583   -7.0796 N   0  0  0  0  0  0  0  0  0  0  0  0
  -94.9665   28.5770   -7.2941 H   0  0  0  0  0  0  0  0  0  0  0  0
  -94.5445   26.8564   -6.7878 H   0  0  0  0  0  0  0  0  0  0  0  0
  -91.0262   27.6121   -6.9428 H   0  0  0  0  0  0  0  0  0  0  0  0
 44 45  1  0  0  0
 45 46  2  0  0  0
 45 42  1  0  0  0
 42 41  1  0  0  0
 41 40  1  0  0  0
 40 39  1  0  0  0
 39 26  1  0  0  0
 26 27  1  0  0  0
 27 28  1  0  0  0
 28 29  2  0  0  0
 28 31  1  0  0  0
 31 32  1  0  0  0
 32 33  1  0  0  0
 33 34  2  0  0  0
 34 35  1  0  0  0
 35 36  2  0  0  0
 36 37  1  0  0  0
 37 38  2  0  0  0
 26  1  1  0  0  0
  1  2  2  0  0  0
  1  3  1  0  0  0
  3  4  1  0  0  0
  4  5  1  0  0  0
  5  6  1  0  0  0
  6  7  1  0  0  0
  7  8  1  0  0  0
  8  9  2  0  0  0
  8 10  1  0  0  0
 10 12  1  0  0  0
 12 19  1  0  0  0
 19 20  1  0  0  0
 20 21  2  0  0  0
 21 22  1  0  0  0
 22 23  2  0  0  0
 23 24  1  0  0  0
 24 25  2  0  0  0
 12 13  1  0  0  0
 13 14  1  0  0  0
 13 15  2  0  0  0
 38 33  1  0  0  0
  7  3  1  0  0  0
 25 20  1  0  0  0
 44 47  1  0  0  0
 44 48  1  0  0  0
 46 49  1  0  0  0
 42 43  1  0  0  0
 27 30  1  0  0  0
 10 11  1  0  0  0
 14 16  1  0  0  0
 14 17  1  0  0  0
 15 18  1  0  0  0
M  END
> <minimizedAffinity>
-8.23099

> <CNNscore>
0.0971805155

> <CNNaffinity>
5.7540540695

> <CNN_VS>
0.5591819286

> <CNNaffinity_variance>
0.7358764410

$$$$
[H]N=C(N([H])[H])N([H])C([H])([H])C([H])([H])C([H])([H])[C@@]([H])(C(=O)N1C([H])([H])C([H])([H])C([H])([H])[C@@]1([H])C(=O)N([H])[C@]([H])(C(=N[H])N([H])[H])C([H])([H])c1c([H])c([H])c([H])c([H])c1[H])N([H])C(=O)OC([H])([H])c1c([H])c([H])c([H])c([H])c1[H]


 49 51  0  0  0  0  0  0  0  0999 V2000
  -89.4071   27.8327    0.2360 C   0  0  0  0  0  0  0  0  0  0  0  0
  -89.1587   29.0929    0.3218 O   0  0  0  0  0  0  0  0  0  0  0  0
  -89.5860   27.1772   -1.0016 N   0  0  0  0  0  0  0  0  0  0  0  0
  -89.7430   25.7435   -1.1191 C   0  0  0  0  0  0  0  0  0  0  0  0
  -90.9314   25.6933   -2.0930 C   0  0  0  0  0  0  0  0  0  0  0  0
  -90.3773   26.6587   -3.1531 C   0  0  0  0  0  0  0  0  0  0  0  0
  -89.6433   27.7208   -2.3203 C   0  0  0  0  0  0  0  0  0  0  0  0
  -90.3998   28.9928   -2.4571 C   0  0  0  0  0  0  0  0  0  0  0  0
  -91.6322   29.0897   -2.4585 O   0  0  0  0  0  0  0  0  0  0  0  0
  -89.6495   30.1893   -2.5970 N   0  0  0  0  0  0  0  0  0  0  0  0
  -88.6142   30.1352   -2.5966 H   0  0  0  0  0  0  0  0  0  0  0  0
  -90.3046   31.5093   -2.7385 C   0  0  0  0  0  0  0  0  0  0  0  0
  -89.9703   32.0936   -4.0578 C   0  0  0  0  0  0  0  0  0  0  0  0
  -89.0648   31.4246   -4.9441 N   0  0  0  0  0  0  0  0  0  0  0  0
  -90.5013   33.2289   -4.4199 N   0  0  0  0  0  0  0  0  0  0  0  0
  -88.2130   30.9743   -4.5307 H   0  0  0  0  0  0  0  0  0  0  0  0
  -89.1966   31.3572   -5.9616 H   0  0  0  0  0  0  0  0  0  0  0  0
  -91.1548   33.7588   -3.8316 H   0  0  0  0  0  0  0  0  0  0  0  0
  -89.8322   32.3494   -1.6043 C   0  0  0  0  0  0  0  0  0  0  0  0
  -88.4075   32.5957   -1.4856 C   0  0  0  0  0  0  0  0  0  0  0  0
  -87.6138   31.8284   -0.6700 C   0  0  0  0  0  0  0  0  0  0  0  0
  -86.2585   32.0295   -0.5295 C   0  0  0  0  0  0  0  0  0  0  0  0
  -85.6330   33.0408   -1.2255 C   0  0  0  0  0  0  0  0  0  0  0  0
  -86.4027   33.8312   -2.0546 C   0  0  0  0  0  0  0  0  0  0  0  0
  -87.7673   33.6171   -2.1863 C   0  0  0  0  0  0  0  0  0  0  0  0
  -89.4808   27.1599    1.5588 C   0  0  0  0  0  0  0  0  0  0  0  0
  -88.2521   27.5678    2.3083 N   0  0  0  0  0  0  0  0  0  0  0  0
  -87.0456   26.9257    1.9717 C   0  0  0  0  0  0  0  0  0  0  0  0
  -86.9889   26.0463    1.0795 O   0  0  0  0  0  0  0  0  0  0  0  0
  -88.2810   28.2918    3.0459 H   0  0  0  0  0  0  0  0  0  0  0  0
  -85.8775   27.2597    2.6325 O   0  0  0  0  0  0  0  0  0  0  0  0
  -84.6739   27.6424    2.0483 C   0  0  0  0  0  0  0  0  0  0  0  0
  -84.3894   29.0873    2.0692 C   0  0  0  0  0  0  0  0  0  0  0  0
  -85.1617   29.9669    2.8075 C   0  0  0  0  0  0  0  0  0  0  0  0
  -84.9064   31.3192    2.8289 C   0  0  0  0  0  0  0  0  0  0  0  0
  -83.8586   31.8475    2.1054 C   0  0  0  0  0  0  0  0  0  0  0  0
  -83.0869   30.9752    1.3686 C   0  0  0  0  0  0  0  0  0  0  0  0
  -83.3390   29.6206    1.3443 C   0  0  0  0  0  0  0  0  0  0  0  0
  -90.6161   27.7265    2.3848 C   0  0  0  0  0  0  0  0  0  0  0  0
  -90.4250   27.8247    3.8396 C   0  0  0  0  0  0  0  0  0  0  0  0
  -90.8297   26.5298    4.5102 C   0  0  0  0  0  0  0  0  0  0  0  0
  -89.7034   25.8392    5.0813 N   0  0  0  0  0  0  0  0  0  0  0  0
  -89.2595   26.2140    5.9306 H   0  0  0  0  0  0  0  0  0  0  0  0
  -89.8155   24.1466    3.3036 N   0  0  0  0  0  0  0  0  0  0  0  0
  -89.2129   24.6633    4.4868 C   0  0  0  0  0  0  0  0  0  0  0  0
  -88.2161   23.9993    4.9623 N   0  0  0  0  0  0  0  0  0  0  0  0
  -90.0525   24.7984    2.5317 H   0  0  0  0  0  0  0  0  0  0  0  0
  -89.9900   23.1146    3.2773 H   0  0  0  0  0  0  0  0  0  0  0  0
  -87.6913   24.2560    5.8044 H   0  0  0  0  0  0  0  0  0  0  0  0
 44 45  1  0  0  0
 45 46  2  0  0  0
 45 42  1  0  0  0
 42 41  1  0  0  0
 41 40  1  0  0  0
 40 39  1  0  0  0
 39 26  1  0  0  0
 26 27  1  0  0  0
 27 28  1  0  0  0
 28 29  2  0  0  0
 28 31  1  0  0  0
 31 32  1  0  0  0
 32 33  1  0  0  0
 33 34  2  0  0  0
 34 35  1  0  0  0
 35 36  2  0  0  0
 36 37  1  0  0  0
 37 38  2  0  0  0
 26  1  1  0  0  0
  1  2  2  0  0  0
  1  3  1  0  0  0
  3  4  1  0  0  0
  4  5  1  0  0  0
  5  6  1  0  0  0
  6  7  1  0  0  0
  7  8  1  0  0  0
  8  9  2  0  0  0
  8 10  1  0  0  0
 10 12  1  0  0  0
 12 19  1  0  0  0
 19 20  1  0  0  0
 20 21  2  0  0  0
 21 22  1  0  0  0
 22 23  2  0  0  0
 23 24  1  0  0  0
 24 25  2  0  0  0
 12 13  1  0  0  0
 13 14  1  0  0  0
 13 15  2  0  0  0
 38 33  1  0  0  0
  7  3  1  0  0  0
 25 20  1  0  0  0
 44 47  1  0  0  0
 44 48  1  0  0  0
 46 49  1  0  0  0
 42 43  1  0  0  0
 27 30  1  0  0  0
 10 11  1  0  0  0
 14 16  1  0  0  0
 14 17  1  0  0  0
 15 18  1  0  0  0
M  END
> <minimizedAffinity>
-8.91579

> <CNNscore>
0.0805630833

> <CNNaffinity>
6.5774865150

> <CNN_VS>
0.5299025774

> <CNNaffinity_variance>
0.3087735772

$$$$
[H]N=C(N([H])[H])N([H])C([H])([H])C([H])([H])C([H])([H])[C@@]([H])(C(=O)N1C([H])([H])C([H])([H])C([H])([H])[C@@]1([H])C(=O)N([H])[C@]([H])(C(=N[H])N([H])[H])C([H])([H])c1c([H])c([H])c([H])c([H])c1[H])N([H])C(=O)OC([H])([H])c1c([H])c([H])c([H])c([H])c1[H]


 49 51  0  0  0  0  0  0  0  0999 V2000
  -88.6172   28.2570   -1.2139 C   0  0  0  0  0  0  0  0  0  0  0  0
  -89.2622   27.4983   -2.0297 O   0  0  0  0  0  0  0  0  0  0  0  0
  -87.8153   27.7425   -0.1721 N   0  0  0  0  0  0  0  0  0  0  0  0
  -86.9893   28.5776    0.6731 C   0  0  0  0  0  0  0  0  0  0  0  0
  -87.3446   27.9855    2.0467 C   0  0  0  0  0  0  0  0  0  0  0  0
  -87.1243   26.5038    1.7020 C   0  0  0  0  0  0  0  0  0  0  0  0
  -87.6358   26.3931    0.2575 C   0  0  0  0  0  0  0  0  0  0  0  0
  -88.8662   25.5599    0.2851 C   0  0  0  0  0  0  0  0  0  0  0  0
  -89.8314   25.7429    1.0358 O   0  0  0  0  0  0  0  0  0  0  0  0
  -88.9394   24.4695   -0.6204 N   0  0  0  0  0  0  0  0  0  0  0  0
  -88.1439   24.2961   -1.2622 H   0  0  0  0  0  0  0  0  0  0  0  0
  -90.1204   23.5787   -0.6754 C   0  0  0  0  0  0  0  0  0  0  0  0
  -89.8572   22.3516    0.1112 C   0  0  0  0  0  0  0  0  0  0  0  0
  -90.8106   21.8820    1.0722 N   0  0  0  0  0  0  0  0  0  0  0  0
  -88.7473   21.6897   -0.0678 N   0  0  0  0  0  0  0  0  0  0  0  0
  -91.2934   22.5914    1.6745 H   0  0  0  0  0  0  0  0  0  0  0  0
  -91.0526   20.8922    1.2096 H   0  0  0  0  0  0  0  0  0  0  0  0
  -88.0234   21.9735   -0.7382 H   0  0  0  0  0  0  0  0  0  0  0  0
  -90.3786   23.2925   -2.1130 C   0  0  0  0  0  0  0  0  0  0  0  0
  -91.6474   23.7155   -2.6752 C   0  0  0  0  0  0  0  0  0  0  0  0
  -92.0401   25.0303   -2.6469 C   0  0  0  0  0  0  0  0  0  0  0  0
  -93.2355   25.4724   -3.1691 C   0  0  0  0  0  0  0  0  0  0  0  0
  -94.1061   24.5806   -3.7568 C   0  0  0  0  0  0  0  0  0  0  0  0
  -93.7413   23.2504   -3.8015 C   0  0  0  0  0  0  0  0  0  0  0  0
  -92.5337   22.8192   -3.2712 C   0  0  0  0  0  0  0  0  0  0  0  0
  -88.8066   29.7050   -1.4885 C   0  0  0  0  0  0  0  0  0  0  0  0
  -87.4388   30.3096   -1.5255 N   0  0  0  0  0  0  0  0  0  0  0  0
  -87.3010   31.6285   -1.0537 C   0  0  0  0  0  0  0  0  0  0  0  0
  -88.2779   32.2813   -0.6153 O   0  0  0  0  0  0  0  0  0  0  0  0
  -86.6224   29.7850   -1.8827 H   0  0  0  0  0  0  0  0  0  0  0  0
  -86.0610   32.2407   -1.0658 O   0  0  0  0  0  0  0  0  0  0  0  0
  -85.3327   32.6622    0.0426 C   0  0  0  0  0  0  0  0  0  0  0  0
  -84.5938   31.6063    0.7553 C   0  0  0  0  0  0  0  0  0  0  0  0
  -83.4122   31.0863    0.2566 C   0  0  0  0  0  0  0  0  0  0  0  0
  -82.7176   30.0960    0.9133 C   0  0  0  0  0  0  0  0  0  0  0  0
  -83.1835   29.5837    2.1053 C   0  0  0  0  0  0  0  0  0  0  0  0
  -84.3600   30.0986    2.6056 C   0  0  0  0  0  0  0  0  0  0  0  0
  -85.0586   31.0901    1.9514 C   0  0  0  0  0  0  0  0  0  0  0  0
  -89.3373   29.9190   -2.8902 C   0  0  0  0  0  0  0  0  0  0  0  0
  -90.4556   30.8575   -3.0658 C   0  0  0  0  0  0  0  0  0  0  0  0
  -91.6353   30.1546   -3.7018 C   0  0  0  0  0  0  0  0  0  0  0  0
  -91.9277   28.8985   -3.0629 N   0  0  0  0  0  0  0  0  0  0  0  0
  -91.6023   28.0240   -3.4968 H   0  0  0  0  0  0  0  0  0  0  0  0
  -94.0153   29.2713   -1.8216 N   0  0  0  0  0  0  0  0  0  0  0  0
  -92.6504   28.8639   -1.8574 C   0  0  0  0  0  0  0  0  0  0  0  0
  -92.1370   28.4725   -0.7421 N   0  0  0  0  0  0  0  0  0  0  0  0
  -94.6588   28.9469   -2.5682 H   0  0  0  0  0  0  0  0  0  0  0  0
  -94.3003   29.8896   -1.0262 H   0  0  0  0  0  0  0  0  0  0  0  0
  -91.1702   28.1537   -0.6239 H   0  0  0  0  0  0  0  0  0  0  0  0
 44 45  1  0  0  0
 45 46  2  0  0  0
 45 42  1  0  0  0
 42 41  1  0  0  0
 41 40  1  0  0  0
 40 39  1  0  0  0
 39 26  1  0  0  0
 26 27  1  0  0  0
 27 28  1  0  0  0
 28 29  2  0  0  0
 28 31  1  0  0  0
 31 32  1  0  0  0
 32 33  1  0  0  0
 33 34  2  0  0  0
 34 35  1  0  0  0
 35 36  2  0  0  0
 36 37  1  0  0  0
 37 38  2  0  0  0
 26  1  1  0  0  0
  1  2  2  0  0  0
  1  3  1  0  0  0
  3  4  1  0  0  0
  4  5  1  0  0  0
  5  6  1  0  0  0
  6  7  1  0  0  0
  7  8  1  0  0  0
  8  9  2  0  0  0
  8 10  1  0  0  0
 10 12  1  0  0  0
 12 19  1  0  0  0
 19 20  1  0  0  0
 20 21  2  0  0  0
 21 22  1  0  0  0
 22 23  2  0  0  0
 23 24  1  0  0  0
 24 25  2  0  0  0
 12 13  1  0  0  0
 13 14  1  0  0  0
 13 15  2  0  0  0
 38 33  1  0  0  0
  7  3  1  0  0  0
 25 20  1  0  0  0
 44 47  1  0  0  0
 44 48  1  0  0  0
 46 49  1  0  0  0
 42 43  1  0  0  0
 27 30  1  0  0  0
 10 11  1  0  0  0
 14 16  1  0  0  0
 14 17  1  0  0  0
 15 18  1  0  0  0
M  END
> <minimizedAffinity>
-8.22353

> <CNNscore>
0.0772333592

> <CNNaffinity>
5.6597671509

> <CNN_VS>
0.4371228218

> <CNNaffinity_variance>
1.1705751419

$$$$
[H]N=C(N([H])[H])N([H])C([H])([H])C([H])([H])C([H])([H])[C@@]([H])(C(=O)N1C([H])([H])C([H])([H])C([H])([H])[C@@]1([H])C(=O)N([H])[C@]([H])(C(=N[H])N([H])[H])C([H])([H])c1c([H])c([H])c([H])c([H])c1[H])N([H])C(=O)OC([H])([H])c1c([H])c([H])c([H])c([H])c1[H]


 49 51  0  0  0  0  0  0  0  0999 V2000
  -89.7565   26.4336    1.1927 C   0  0  0  0  0  0  0  0  0  0  0  0
  -89.6695   25.3911    0.4426 O   0  0  0  0  0  0  0  0  0  0  0  0
  -89.6863   26.3630    2.6011 N   0  0  0  0  0  0  0  0  0  0  0  0
  -89.6590   27.5353    3.4489 C   0  0  0  0  0  0  0  0  0  0  0  0
  -90.6882   27.1106    4.5091 C   0  0  0  0  0  0  0  0  0  0  0  0
  -90.1088   25.7218    4.8224 C   0  0  0  0  0  0  0  0  0  0  0  0
  -89.6240   25.2198    3.4536 C   0  0  0  0  0  0  0  0  0  0  0  0
  -90.4963   24.0812    3.0642 C   0  0  0  0  0  0  0  0  0  0  0  0
  -91.6301   23.8702    3.5096 O   0  0  0  0  0  0  0  0  0  0  0  0
  -89.9888   23.1649    2.1066 N   0  0  0  0  0  0  0  0  0  0  0  0
  -89.0413   23.3209    1.7160 H   0  0  0  0  0  0  0  0  0  0  0  0
  -90.7765   21.9980    1.6490 C   0  0  0  0  0  0  0  0  0  0  0  0
  -90.2704   20.7677    2.3001 C   0  0  0  0  0  0  0  0  0  0  0  0
  -88.9350   20.3092    2.0560 N   0  0  0  0  0  0  0  0  0  0  0  0
  -91.0446   20.0906    3.1026 N   0  0  0  0  0  0  0  0  0  0  0  0
  -88.5645   20.3693    1.0770 H   0  0  0  0  0  0  0  0  0  0  0  0
  -88.3151   19.9243    2.7803 H   0  0  0  0  0  0  0  0  0  0  0  0
  -92.0106   20.3638    3.3177 H   0  0  0  0  0  0  0  0  0  0  0  0
  -90.6571   21.9513    0.1662 C   0  0  0  0  0  0  0  0  0  0  0  0
  -91.4426   22.8914   -0.6110 C   0  0  0  0  0  0  0  0  0  0  0  0
  -92.5885   23.4547   -0.1077 C   0  0  0  0  0  0  0  0  0  0  0  0
  -93.3619   24.3503   -0.8126 C   0  0  0  0  0  0  0  0  0  0  0  0
  -92.9995   24.7235   -2.0885 C   0  0  0  0  0  0  0  0  0  0  0  0
  -91.8520   24.1751   -2.6244 C   0  0  0  0  0  0  0  0  0  0  0  0
  -91.0826   23.2737   -1.9026 C   0  0  0  0  0  0  0  0  0  0  0  0
  -89.9333   27.6934    0.4248 C   0  0  0  0  0  0  0  0  0  0  0  0
  -88.5594   28.1682    0.0716 N   0  0  0  0  0  0  0  0  0  0  0  0
  -88.3988   29.5398   -0.2011 C   0  0  0  0  0  0  0  0  0  0  0  0
  -89.3608   30.3427   -0.1516 O   0  0  0  0  0  0  0  0  0  0  0  0
  -87.7551   27.5199    0.0273 H   0  0  0  0  0  0  0  0  0  0  0  0
  -87.1522   30.0363   -0.5357 O   0  0  0  0  0  0  0  0  0  0  0  0
  -86.3853   30.9256    0.2110 C   0  0  0  0  0  0  0  0  0  0  0  0
  -85.1777   30.3558    0.8322 C   0  0  0  0  0  0  0  0  0  0  0  0
  -85.2323   29.2064    1.6011 C   0  0  0  0  0  0  0  0  0  0  0  0
  -84.1099   28.6695    2.1895 C   0  0  0  0  0  0  0  0  0  0  0  0
  -82.8785   29.2683    2.0293 C   0  0  0  0  0  0  0  0  0  0  0  0
  -82.8195   30.4133    1.2645 C   0  0  0  0  0  0  0  0  0  0  0  0
  -83.9408   30.9541    0.6735 C   0  0  0  0  0  0  0  0  0  0  0  0
  -90.5787   27.4163   -0.9165 C   0  0  0  0  0  0  0  0  0  0  0  0
  -91.7617   28.2076   -1.2863 C   0  0  0  0  0  0  0  0  0  0  0  0
  -91.6878   28.6118   -2.7429 C   0  0  0  0  0  0  0  0  0  0  0  0
  -90.4666   29.3080   -3.0519 N   0  0  0  0  0  0  0  0  0  0  0  0
  -89.5663   28.8239   -2.9341 H   0  0  0  0  0  0  0  0  0  0  0  0
  -90.8080   31.7020   -2.6162 N   0  0  0  0  0  0  0  0  0  0  0  0
  -90.5009   30.6365   -3.5109 C   0  0  0  0  0  0  0  0  0  0  0  0
  -90.2631   30.9628   -4.7347 N   0  0  0  0  0  0  0  0  0  0  0  0
  -90.3632   31.7183   -1.6788 H   0  0  0  0  0  0  0  0  0  0  0  0
  -91.4808   32.4262   -2.9614 H   0  0  0  0  0  0  0  0  0  0  0  0
  -90.0300   30.3005   -5.4813 H   0  0  0  0  0  0  0  0  0  0  0  0
 44 45  1  0  0  0
 45 46  2  0  0  0
 45 42  1  0  0  0
 42 41  1  0  0  0
 41 40  1  0  0  0
 40 39  1  0  0  0
 39 26  1  0  0  0
 26 27  1  0  0  0
 27 28  1  0  0  0
 28 29  2  0  0  0
 28 31  1  0  0  0
 31 32  1  0  0  0
 32 33  1  0  0  0
 33 34  2  0  0  0
 34 35  1  0  0  0
 35 36  2  0  0  0
 36 37  1  0  0  0
 37 38  2  0  0  0
 26  1  1  0  0  0
  1  2  2  0  0  0
  1  3  1  0  0  0
  3  4  1  0  0  0
  4  5  1  0  0  0
  5  6  1  0  0  0
  6  7  1  0  0  0
  7  8  1  0  0  0
  8  9  2  0  0  0
  8 10  1  0  0  0
 10 12  1  0  0  0
 12 19  1  0  0  0
 19 20  1  0  0  0
 20 21  2  0  0  0
 21 22  1  0  0  0
 22 23  2  0  0  0
 23 24  1  0  0  0
 24 25  2  0  0  0
 12 13  1  0  0  0
 13 14  1  0  0  0
 13 15  2  0  0  0
 38 33  1  0  0  0
  7  3  1  0  0  0
 25 20  1  0  0  0
 44 47  1  0  0  0
 44 48  1  0  0  0
 46 49  1  0  0  0
 42 43  1  0  0  0
 27 30  1  0  0  0
 10 11  1  0  0  0
 14 16  1  0  0  0
 14 17  1  0  0  0
 15 18  1  0  0  0
M  END
> <minimizedAffinity>
-8.58771

> <CNNscore>
0.0736069679

> <CNNaffinity>
5.9278650284

> <CNN_VS>
0.4363321662

> <CNNaffinity_variance>
0.9071555138

$$$$
[H]C1=C2C([H])([H])C([H])([H])C3([H])C4([H])C([H])([H])C([H])([H])C([H])(n5c([H])nc([H])c5[H])[C@@]4(C([H])([H])[H])C([H])([H])C([H])([H])C3([H])[C@@]2(C([H])([H])[H])C([H])([H])C([H])([H])C1=O


 25 29  0  0  0  0  0  0  0  0999 V2000
  -87.3967   31.5668   -4.1563 C   0  0  0  0  0  0  0  0  0  0  0  0
  -87.4996   32.8855   -3.3784 C   0  0  0  0  0  0  0  0  0  0  0  0
  -86.1629   33.2656   -2.9267 C   0  0  0  0  0  0  0  0  0  0  0  0
  -85.8910   33.2324   -1.4636 C   0  0  0  0  0  0  0  0  0  0  0  0
  -86.6289   32.2443   -0.6520 C   0  0  0  0  0  0  0  0  0  0  0  0
  -87.7421   31.5215   -1.4320 C   0  0  0  0  0  0  0  0  0  0  0  0
  -88.5649   30.7793   -0.4321 C   0  0  0  0  0  0  0  0  0  0  0  0
  -87.7626   29.5639   -0.0131 C   0  0  0  0  0  0  0  0  0  0  0  0
  -86.4716   30.0629    0.5371 C   0  0  0  0  0  0  0  0  0  0  0  0
  -85.9305   29.3159    1.4860 C   0  0  0  0  0  0  0  0  0  0  0  0
  -84.6602   29.7296    2.0858 C   0  0  0  0  0  0  0  0  0  0  0  0
  -83.8278   28.9182    2.5396 O   0  0  0  0  0  0  0  0  0  0  0  0
  -84.3339   31.1763    2.1644 C   0  0  0  0  0  0  0  0  0  0  0  0
  -85.2966   32.0116    1.3646 C   0  0  0  0  0  0  0  0  0  0  0  0
  -85.7807   31.2759    0.1168 C   0  0  0  0  0  0  0  0  0  0  0  0
  -84.5575   30.8527   -0.7058 C   0  0  0  0  0  0  0  0  0  0  0  0
  -88.4039   32.5980   -2.1765 C   0  0  0  0  0  0  0  0  0  0  0  0
  -89.7077   32.3765   -2.7909 C   0  0  0  0  0  0  0  0  0  0  0  0
  -89.7616   33.4762   -3.8355 C   0  0  0  0  0  0  0  0  0  0  0  0
  -88.3014   33.8178   -4.1688 C   0  0  0  0  0  0  0  0  0  0  0  0
  -88.0432   35.2229   -3.9775 N   0  0  0  0  0  0  0  0  0  0  0  0
  -88.6053   36.0940   -3.1361 C   0  0  0  0  0  0  0  0  0  0  0  0
  -88.0286   37.3226   -3.3203 C   0  0  0  0  0  0  0  0  0  0  0  0
  -87.1116   37.1919   -4.2800 N   0  0  0  0  0  0  0  0  0  0  0  0
  -87.1288   35.9233   -4.6686 C   0  0  0  0  0  0  0  0  0  0  0  0
  2  1  1  0  0  0
  2  3  1  0  0  0
  3  4  1  0  0  0
  4  5  1  0  0  0
  5  6  1  0  0  0
  6  7  1  0  0  0
  7  8  1  0  0  0
  8  9  1  0  0  0
  9 10  2  0  0  0
 10 11  1  0  0  0
 11 12  2  0  0  0
 11 13  1  0  0  0
 13 14  1  0  0  0
 14 15  1  0  0  0
 15 16  1  0  0  0
  6 17  1  0  0  0
 17 18  1  0  0  0
 18 19  1  0  0  0
 19 20  1  0  0  0
 20 21  1  0  0  0
 21 22  1  0  0  0
 22 23  2  0  0  0
 23 24  1  0  0  0
 24 25  2  0  0  0
 17  2  1  0  0  0
 25 21  1  0  0  0
 20  2  1  0  0  0
 15  5  1  0  0  0
 15  9  1  0  0  0
M  END
> <minimizedAffinity>
-8.44685

> <CNNscore>
0.4709222317

> <CNNaffinity>
6.7530112267

> <CNN_VS>
3.1801431179

> <CNNaffinity_variance>
0.3523549438

$$$$
[H]C1=C2C([H])([H])C([H])([H])C3([H])C4([H])C([H])([H])C([H])([H])C([H])(n5c([H])nc([H])c5[H])[C@@]4(C([H])([H])[H])C([H])([H])C([H])([H])C3([H])[C@@]2(C([H])([H])[H])C([H])([H])C([H])([H])C1=O


 25 29  0  0  0  0  0  0  0  0999 V2000
  -84.1764   31.6732   -1.0409 C   0  0  0  0  0  0  0  0  0  0  0  0
  -84.6708   30.6638    0.0038 C   0  0  0  0  0  0  0  0  0  0  0  0
  -85.0256   29.4219   -0.6795 C   0  0  0  0  0  0  0  0  0  0  0  0
  -86.4628   29.0358   -0.7120 C   0  0  0  0  0  0  0  0  0  0  0  0
  -87.4639   30.1209   -0.7077 C   0  0  0  0  0  0  0  0  0  0  0  0
  -86.8555   31.5130   -0.4583 C   0  0  0  0  0  0  0  0  0  0  0  0
  -87.9917   32.4471   -0.2049 C   0  0  0  0  0  0  0  0  0  0  0  0
  -88.6428   32.7263   -1.5445 C   0  0  0  0  0  0  0  0  0  0  0  0
  -89.0703   31.4134   -2.1029 C   0  0  0  0  0  0  0  0  0  0  0  0
  -90.1470   31.4450   -2.8715 C   0  0  0  0  0  0  0  0  0  0  0  0
  -90.6405   30.2001   -3.4641 C   0  0  0  0  0  0  0  0  0  0  0  0
  -91.2435   30.1605   -4.5560 O   0  0  0  0  0  0  0  0  0  0  0  0
  -90.4211   28.9194   -2.7452 C   0  0  0  0  0  0  0  0  0  0  0  0
  -89.4755   29.0828   -1.5861 C   0  0  0  0  0  0  0  0  0  0  0  0
  -88.4070   30.1356   -1.8734 C   0  0  0  0  0  0  0  0  0  0  0  0
  -87.6783   29.7513   -3.1669 C   0  0  0  0  0  0  0  0  0  0  0  0
  -85.9128   31.2912    0.6430 C   0  0  0  0  0  0  0  0  0  0  0  0
  -85.3662   32.4213    1.3850 C   0  0  0  0  0  0  0  0  0  0  0  0
  -84.1204   31.8221    2.0113 C   0  0  0  0  0  0  0  0  0  0  0  0
  -83.7135   30.6477    1.1084 C   0  0  0  0  0  0  0  0  0  0  0  0
  -83.6133   29.4251    1.8653 N   0  0  0  0  0  0  0  0  0  0  0  0
  -82.5567   28.6436    2.1010 C   0  0  0  0  0  0  0  0  0  0  0  0
  -82.9525   27.5860    2.8761 C   0  0  0  0  0  0  0  0  0  0  0  0
  -84.2578   27.7304    3.1098 N   0  0  0  0  0  0  0  0  0  0  0  0
  -84.6453   28.8412    2.4964 C   0  0  0  0  0  0  0  0  0  0  0  0
  2  1  1  0  0  0
  2  3  1  0  0  0
  3  4  1  0  0  0
  4  5  1  0  0  0
  5  6  1  0  0  0
  6  7  1  0  0  0
  7  8  1  0  0  0
  8  9  1  0  0  0
  9 10  2  0  0  0
 10 11  1  0  0  0
 11 12  2  0  0  0
 11 13  1  0  0  0
 13 14  1  0  0  0
 14 15  1  0  0  0
 15 16  1  0  0  0
  6 17  1  0  0  0
 17 18  1  0  0  0
 18 19  1  0  0  0
 19 20  1  0  0  0
 20 21  1  0  0  0
 21 22  1  0  0  0
 22 23  2  0  0  0
 23 24  1  0  0  0
 24 25  2  0  0  0
 17  2  1  0  0  0
 25 21  1  0  0  0
 20  2  1  0  0  0
 15  5  1  0  0  0
 15  9  1  0  0  0
M  END
> <minimizedAffinity>
-7.26884

> <CNNscore>
0.4022114873

> <CNNaffinity>
6.6694502831

> <CNN_VS>
2.6825294495

> <CNNaffinity_variance>
0.1939852387

$$$$
[H]C1=C2C([H])([H])C([H])([H])C3([H])C4([H])C([H])([H])C([H])([H])C([H])(n5c([H])nc([H])c5[H])[C@@]4(C([H])([H])[H])C([H])([H])C([H])([H])C3([H])[C@@]2(C([H])([H])[H])C([H])([H])C([H])([H])C1=O


 25 29  0  0  0  0  0  0  0  0999 V2000
  -87.3594   29.3939   -2.1076 C   0  0  0  0  0  0  0  0  0  0  0  0
  -86.9352   29.7462   -0.6756 C   0  0  0  0  0  0  0  0  0  0  0  0
  -86.3470   28.5595   -0.0585 C   0  0  0  0  0  0  0  0  0  0  0  0
  -87.0897   27.9222    1.0630 C   0  0  0  0  0  0  0  0  0  0  0  0
  -88.5622   28.0279    1.0571 C   0  0  0  0  0  0  0  0  0  0  0  0
  -89.1025   28.9791   -0.0262 C   0  0  0  0  0  0  0  0  0  0  0  0
  -90.5494   29.1983    0.2673 C   0  0  0  0  0  0  0  0  0  0  0  0
  -91.2825   27.9413   -0.1555 C   0  0  0  0  0  0  0  0  0  0  0  0
  -90.6883   26.8117    0.6120 C   0  0  0  0  0  0  0  0  0  0  0  0
  -91.5140   25.8157    0.8904 C   0  0  0  0  0  0  0  0  0  0  0  0
  -91.0163   24.6619    1.6424 C   0  0  0  0  0  0  0  0  0  0  0  0
  -91.4760   23.5104    1.5014 O   0  0  0  0  0  0  0  0  0  0  0  0
  -89.9154   24.8553    2.6202 C   0  0  0  0  0  0  0  0  0  0  0  0
  -89.2978   26.2226    2.5047 C   0  0  0  0  0  0  0  0  0  0  0  0
  -89.3044   26.7250    1.0625 C   0  0  0  0  0  0  0  0  0  0  0  0
  -88.5929   25.6906    0.1818 C   0  0  0  0  0  0  0  0  0  0  0  0
  -88.2179   30.1457    0.0591 C   0  0  0  0  0  0  0  0  0  0  0  0
  -88.5885   31.4010   -0.5840 C   0  0  0  0  0  0  0  0  0  0  0  0
  -87.2507   32.1072   -0.7050 C   0  0  0  0  0  0  0  0  0  0  0  0
  -86.1854   31.0004   -0.7196 C   0  0  0  0  0  0  0  0  0  0  0  0
  -85.2076   31.2110    0.3182 N   0  0  0  0  0  0  0  0  0  0  0  0
  -85.3552   31.2459    1.6448 C   0  0  0  0  0  0  0  0  0  0  0  0
  -84.1339   31.4767    2.2201 C   0  0  0  0  0  0  0  0  0  0  0  0
  -83.2426   31.5819    1.2334 N   0  0  0  0  0  0  0  0  0  0  0  0
  -83.9001   31.4202    0.0923 C   0  0  0  0  0  0  0  0  0  0  0  0
  2  1  1  0  0  0
  2  3  1  0  0  0
  3  4  1  0  0  0
  4  5  1  0  0  0
  5  6  1  0  0  0
  6  7  1  0  0  0
  7  8  1  0  0  0
  8  9  1  0  0  0
  9 10  2  0  0  0
 10 11  1  0  0  0
 11 12  2  0  0  0
 11 13  1  0  0  0
 13 14  1  0  0  0
 14 15  1  0  0  0
 15 16  1  0  0  0
  6 17  1  0  0  0
 17 18  1  0  0  0
 18 19  1  0  0  0
 19 20  1  0  0  0
 20 21  1  0  0  0
 21 22  1  0  0  0
 22 23  2  0  0  0
 23 24  1  0  0  0
 24 25  2  0  0  0
 17  2  1  0  0  0
 25 21  1  0  0  0
 20  2  1  0  0  0
 15  5  1  0  0  0
 15  9  1  0  0  0
M  END
> <minimizedAffinity>
-8.16987

> <CNNscore>
0.2234245688

> <CNNaffinity>
6.5314078331

> <CNN_VS>
1.4592770338

> <CNNaffinity_variance>
0.2236323059

$$$$
[H]C1=C2C([H])([H])C([H])([H])C3([H])C4([H])C([H])([H])C([H])([H])C([H])(n5c([H])nc([H])c5[H])[C@@]4(C([H])([H])[H])C([H])([H])C([H])([H])C3([H])[C@@]2(C([H])([H])[H])C([H])([H])C([H])([H])C1=O


 25 29  0  0  0  0  0  0  0  0999 V2000
  -88.9828   30.7155   -0.2945 C   0  0  0  0  0  0  0  0  0  0  0  0
  -87.4983   31.0242   -0.5307 C   0  0  0  0  0  0  0  0  0  0  0  0
  -87.3006   32.4683   -0.4277 C   0  0  0  0  0  0  0  0  0  0  0  0
  -86.9329   33.2068   -1.6667 C   0  0  0  0  0  0  0  0  0  0  0  0
  -87.4288   32.6773   -2.9525 C   0  0  0  0  0  0  0  0  0  0  0  0
  -88.0952   31.2950   -2.8281 C   0  0  0  0  0  0  0  0  0  0  0  0
  -88.2862   30.7759   -4.2144 C   0  0  0  0  0  0  0  0  0  0  0  0
  -89.4546   31.5325   -4.8135 C   0  0  0  0  0  0  0  0  0  0  0  0
  -89.1061   32.9797   -4.7670 C   0  0  0  0  0  0  0  0  0  0  0  0
  -89.6182   33.7201   -5.7370 C   0  0  0  0  0  0  0  0  0  0  0  0
  -89.3284   35.1551   -5.7715 C   0  0  0  0  0  0  0  0  0  0  0  0
  -90.1193   35.9961   -6.2452 O   0  0  0  0  0  0  0  0  0  0  0  0
  -88.0394   35.6467   -5.2217 C   0  0  0  0  0  0  0  0  0  0  0  0
  -87.3060   34.5711   -4.4672 C   0  0  0  0  0  0  0  0  0  0  0  0
  -88.2696   33.6207   -3.7596 C   0  0  0  0  0  0  0  0  0  0  0  0
  -89.1879   34.4450   -2.8491 C   0  0  0  0  0  0  0  0  0  0  0  0
  -87.1881   30.5463   -1.9521 C   0  0  0  0  0  0  0  0  0  0  0  0
  -87.2976   29.0962   -1.8432 C   0  0  0  0  0  0  0  0  0  0  0  0
  -86.5971   28.8192   -0.5257 C   0  0  0  0  0  0  0  0  0  0  0  0
  -86.7079   30.1131    0.2950 C   0  0  0  0  0  0  0  0  0  0  0  0
  -85.4070   30.5739    0.7108 N   0  0  0  0  0  0  0  0  0  0  0  0
  -84.2453   30.5783    0.0528 C   0  0  0  0  0  0  0  0  0  0  0  0
  -83.2805   31.1179    0.8615 C   0  0  0  0  0  0  0  0  0  0  0  0
  -83.8644   31.4414    2.0162 N   0  0  0  0  0  0  0  0  0  0  0  0
  -85.1451   31.1096    1.9145 C   0  0  0  0  0  0  0  0  0  0  0  0
  2  1  1  0  0  0
  2  3  1  0  0  0
  3  4  1  0  0  0
  4  5  1  0  0  0
  5  6  1  0  0  0
  6  7  1  0  0  0
  7  8  1  0  0  0
  8  9  1  0  0  0
  9 10  2  0  0  0
 10 11  1  0  0  0
 11 12  2  0  0  0
 11 13  1  0  0  0
 13 14  1  0  0  0
 14 15  1  0  0  0
 15 16  1  0  0  0
  6 17  1  0  0  0
 17 18  1  0  0  0
 18 19  1  0  0  0
 19 20  1  0  0  0
 20 21  1  0  0  0
 21 22  1  0  0  0
 22 23  2  0  0  0
 23 24  1  0  0  0
 24 25  2  0  0  0
 17  2  1  0  0  0
 25 21  1  0  0  0
 20  2  1  0  0  0
 15  5  1  0  0  0
 15  9  1  0  0  0
M  END
> <minimizedAffinity>
-8.83374

> <CNNscore>
0.1881928295

> <CNNaffinity>
6.1235294342

> <CNN_VS>
1.1524043083

> <CNNaffinity_variance>
0.0417442694

$$$$
[H]C1=C2C([H])([H])C([H])([H])C3([H])C4([H])C([H])([H])C([H])([H])C([H])(n5c([H])nc([H])c5[H])[C@@]4(C([H])([H])[H])C([H])([H])C([H])([H])C3([H])[C@@]2(C([H])([H])[H])C([H])([H])C([H])([H])C1=O


 25 29  0  0  0  0  0  0  0  0999 V2000
  -88.2123   30.7468   -4.5184 C   0  0  0  0  0  0  0  0  0  0  0  0
  -88.0407   31.2934   -3.0948 C   0  0  0  0  0  0  0  0  0  0  0  0
  -87.4965   30.2321   -2.2507 C   0  0  0  0  0  0  0  0  0  0  0  0
  -88.3736   29.6781   -1.1832 C   0  0  0  0  0  0  0  0  0  0  0  0
  -89.8300   29.6764   -1.4256 C   0  0  0  0  0  0  0  0  0  0  0  0
  -90.2403   30.4533   -2.6897 C   0  0  0  0  0  0  0  0  0  0  0  0
  -91.7249   30.6008   -2.6491 C   0  0  0  0  0  0  0  0  0  0  0  0
  -92.3140   29.2535   -3.0158 C   0  0  0  0  0  0  0  0  0  0  0  0
  -91.7907   28.2668   -2.0305 C   0  0  0  0  0  0  0  0  0  0  0  0
  -92.5965   27.2534   -1.7568 C   0  0  0  0  0  0  0  0  0  0  0  0
  -92.1647   26.2339   -0.7983 C   0  0  0  0  0  0  0  0  0  0  0  0
  -92.5347   25.0437   -0.8606 O   0  0  0  0  0  0  0  0  0  0  0  0
  -91.2454   26.6187    0.3027 C   0  0  0  0  0  0  0  0  0  0  0  0
  -90.6903   28.0040    0.1103 C   0  0  0  0  0  0  0  0  0  0  0  0
  -90.4937   28.3330   -1.3681 C   0  0  0  0  0  0  0  0  0  0  0  0
  -89.5973   27.2568   -1.9928 C   0  0  0  0  0  0  0  0  0  0  0  0
  -89.4434   31.6826   -2.6195 C   0  0  0  0  0  0  0  0  0  0  0  0
  -89.7726   32.8243   -3.4648 C   0  0  0  0  0  0  0  0  0  0  0  0
  -88.4717   33.6059   -3.4699 C   0  0  0  0  0  0  0  0  0  0  0  0
  -87.3608   32.5844   -3.1828 C   0  0  0  0  0  0  0  0  0  0  0  0
  -86.5733   32.9844   -2.0438 N   0  0  0  0  0  0  0  0  0  0  0  0
  -86.9511   33.2787   -0.7975 C   0  0  0  0  0  0  0  0  0  0  0  0
  -85.8415   33.6061   -0.0642 C   0  0  0  0  0  0  0  0  0  0  0  0
  -84.7863   33.5086   -0.8741 N   0  0  0  0  0  0  0  0  0  0  0  0
  -85.2385   33.1335   -2.0638 C   0  0  0  0  0  0  0  0  0  0  0  0
  2  1  1  0  0  0
  2  3  1  0  0  0
  3  4  1  0  0  0
  4  5  1  0  0  0
  5  6  1  0  0  0
  6  7  1  0  0  0
  7  8  1  0  0  0
  8  9  1  0  0  0
  9 10  2  0  0  0
 10 11  1  0  0  0
 11 12  2  0  0  0
 11 13  1  0  0  0
 13 14  1  0  0  0
 14 15  1  0  0  0
 15 16  1  0  0  0
  6 17  1  0  0  0
 17 18  1  0  0  0
 18 19  1  0  0  0
 19 20  1  0  0  0
 20 21  1  0  0  0
 21 22  1  0  0  0
 22 23  2  0  0  0
 23 24  1  0  0  0
 24 25  2  0  0  0
 17  2  1  0  0  0
 25 21  1  0  0  0
 20  2  1  0  0  0
 15  5  1  0  0  0
 15  9  1  0  0  0
M  END
> <minimizedAffinity>
-6.24245

> <CNNscore>
0.1599199623

> <CNNaffinity>
6.0581641197

> <CNN_VS>
0.9688214064

> <CNNaffinity_variance>
0.0797671899

$$$$
[H]C1=C2C([H])([H])C([H])([H])C3([H])C4([H])C([H])([H])C([H])([H])C([H])(n5c([H])nc([H])c5[H])[C@@]4(C([H])([H])[H])C([H])([H])C([H])([H])C3([H])[C@@]2(C([H])([H])[H])C([H])([H])C([H])([H])C1=O


 25 29  0  0  0  0  0  0  0  0999 V2000
  -89.4351   29.8774   -0.7506 C   0  0  0  0  0  0  0  0  0  0  0  0
  -87.9187   30.1010   -0.6776 C   0  0  0  0  0  0  0  0  0  0  0  0
  -87.6705   31.4643   -0.2141 C   0  0  0  0  0  0  0  0  0  0  0  0
  -87.0623   32.4229   -1.1769 C   0  0  0  0  0  0  0  0  0  0  0  0
  -87.3584   32.2343   -2.6109 C   0  0  0  0  0  0  0  0  0  0  0  0
  -88.1034   30.9215   -2.9138 C   0  0  0  0  0  0  0  0  0  0  0  0
  -88.0818   30.7389   -4.3949 C   0  0  0  0  0  0  0  0  0  0  0  0
  -89.0931   31.7069   -4.9753 C   0  0  0  0  0  0  0  0  0  0  0  0
  -88.6868   33.0727   -4.5421 C   0  0  0  0  0  0  0  0  0  0  0  0
  -88.9900   34.0499   -5.3814 C   0  0  0  0  0  0  0  0  0  0  0  0
  -88.6283   35.4267   -5.0379 C   0  0  0  0  0  0  0  0  0  0  0  0
  -89.2851   36.4165   -5.4202 O   0  0  0  0  0  0  0  0  0  0  0  0
  -87.4286   35.6719   -4.1977 C   0  0  0  0  0  0  0  0  0  0  0  0
  -86.8875   34.3972   -3.6088 C   0  0  0  0  0  0  0  0  0  0  0  0
  -88.0027   33.4013   -3.2973 C   0  0  0  0  0  0  0  0  0  0  0  0
  -89.0205   34.0812   -2.3733 C   0  0  0  0  0  0  0  0  0  0  0  0
  -87.3959   29.9227   -2.1058 C   0  0  0  0  0  0  0  0  0  0  0  0
  -87.5934   28.4993   -2.3535 C   0  0  0  0  0  0  0  0  0  0  0  0
  -87.1409   27.8795   -1.0443 C   0  0  0  0  0  0  0  0  0  0  0  0
  -87.3256   28.9655    0.0265 C   0  0  0  0  0  0  0  0  0  0  0  0
  -86.0929   29.2093    0.7327 N   0  0  0  0  0  0  0  0  0  0  0  0
  -84.9025   29.6036    0.2744 C   0  0  0  0  0  0  0  0  0  0  0  0
  -84.0319   29.6984    1.3275 C   0  0  0  0  0  0  0  0  0  0  0  0
  -84.7021   29.3587    2.4296 N   0  0  0  0  0  0  0  0  0  0  0  0
  -85.9423   29.0661    2.0598 C   0  0  0  0  0  0  0  0  0  0  0  0
  2  1  1  0  0  0
  2  3  1  0  0  0
  3  4  1  0  0  0
  4  5  1  0  0  0
  5  6  1  0  0  0
  6  7  1  0  0  0
  7  8  1  0  0  0
  8  9  1  0  0  0
  9 10  2  0  0  0
 10 11  1  0  0  0
 11 12  2  0  0  0
 11 13  1  0  0  0
 13 14  1  0  0  0
 14 15  1  0  0  0
 15 16  1  0  0  0
  6 17  1  0  0  0
 17 18  1  0  0  0
 18 19  1  0  0  0
 19 20  1  0  0  0
 20 21  1  0  0  0
 21 22  1  0  0  0
 22 23  2  0  0  0
 23 24  1  0  0  0
 24 25  2  0  0  0
 17  2  1  0  0  0
 25 21  1  0  0  0
 20  2  1  0  0  0
 15  5  1  0  0  0
 15  9  1  0  0  0
M  END
> <minimizedAffinity>
-8.68749

> <CNNscore>
0.1509524137

> <CNNaffinity>
6.1687073708

> <CNN_VS>
0.9311812520

> <CNNaffinity_variance>
0.0305228420

$$$$
[H]C1=C2C([H])([H])C([H])([H])C3([H])C4([H])C([H])([H])C([H])([H])C([H])(n5c([H])nc([H])c5[H])[C@@]4(C([H])([H])[H])C([H])([H])C([H])([H])C3([H])[C@@]2(C([H])([H])[H])C([H])([H])C([H])([H])C1=O


 25 29  0  0  0  0  0  0  0  0999 V2000
  -90.5896   29.0719    1.4807 C   0  0  0  0  0  0  0  0  0  0  0  0
  -89.8875   27.8933    0.7933 C   0  0  0  0  0  0  0  0  0  0  0  0
  -88.7981   27.4345    1.6523 C   0  0  0  0  0  0  0  0  0  0  0  0
  -87.4043   27.6401    1.1720 C   0  0  0  0  0  0  0  0  0  0  0  0
  -87.1434   28.8064    0.3054 C   0  0  0  0  0  0  0  0  0  0  0  0
  -88.4242   29.5323   -0.1448 C   0  0  0  0  0  0  0  0  0  0  0  0
  -88.0284   30.4921   -1.2170 C   0  0  0  0  0  0  0  0  0  0  0  0
  -87.3404   31.6580   -0.5359 C   0  0  0  0  0  0  0  0  0  0  0  0
  -86.1818   31.1009    0.2159 C   0  0  0  0  0  0  0  0  0  0  0  0
  -85.1399   31.9080    0.3362 C   0  0  0  0  0  0  0  0  0  0  0  0
  -83.9546   31.4440    1.0601 C   0  0  0  0  0  0  0  0  0  0  0  0
  -83.1953   32.2138    1.6832 O   0  0  0  0  0  0  0  0  0  0  0  0
  -83.6285   29.9952    1.0619 C   0  0  0  0  0  0  0  0  0  0  0  0
  -84.7497   29.1683    0.4933 C   0  0  0  0  0  0  0  0  0  0  0  0
  -86.1153   29.7727    0.8132 C   0  0  0  0  0  0  0  0  0  0  0  0
  -86.2311   29.9403    2.3333 C   0  0  0  0  0  0  0  0  0  0  0  0
  -89.3300   28.4426   -0.5229 C   0  0  0  0  0  0  0  0  0  0  0  0
  -90.5326   28.7190   -1.3000 C   0  0  0  0  0  0  0  0  0  0  0  0
  -91.3873   27.4979   -1.0147 C   0  0  0  0  0  0  0  0  0  0  0  0
  -90.9130   26.9545    0.3417 C   0  0  0  0  0  0  0  0  0  0  0  0
  -90.5272   25.5697    0.2369 N   0  0  0  0  0  0  0  0  0  0  0  0
  -89.7965   24.9484   -0.6919 C   0  0  0  0  0  0  0  0  0  0  0  0
  -89.6981   23.6222   -0.3638 C   0  0  0  0  0  0  0  0  0  0  0  0
  -90.3746   23.4420    0.7716 N   0  0  0  0  0  0  0  0  0  0  0  0
  -90.8697   24.6214    1.1244 C   0  0  0  0  0  0  0  0  0  0  0  0
  2  1  1  0  0  0
  2  3  1  0  0  0
  3  4  1  0  0  0
  4  5  1  0  0  0
  5  6  1  0  0  0
  6  7  1  0  0  0
  7  8  1  0  0  0
  8  9  1  0  0  0
  9 10  2  0  0  0
 10 11  1  0  0  0
 11 12  2  0  0  0
 11 13  1  0  0  0
 13 14  1  0  0  0
 14 15  1  0  0  0
 15 16  1  0  0  0
  6 17  1  0  0  0
 17 18  1  0  0  0
 18 19  1  0  0  0
 19 20  1  0  0  0
 20 21  1  0  0  0
 21 22  1  0  0  0
 22 23  2  0  0  0
 23 24  1  0  0  0
 24 25  2  0  0  0
 17  2  1  0  0  0
 25 21  1  0  0  0
 20  2  1  0  0  0
 15  5  1  0  0  0
 15  9  1  0  0  0
M  END
> <minimizedAffinity>
-8.10083

> <CNNscore>
0.1284193248

> <CNNaffinity>
6.1799330711

> <CNN_VS>
0.7936228514

> <CNNaffinity_variance>
0.1033066660

$$$$
[H]C1=C2C([H])([H])C([H])([H])C3([H])C4([H])C([H])([H])C([H])([H])C([H])(n5c([H])nc([H])c5[H])[C@@]4(C([H])([H])[H])C([H])([H])C([H])([H])C3([H])[C@@]2(C([H])([H])[H])C([H])([H])C([H])([H])C1=O


 25 29  0  0  0  0  0  0  0  0999 V2000
  -88.5383   29.3894   -3.3615 C   0  0  0  0  0  0  0  0  0  0  0  0
  -88.5894   30.8099   -2.7832 C   0  0  0  0  0  0  0  0  0  0  0  0
  -87.2209   31.2918   -2.6096 C   0  0  0  0  0  0  0  0  0  0  0  0
  -86.7293   31.4942   -1.2192 C   0  0  0  0  0  0  0  0  0  0  0  0
  -87.2845   30.6247   -0.1630 C   0  0  0  0  0  0  0  0  0  0  0  0
  -88.4646   29.7594   -0.6411 C   0  0  0  0  0  0  0  0  0  0  0  0
  -89.0875   29.1598    0.5755 C   0  0  0  0  0  0  0  0  0  0  0  0
  -88.1701   28.0467    1.0400 C   0  0  0  0  0  0  0  0  0  0  0  0
  -86.8379   28.6601    1.2992 C   0  0  0  0  0  0  0  0  0  0  0  0
  -86.1219   28.0849    2.2520 C   0  0  0  0  0  0  0  0  0  0  0  0
  -84.7983   28.6213    2.5756 C   0  0  0  0  0  0  0  0  0  0  0  0
  -83.8665   27.9133    3.0090 O   0  0  0  0  0  0  0  0  0  0  0  0
  -84.5382   30.0709    2.3847 C   0  0  0  0  0  0  0  0  0  0  0  0
  -85.6522   30.7450    1.6306 C   0  0  0  0  0  0  0  0  0  0  0  0
  -86.2813   29.8112    0.5988 C   0  0  0  0  0  0  0  0  0  0  0  0
  -85.1768   29.2985   -0.3335 C   0  0  0  0  0  0  0  0  0  0  0  0
  -89.2854   30.6884   -1.4247 C   0  0  0  0  0  0  0  0  0  0  0  0
  -90.6543   30.3387   -1.7861 C   0  0  0  0  0  0  0  0  0  0  0  0
  -90.9216   31.2604   -2.9617 C   0  0  0  0  0  0  0  0  0  0  0  0
  -89.5481   31.5856   -3.5680 C   0  0  0  0  0  0  0  0  0  0  0  0
  -89.3359   33.0098   -3.6321 N   0  0  0  0  0  0  0  0  0  0  0  0
  -89.3395   33.9245   -2.6595 C   0  0  0  0  0  0  0  0  0  0  0  0
  -89.0885   35.1544   -3.2075 C   0  0  0  0  0  0  0  0  0  0  0  0
  -88.9323   34.9805   -4.5207 N   0  0  0  0  0  0  0  0  0  0  0  0
  -89.0833   33.6852   -4.7654 C   0  0  0  0  0  0  0  0  0  0  0  0
  2  1  1  0  0  0
  2  3  1  0  0  0
  3  4  1  0  0  0
  4  5  1  0  0  0
  5  6  1  0  0  0
  6  7  1  0  0  0
  7  8  1  0  0  0
  8  9  1  0  0  0
  9 10  2  0  0  0
 10 11  1  0  0  0
 11 12  2  0  0  0
 11 13  1  0  0  0
 13 14  1  0  0  0
 14 15  1  0  0  0
 15 16  1  0  0  0
  6 17  1  0  0  0
 17 18  1  0  0  0
 18 19  1  0  0  0
 19 20  1  0  0  0
 20 21  1  0  0  0
 21 22  1  0  0  0
 22 23  2  0  0  0
 23 24  1  0  0  0
 24 25  2  0  0  0
 17  2  1  0  0  0
 25 21  1  0  0  0
 20  2  1  0  0  0
 15  5  1  0  0  0
 15  9  1  0  0  0
M  END
> <minimizedAffinity>
-7.86773

> <CNNscore>
0.1254694760

> <CNNaffinity>
6.3426165581

> <CNN_VS>
0.7958047986

> <CNNaffinity_variance>
0.3282983899

$$$$
[H]C1=C2C([H])([H])C([H])([H])C3([H])C4([H])C([H])([H])C([H])([H])C([H])(n5c([H])nc([H])c5[H])[C@@]4(C([H])([H])[H])C([H])([H])C([H])([H])C3([H])[C@@]2(C([H])([H])[H])C([H])([H])C([H])([H])C1=O


 25 29  0  0  0  0  0  0  0  0999 V2000
  -90.0962   23.5794   -1.8655 C   0  0  0  0  0  0  0  0  0  0  0  0
  -91.5205   23.5604   -1.2947 C   0  0  0  0  0  0  0  0  0  0  0  0
  -92.4684   23.6054   -2.4057 C   0  0  0  0  0  0  0  0  0  0  0  0
  -93.2957   24.8332   -2.5606 C   0  0  0  0  0  0  0  0  0  0  0  0
  -92.7136   26.1128   -2.1095 C   0  0  0  0  0  0  0  0  0  0  0  0
  -91.3892   25.9454   -1.3427 C   0  0  0  0  0  0  0  0  0  0  0  0
  -91.0755   27.2649   -0.7197 C   0  0  0  0  0  0  0  0  0  0  0  0
  -90.5773   28.1706   -1.8279 C   0  0  0  0  0  0  0  0  0  0  0  0
  -91.6575   28.2418   -2.8507 C   0  0  0  0  0  0  0  0  0  0  0  0
  -91.7301   29.3788   -3.5240 C   0  0  0  0  0  0  0  0  0  0  0  0
  -92.7625   29.5386   -4.5502 C   0  0  0  0  0  0  0  0  0  0  0  0
  -92.6123   30.2598   -5.5575 O   0  0  0  0  0  0  0  0  0  0  0  0
  -94.0512   28.8161   -4.3993 C   0  0  0  0  0  0  0  0  0  0  0  0
  -93.9983   27.8031   -3.2879 C   0  0  0  0  0  0  0  0  0  0  0  0
  -92.6096   27.1810   -3.1567 C   0  0  0  0  0  0  0  0  0  0  0  0
  -92.2147   26.5783   -4.5105 C   0  0  0  0  0  0  0  0  0  0  0  0
  -91.6487   24.8220   -0.4363 C   0  0  0  0  0  0  0  0  0  0  0  0
  -90.7509   24.5530    0.6809 C   0  0  0  0  0  0  0  0  0  0  0  0
  -91.0567   23.1003    0.9961 C   0  0  0  0  0  0  0  0  0  0  0  0
  -91.5986   22.4880   -0.3044 C   0  0  0  0  0  0  0  0  0  0  0  0
  -92.8929   21.8897   -0.0935 N   0  0  0  0  0  0  0  0  0  0  0  0
  -93.9973   22.4005    0.4560 C   0  0  0  0  0  0  0  0  0  0  0  0
  -94.9821   21.4488    0.4371 C   0  0  0  0  0  0  0  0  0  0  0  0
  -94.4680   20.3554   -0.1280 N   0  0  0  0  0  0  0  0  0  0  0  0
  -93.2093   20.6321   -0.4437 C   0  0  0  0  0  0  0  0  0  0  0  0
  2  1  1  0  0  0
  2  3  1  0  0  0
  3  4  1  0  0  0
  4  5  1  0  0  0
  5  6  1  0  0  0
  6  7  1  0  0  0
  7  8  1  0  0  0
  8  9  1  0  0  0
  9 10  2  0  0  0
 10 11  1  0  0  0
 11 12  2  0  0  0
 11 13  1  0  0  0
 13 14  1  0  0  0
 14 15  1  0  0  0
 15 16  1  0  0  0
  6 17  1  0  0  0
 17 18  1  0  0  0
 18 19  1  0  0  0
 19 20  1  0  0  0
 20 21  1  0  0  0
 21 22  1  0  0  0
 22 23  2  0  0  0
 23 24  1  0  0  0
 24 25  2  0  0  0
 17  2  1  0  0  0
 25 21  1  0  0  0
 20  2  1  0  0  0
 15  5  1  0  0  0
 15  9  1  0  0  0
M  END
> <minimizedAffinity>
-5.08433

> <CNNscore>
0.1197589114

> <CNNaffinity>
5.1022233963

> <CNN_VS>
0.6110367179

> <CNNaffinity_variance>
0.0082882810

$$$$
[H]c1nc(N([H])C(=O)c2c([H])c(O[C@@]([H])(C([H])([H])[H])C([H])([H])OC([H])([H])[H])c([H])c(O[C@]([H])(C([H])([H])[H])C(C([H])([H])[H])(C([H])([H])[H])C([H])([H])[H])c2[H])sc1[H]


 28 29  0  0  0  0  0  0  0  0999 V2000
  -89.1112   31.6641   -1.1437 C   0  0  0  0  0  0  0  0  0  0  0  0
  -87.9285   31.4529   -0.4142 C   0  0  0  0  0  0  0  0  0  0  0  0
  -86.8077   32.2385   -0.5610 C   0  0  0  0  0  0  0  0  0  0  0  0
  -86.8703   33.2554   -1.4547 C   0  0  0  0  0  0  0  0  0  0  0  0
  -87.9980   33.5370   -2.2184 C   0  0  0  0  0  0  0  0  0  0  0  0
  -89.1044   32.7123   -2.0316 C   0  0  0  0  0  0  0  0  0  0  0  0
  -87.9722   34.6414   -3.1454 C   0  0  0  0  0  0  0  0  0  0  0  0
  -88.8980   35.4947   -3.1212 O   0  0  0  0  0  0  0  0  0  0  0  0
  -86.9276   34.8003   -4.0933 N   0  0  0  0  0  0  0  0  0  0  0  0
  -86.1237   34.1450   -4.1845 H   0  0  0  0  0  0  0  0  0  0  0  0
  -86.9405   35.9145   -4.9978 C   0  0  0  0  0  0  0  0  0  0  0  0
  -87.4021   35.8952   -6.2380 N   0  0  0  0  0  0  0  0  0  0  0  0
  -87.3587   36.9695   -6.9585 C   0  0  0  0  0  0  0  0  0  0  0  0
  -86.8255   38.0977   -6.3895 C   0  0  0  0  0  0  0  0  0  0  0  0
  -86.4155   37.5254   -4.8278 S   0  0  0  0  0  0  0  0  0  0  0  0
  -90.1860   30.8269   -0.9315 O   0  0  0  0  0  0  0  0  0  0  0  0
  -90.1470   29.4558   -0.8017 C   0  0  0  0  0  0  0  0  0  0  0  0
  -91.0369   29.0747    0.3735 C   0  0  0  0  0  0  0  0  0  0  0  0
  -90.7304   28.8736   -2.0965 C   0  0  0  0  0  0  0  0  0  0  0  0
  -88.5624   28.1146   -2.3752 C   0  0  0  0  0  0  0  0  0  0  0  0
  -89.7486   28.4729   -2.9694 O   0  0  0  0  0  0  0  0  0  0  0  0
  -85.6976   31.9507    0.1999 O   0  0  0  0  0  0  0  0  0  0  0  0
  -84.8444   30.8699    0.1409 C   0  0  0  0  0  0  0  0  0  0  0  0
  -85.5504   29.5360    0.2883 C   0  0  0  0  0  0  0  0  0  0  0  0
  -83.7778   31.0191    1.2037 C   0  0  0  0  0  0  0  0  0  0  0  0
  -82.7180   31.9779    0.7078 C   0  0  0  0  0  0  0  0  0  0  0  0
  -83.1710   29.7123    1.6077 C   0  0  0  0  0  0  0  0  0  0  0  0
  -84.4236   31.6258    2.4378 C   0  0  0  0  0  0  0  0  0  0  0  0
 20 21  1  0  0  0
 21 19  1  0  0  0
 19 17  1  0  0  0
 17 18  1  0  0  0
 17 16  1  0  0  0
 16  1  1  0  0  0
  1  2  2  0  0  0
  2  3  1  0  0  0
  3 22  1  0  0  0
 22 23  1  0  0  0
 23 24  1  0  0  0
 23 25  1  0  0  0
 25 26  1  0  0  0
 25 27  1  0  0  0
 25 28  1  0  0  0
  3  4  2  0  0  0
  4  5  1  0  0  0
  5  6  2  0  0  0
  5  7  1  0  0  0
  7  8  2  0  0  0
  7  9  1  0  0  0
  9 11  1  0  0  0
 11 12  2  0  0  0
 12 13  1  0  0  0
 13 14  2  0  0  0
 14 15  1  0  0  0
  6  1  1  0  0  0
 15 11  1  0  0  0
  9 10  1  0  0  0
M  END
> <minimizedAffinity>
-7.76889

> <CNNscore>
0.4725878239

> <CNNaffinity>
6.1101698875

> <CNN_VS>
2.8875918388

> <CNNaffinity_variance>
0.5373603106

$$$$
[H]c1nc(N([H])C(=O)c2c([H])c(O[C@@]([H])(C([H])([H])[H])C([H])([H])OC([H])([H])[H])c([H])c(O[C@]([H])(C([H])([H])[H])C(C([H])([H])[H])(C([H])([H])[H])C([H])([H])[H])c2[H])sc1[H]


 28 29  0  0  0  0  0  0  0  0999 V2000
  -85.9814   32.2332   -0.2941 C   0  0  0  0  0  0  0  0  0  0  0  0
  -87.0398   31.3427   -0.0449 C   0  0  0  0  0  0  0  0  0  0  0  0
  -88.2562   31.4278   -0.6837 C   0  0  0  0  0  0  0  0  0  0  0  0
  -88.4179   32.4228   -1.5894 C   0  0  0  0  0  0  0  0  0  0  0  0
  -87.4260   33.3475   -1.8983 C   0  0  0  0  0  0  0  0  0  0  0  0
  -86.2146   33.2171   -1.2241 C   0  0  0  0  0  0  0  0  0  0  0  0
  -87.6892   34.3734   -2.8772 C   0  0  0  0  0  0  0  0  0  0  0  0
  -88.8169   34.9332   -2.9027 O   0  0  0  0  0  0  0  0  0  0  0  0
  -86.7097   34.7770   -3.8220 N   0  0  0  0  0  0  0  0  0  0  0  0
  -85.7529   34.3699   -3.8740 H   0  0  0  0  0  0  0  0  0  0  0  0
  -87.0132   35.8023   -4.7792 C   0  0  0  0  0  0  0  0  0  0  0  0
  -87.5573   35.6085   -5.9700 N   0  0  0  0  0  0  0  0  0  0  0  0
  -87.7836   36.6183   -6.7472 C   0  0  0  0  0  0  0  0  0  0  0  0
  -87.4412   37.8649   -6.2889 C   0  0  0  0  0  0  0  0  0  0  0  0
  -86.8055   37.4920   -4.7425 S   0  0  0  0  0  0  0  0  0  0  0  0
  -84.7967   32.0725    0.3928 O   0  0  0  0  0  0  0  0  0  0  0  0
  -83.9423   30.9944    0.3171 C   0  0  0  0  0  0  0  0  0  0  0  0
  -82.5370   31.5307    0.0806 C   0  0  0  0  0  0  0  0  0  0  0  0
  -83.9995   30.2899    1.6796 C   0  0  0  0  0  0  0  0  0  0  0  0
  -83.0122   28.3276    2.4066 C   0  0  0  0  0  0  0  0  0  0  0  0
  -82.8365   29.6153    1.9600 O   0  0  0  0  0  0  0  0  0  0  0  0
  -89.2303   30.5074   -0.3702 O   0  0  0  0  0  0  0  0  0  0  0  0
  -89.4598   29.2536   -0.8944 C   0  0  0  0  0  0  0  0  0  0  0  0
  -90.5533   29.2304   -1.9447 C   0  0  0  0  0  0  0  0  0  0  0  0
  -89.7922   28.2972    0.2301 C   0  0  0  0  0  0  0  0  0  0  0  0
  -90.9253   28.8742    1.0496 C   0  0  0  0  0  0  0  0  0  0  0  0
  -88.6123   27.9819    1.0947 C   0  0  0  0  0  0  0  0  0  0  0  0
  -90.2707   26.9935   -0.3858 C   0  0  0  0  0  0  0  0  0  0  0  0
 20 21  1  0  0  0
 21 19  1  0  0  0
 19 17  1  0  0  0
 17 18  1  0  0  0
 17 16  1  0  0  0
 16  1  1  0  0  0
  1  2  2  0  0  0
  2  3  1  0  0  0
  3 22  1  0  0  0
 22 23  1  0  0  0
 23 24  1  0  0  0
 23 25  1  0  0  0
 25 26  1  0  0  0
 25 27  1  0  0  0
 25 28  1  0  0  0
  3  4  2  0  0  0
  4  5  1  0  0  0
  5  6  2  0  0  0
  5  7  1  0  0  0
  7  8  2  0  0  0
  7  9  1  0  0  0
  9 11  1  0  0  0
 11 12  2  0  0  0
 12 13  1  0  0  0
 13 14  2  0  0  0
 14 15  1  0  0  0
  6  1  1  0  0  0
 15 11  1  0  0  0
  9 10  1  0  0  0
M  END
> <minimizedAffinity>
-7.21434

> <CNNscore>
0.3928417563

> <CNNaffinity>
6.1311311722

> <CNN_VS>
2.4085643291

> <CNNaffinity_variance>
0.2370290458

$$$$
[H]c1nc(N([H])C(=O)c2c([H])c(O[C@@]([H])(C([H])([H])[H])C([H])([H])OC([H])([H])[H])c([H])c(O[C@]([H])(C([H])([H])[H])C(C([H])([H])[H])(C([H])([H])[H])C([H])([H])[H])c2[H])sc1[H]


 28 29  0  0  0  0  0  0  0  0999 V2000
  -89.6102   30.6722   -0.6912 C   0  0  0  0  0  0  0  0  0  0  0  0
  -88.2709   30.6145   -0.2689 C   0  0  0  0  0  0  0  0  0  0  0  0
  -87.2317   31.1445   -0.9997 C   0  0  0  0  0  0  0  0  0  0  0  0
  -87.5373   31.7442   -2.1760 C   0  0  0  0  0  0  0  0  0  0  0  0
  -88.8331   31.8470   -2.6707 C   0  0  0  0  0  0  0  0  0  0  0  0
  -89.8474   31.2945   -1.8928 C   0  0  0  0  0  0  0  0  0  0  0  0
  -89.0627   32.5037   -3.9339 C   0  0  0  0  0  0  0  0  0  0  0  0
  -88.6124   31.9902   -4.9920 O   0  0  0  0  0  0  0  0  0  0  0  0
  -89.7863   33.7214   -4.0252 N   0  0  0  0  0  0  0  0  0  0  0  0
  -90.1937   34.2159   -3.2045 H   0  0  0  0  0  0  0  0  0  0  0  0
  -89.9922   34.3417   -5.3029 C   0  0  0  0  0  0  0  0  0  0  0  0
  -89.2782   35.3392   -5.7995 N   0  0  0  0  0  0  0  0  0  0  0  0
  -89.5625   35.8156   -6.9688 C   0  0  0  0  0  0  0  0  0  0  0  0
  -90.6112   35.2516   -7.6493 C   0  0  0  0  0  0  0  0  0  0  0  0
  -91.1261   34.0522   -6.5399 S   0  0  0  0  0  0  0  0  0  0  0  0
  -90.5871   30.1142    0.1058 O   0  0  0  0  0  0  0  0  0  0  0  0
  -91.0586   28.8211    0.0447 C   0  0  0  0  0  0  0  0  0  0  0  0
  -90.5404   28.1979   -1.2443 C   0  0  0  0  0  0  0  0  0  0  0  0
  -90.4642   28.0776    1.2488 C   0  0  0  0  0  0  0  0  0  0  0  0
  -90.9273   28.4566    3.4839 C   0  0  0  0  0  0  0  0  0  0  0  0
  -91.3653   27.9620    2.2789 O   0  0  0  0  0  0  0  0  0  0  0  0
  -85.9536   31.0372   -0.5005 O   0  0  0  0  0  0  0  0  0  0  0  0
  -85.2229   31.9317    0.2515 C   0  0  0  0  0  0  0  0  0  0  0  0
  -84.4368   32.9219   -0.5857 C   0  0  0  0  0  0  0  0  0  0  0  0
  -84.2943   31.1678    1.1700 C   0  0  0  0  0  0  0  0  0  0  0  0
  -84.7036   31.4183    2.6047 C   0  0  0  0  0  0  0  0  0  0  0  0
  -82.8531   31.5093    0.9569 C   0  0  0  0  0  0  0  0  0  0  0  0
  -84.4615   29.6854    0.8830 C   0  0  0  0  0  0  0  0  0  0  0  0
 20 21  1  0  0  0
 21 19  1  0  0  0
 19 17  1  0  0  0
 17 18  1  0  0  0
 17 16  1  0  0  0
 16  1  1  0  0  0
  1  2  2  0  0  0
  2  3  1  0  0  0
  3 22  1  0  0  0
 22 23  1  0  0  0
 23 24  1  0  0  0
 23 25  1  0  0  0
 25 26  1  0  0  0
 25 27  1  0  0  0
 25 28  1  0  0  0
  3  4  2  0  0  0
  4  5  1  0  0  0
  5  6  2  0  0  0
  5  7  1  0  0  0
  7  8  2  0  0  0
  7  9  1  0  0  0
  9 11  1  0  0  0
 11 12  2  0  0  0
 12 13  1  0  0  0
 13 14  2  0  0  0
 14 15  1  0  0  0
  6  1  1  0  0  0
 15 11  1  0  0  0
  9 10  1  0  0  0
M  END
> <minimizedAffinity>
-6.52427

> <CNNscore>
0.2823285460

> <CNNaffinity>
5.9957189560

> <CNN_VS>
1.6927626133

> <CNNaffinity_variance>
0.1378400773

$$$$
[H]c1nc(N([H])C(=O)c2c([H])c(O[C@@]([H])(C([H])([H])[H])C([H])([H])OC([H])([H])[H])c([H])c(O[C@]([H])(C([H])([H])[H])C(C([H])([H])[H])(C([H])([H])[H])C([H])([H])[H])c2[H])sc1[H]


 28 29  0  0  0  0  0  0  0  0999 V2000
  -89.2469   31.3926   -0.6825 C   0  0  0  0  0  0  0  0  0  0  0  0
  -87.9964   30.9022   -0.2690 C   0  0  0  0  0  0  0  0  0  0  0  0
  -86.8045   31.4817   -0.6410 C   0  0  0  0  0  0  0  0  0  0  0  0
  -86.8637   32.5730   -1.4424 C   0  0  0  0  0  0  0  0  0  0  0  0
  -88.0556   33.1256   -1.8988 C   0  0  0  0  0  0  0  0  0  0  0  0
  -89.2325   32.5014   -1.4934 C   0  0  0  0  0  0  0  0  0  0  0  0
  -88.0207   34.2897   -2.7494 C   0  0  0  0  0  0  0  0  0  0  0  0
  -86.9184   34.6934   -3.2051 O   0  0  0  0  0  0  0  0  0  0  0  0
  -89.1990   35.0026   -3.0932 N   0  0  0  0  0  0  0  0  0  0  0  0
  -90.1512   34.7412   -2.7629 H   0  0  0  0  0  0  0  0  0  0  0  0
  -89.1195   36.1564   -3.9430 C   0  0  0  0  0  0  0  0  0  0  0  0
  -88.9575   37.4047   -3.5347 N   0  0  0  0  0  0  0  0  0  0  0  0
  -88.9006   38.3641   -4.4015 C   0  0  0  0  0  0  0  0  0  0  0  0
  -89.0134   38.0327   -5.7276 C   0  0  0  0  0  0  0  0  0  0  0  0
  -89.1970   36.3320   -5.6350 S   0  0  0  0  0  0  0  0  0  0  0  0
  -90.3905   30.7480   -0.2607 O   0  0  0  0  0  0  0  0  0  0  0  0
  -90.6884   29.4126   -0.4216 C   0  0  0  0  0  0  0  0  0  0  0  0
  -90.9715   28.8301    0.9564 C   0  0  0  0  0  0  0  0  0  0  0  0
  -91.9603   29.3447   -1.2782 C   0  0  0  0  0  0  0  0  0  0  0  0
  -91.7638   29.3605   -3.5836 C   0  0  0  0  0  0  0  0  0  0  0  0
  -91.7691   28.6175   -2.4276 O   0  0  0  0  0  0  0  0  0  0  0  0
  -85.6312   30.9265   -0.1834 O   0  0  0  0  0  0  0  0  0  0  0  0
  -84.7673   31.3721    0.7938 C   0  0  0  0  0  0  0  0  0  0  0  0
  -83.5435   32.0761    0.2407 C   0  0  0  0  0  0  0  0  0  0  0  0
  -84.3531   30.2043    1.6621 C   0  0  0  0  0  0  0  0  0  0  0  0
  -84.9603   30.3725    3.0375 C   0  0  0  0  0  0  0  0  0  0  0  0
  -82.8682   30.0404    1.7487 C   0  0  0  0  0  0  0  0  0  0  0  0
  -84.9194   28.9356    1.0476 C   0  0  0  0  0  0  0  0  0  0  0  0
 20 21  1  0  0  0
 21 19  1  0  0  0
 19 17  1  0  0  0
 17 18  1  0  0  0
 17 16  1  0  0  0
 16  1  1  0  0  0
  1  2  2  0  0  0
  2  3  1  0  0  0
  3 22  1  0  0  0
 22 23  1  0  0  0
 23 24  1  0  0  0
 23 25  1  0  0  0
 25 26  1  0  0  0
 25 27  1  0  0  0
 25 28  1  0  0  0
  3  4  2  0  0  0
  4  5  1  0  0  0
  5  6  2  0  0  0
  5  7  1  0  0  0
  7  8  2  0  0  0
  7  9  1  0  0  0
  9 11  1  0  0  0
 11 12  2  0  0  0
 12 13  1  0  0  0
 13 14  2  0  0  0
 14 15  1  0  0  0
  6  1  1  0  0  0
 15 11  1  0  0  0
  9 10  1  0  0  0
M  END
> <minimizedAffinity>
-6.78656

> <CNNscore>
0.2242230922

> <CNNaffinity>
5.9656414986

> <CNN_VS>
1.3376345634

> <CNNaffinity_variance>
0.1628046036

$$$$
[H]c1nc(N([H])C(=O)c2c([H])c(O[C@@]([H])(C([H])([H])[H])C([H])([H])OC([H])([H])[H])c([H])c(O[C@]([H])(C([H])([H])[H])C(C([H])([H])[H])(C([H])([H])[H])C([H])([H])[H])c2[H])sc1[H]


 28 29  0  0  0  0  0  0  0  0999 V2000
  -90.8674   30.0009   -1.6328 C   0  0  0  0  0  0  0  0  0  0  0  0
  -91.2588   28.9666   -0.7654 C   0  0  0  0  0  0  0  0  0  0  0  0
  -90.4600   28.5027    0.2552 C   0  0  0  0  0  0  0  0  0  0  0  0
  -89.2459   29.0840    0.4119 C   0  0  0  0  0  0  0  0  0  0  0  0
  -88.7775   30.1123   -0.3990 C   0  0  0  0  0  0  0  0  0  0  0  0
  -89.6244   30.5446   -1.4164 C   0  0  0  0  0  0  0  0  0  0  0  0
  -87.4701   30.6705   -0.1567 C   0  0  0  0  0  0  0  0  0  0  0  0
  -87.2024   31.8289   -0.5719 O   0  0  0  0  0  0  0  0  0  0  0  0
  -86.4652   29.9507    0.5411 N   0  0  0  0  0  0  0  0  0  0  0  0
  -86.5980   28.9897    0.9191 H   0  0  0  0  0  0  0  0  0  0  0  0
  -85.1769   30.5438    0.7608 C   0  0  0  0  0  0  0  0  0  0  0  0
  -84.1504   30.4880   -0.0726 N   0  0  0  0  0  0  0  0  0  0  0  0
  -83.0348   31.0653    0.2395 C   0  0  0  0  0  0  0  0  0  0  0  0
  -82.9705   31.7197    1.4431 C   0  0  0  0  0  0  0  0  0  0  0  0
  -84.5485   31.4549    2.0549 S   0  0  0  0  0  0  0  0  0  0  0  0
  -91.7330   30.4020   -2.6283 O   0  0  0  0  0  0  0  0  0  0  0  0
  -93.0507   30.0265   -2.7725 C   0  0  0  0  0  0  0  0  0  0  0  0
  -93.8629   31.2820   -3.0598 C   0  0  0  0  0  0  0  0  0  0  0  0
  -93.1115   29.0878   -3.9854 C   0  0  0  0  0  0  0  0  0  0  0  0
  -93.8635   28.8629   -6.1621 C   0  0  0  0  0  0  0  0  0  0  0  0
  -93.7474   29.6689   -5.0551 O   0  0  0  0  0  0  0  0  0  0  0  0
  -90.9338   27.4848    1.0514 O   0  0  0  0  0  0  0  0  0  0  0  0
  -90.4111   26.2308    1.2833 C   0  0  0  0  0  0  0  0  0  0  0  0
  -91.3303   25.1052    0.8502 C   0  0  0  0  0  0  0  0  0  0  0  0
  -90.0729   26.0962    2.7519 C   0  0  0  0  0  0  0  0  0  0  0  0
  -90.6532   27.2750    3.5017 C   0  0  0  0  0  0  0  0  0  0  0  0
  -88.6028   25.9733    3.0024 C   0  0  0  0  0  0  0  0  0  0  0  0
  -90.7343   24.8322    3.2741 C   0  0  0  0  0  0  0  0  0  0  0  0
 20 21  1  0  0  0
 21 19  1  0  0  0
 19 17  1  0  0  0
 17 18  1  0  0  0
 17 16  1  0  0  0
 16  1  1  0  0  0
  1  2  2  0  0  0
  2  3  1  0  0  0
  3 22  1  0  0  0
 22 23  1  0  0  0
 23 24  1  0  0  0
 23 25  1  0  0  0
 25 26  1  0  0  0
 25 27  1  0  0  0
 25 28  1  0  0  0
  3  4  2  0  0  0
  4  5  1  0  0  0
  5  6  2  0  0  0
  5  7  1  0  0  0
  7  8  2  0  0  0
  7  9  1  0  0  0
  9 11  1  0  0  0
 11 12  2  0  0  0
 12 13  1  0  0  0
 13 14  2  0  0  0
 14 15  1  0  0  0
  6  1  1  0  0  0
 15 11  1  0  0  0
  9 10  1  0  0  0
M  END
> <minimizedAffinity>
-5.34675

> <CNNscore>
0.1886797100

> <CNNaffinity>
5.8212685585

> <CNN_VS>
1.0983552933

> <CNNaffinity_variance>
0.0634925589

$$$$
[H]c1nc(N([H])C(=O)c2c([H])c(O[C@@]([H])(C([H])([H])[H])C([H])([H])OC([H])([H])[H])c([H])c(O[C@]([H])(C([H])([H])[H])C(C([H])([H])[H])(C([H])([H])[H])C([H])([H])[H])c2[H])sc1[H]


 28 29  0  0  0  0  0  0  0  0999 V2000
  -86.3382   29.5639    0.1088 C   0  0  0  0  0  0  0  0  0  0  0  0
  -86.7255   30.7274   -0.5779 C   0  0  0  0  0  0  0  0  0  0  0  0
  -87.8688   30.8011   -1.3410 C   0  0  0  0  0  0  0  0  0  0  0  0
  -88.6403   29.6897   -1.4193 C   0  0  0  0  0  0  0  0  0  0  0  0
  -88.3343   28.4965   -0.7736 C   0  0  0  0  0  0  0  0  0  0  0  0
  -87.1669   28.4751   -0.0147 C   0  0  0  0  0  0  0  0  0  0  0  0
  -89.2161   27.3642   -0.9150 C   0  0  0  0  0  0  0  0  0  0  0  0
  -89.9996   27.0658    0.0247 O   0  0  0  0  0  0  0  0  0  0  0  0
  -89.2306   26.5672   -2.0895 N   0  0  0  0  0  0  0  0  0  0  0  0
  -88.6188   26.7400   -2.9140 H   0  0  0  0  0  0  0  0  0  0  0  0
  -90.1244   25.4489   -2.1889 C   0  0  0  0  0  0  0  0  0  0  0  0
  -91.3327   25.4734   -2.7281 N   0  0  0  0  0  0  0  0  0  0  0  0
  -92.0469   24.3944   -2.7587 C   0  0  0  0  0  0  0  0  0  0  0  0
  -91.5049   23.2557   -2.2195 C   0  0  0  0  0  0  0  0  0  0  0  0
  -89.9767   23.8257   -1.6959 S   0  0  0  0  0  0  0  0  0  0  0  0
  -85.1758   29.5808    0.8502 O   0  0  0  0  0  0  0  0  0  0  0  0
  -84.6103   30.6750    1.4674 C   0  0  0  0  0  0  0  0  0  0  0  0
  -85.0147   30.6414    2.9350 C   0  0  0  0  0  0  0  0  0  0  0  0
  -83.0888   30.5095    1.3510 C   0  0  0  0  0  0  0  0  0  0  0  0
  -82.9922   32.2118   -0.2131 C   0  0  0  0  0  0  0  0  0  0  0  0
  -82.4749   31.6663    0.9373 O   0  0  0  0  0  0  0  0  0  0  0  0
  -88.1617   31.9869   -1.9754 O   0  0  0  0  0  0  0  0  0  0  0  0
  -88.4823   32.2253   -3.2944 C   0  0  0  0  0  0  0  0  0  0  0  0
  -87.7339   31.3345   -4.2670 C   0  0  0  0  0  0  0  0  0  0  0  0
  -88.2260   33.6819   -3.6136 C   0  0  0  0  0  0  0  0  0  0  0  0
  -89.2257   34.5344   -2.8636 C   0  0  0  0  0  0  0  0  0  0  0  0
  -88.2679   33.9731   -5.0807 C   0  0  0  0  0  0  0  0  0  0  0  0
  -86.8352   34.0361   -3.1153 C   0  0  0  0  0  0  0  0  0  0  0  0
 20 21  1  0  0  0
 21 19  1  0  0  0
 19 17  1  0  0  0
 17 18  1  0  0  0
 17 16  1  0  0  0
 16  1  1  0  0  0
  1  2  2  0  0  0
  2  3  1  0  0  0
  3 22  1  0  0  0
 22 23  1  0  0  0
 23 24  1  0  0  0
 23 25  1  0  0  0
 25 26  1  0  0  0
 25 27  1  0  0  0
 25 28  1  0  0  0
  3  4  2  0  0  0
  4  5  1  0  0  0
  5  6  2  0  0  0
  5  7  1  0  0  0
  7  8  2  0  0  0
  7  9  1  0  0  0
  9 11  1  0  0  0
 11 12  2  0  0  0
 12 13  1  0  0  0
 13 14  2  0  0  0
 14 15  1  0  0  0
  6  1  1  0  0  0
 15 11  1  0  0  0
  9 10  1  0  0  0
M  END
> <minimizedAffinity>
-6.71568

> <CNNscore>
0.1790497601

> <CNNaffinity>
5.7218322754

> <CNN_VS>
1.0244927406

> <CNNaffinity_variance>
0.4229210913

$$$$
[H]c1nc(N([H])C(=O)c2c([H])c(O[C@@]([H])(C([H])([H])[H])C([H])([H])OC([H])([H])[H])c([H])c(O[C@]([H])(C([H])([H])[H])C(C([H])([H])[H])(C([H])([H])[H])C([H])([H])[H])c2[H])sc1[H]


 28 29  0  0  0  0  0  0  0  0999 V2000
  -89.2930   30.7996   -0.6901 C   0  0  0  0  0  0  0  0  0  0  0  0
  -88.0379   30.7282   -0.0616 C   0  0  0  0  0  0  0  0  0  0  0  0
  -87.0527   31.6714   -0.2474 C   0  0  0  0  0  0  0  0  0  0  0  0
  -87.3274   32.7066   -1.0778 C   0  0  0  0  0  0  0  0  0  0  0  0
  -88.5408   32.8570   -1.7406 C   0  0  0  0  0  0  0  0  0  0  0  0
  -89.5032   31.8754   -1.5183 C   0  0  0  0  0  0  0  0  0  0  0  0
  -88.7431   33.9928   -2.6060 C   0  0  0  0  0  0  0  0  0  0  0  0
  -87.8108   34.8233   -2.7693 O   0  0  0  0  0  0  0  0  0  0  0  0
  -89.9702   34.2076   -3.2865 N   0  0  0  0  0  0  0  0  0  0  0  0
  -90.7931   33.5743   -3.2106 H   0  0  0  0  0  0  0  0  0  0  0  0
  -90.1294   35.3513   -4.1387 C   0  0  0  0  0  0  0  0  0  0  0  0
  -89.4547   35.5817   -5.2536 N   0  0  0  0  0  0  0  0  0  0  0  0
  -89.6893   36.6543   -5.9389 C   0  0  0  0  0  0  0  0  0  0  0  0
  -90.6451   37.5167   -5.4659 C   0  0  0  0  0  0  0  0  0  0  0  0
  -91.1503   36.7107   -4.0413 S   0  0  0  0  0  0  0  0  0  0  0  0
  -90.2205   29.8091   -0.4454 O   0  0  0  0  0  0  0  0  0  0  0  0
  -90.0581   28.7159    0.3771 C   0  0  0  0  0  0  0  0  0  0  0  0
  -91.1845   28.7335    1.4014 C   0  0  0  0  0  0  0  0  0  0  0  0
  -90.1927   27.4716   -0.5116 C   0  0  0  0  0  0  0  0  0  0  0  0
  -87.9987   26.8333   -0.8762 C   0  0  0  0  0  0  0  0  0  0  0  0
  -89.1993   26.5549   -0.2683 O   0  0  0  0  0  0  0  0  0  0  0  0
  -85.8560   31.5125    0.4136 O   0  0  0  0  0  0  0  0  0  0  0  0
  -84.8495   30.5940    0.2063 C   0  0  0  0  0  0  0  0  0  0  0  0
  -85.2940   29.1579    0.4052 C   0  0  0  0  0  0  0  0  0  0  0  0
  -83.6870   30.9146    1.1202 C   0  0  0  0  0  0  0  0  0  0  0  0
  -82.7213   31.8217    0.3901 C   0  0  0  0  0  0  0  0  0  0  0  0
  -82.9918   29.6914    1.6297 C   0  0  0  0  0  0  0  0  0  0  0  0
  -84.2270   31.6696    2.3229 C   0  0  0  0  0  0  0  0  0  0  0  0
 20 21  1  0  0  0
 21 19  1  0  0  0
 19 17  1  0  0  0
 17 18  1  0  0  0
 17 16  1  0  0  0
 16  1  1  0  0  0
  1  2  2  0  0  0
  2  3  1  0  0  0
  3 22  1  0  0  0
 22 23  1  0  0  0
 23 24  1  0  0  0
 23 25  1  0  0  0
 25 26  1  0  0  0
 25 27  1  0  0  0
 25 28  1  0  0  0
  3  4  2  0  0  0
  4  5  1  0  0  0
  5  6  2  0  0  0
  5  7  1  0  0  0
  7  8  2  0  0  0
  7  9  1  0  0  0
  9 11  1  0  0  0
 11 12  2  0  0  0
 12 13  1  0  0  0
 13 14  2  0  0  0
 14 15  1  0  0  0
  6  1  1  0  0  0
 15 11  1  0  0  0
  9 10  1  0  0  0
M  END
> <minimizedAffinity>
-7.18803

> <CNNscore>
0.1635383964

> <CNNaffinity>
5.7143793106

> <CNN_VS>
0.9345204234

> <CNNaffinity_variance>
0.2067050636

$$$$
[H]c1nc(N([H])C(=O)c2c([H])c(O[C@@]([H])(C([H])([H])[H])C([H])([H])OC([H])([H])[H])c([H])c(O[C@]([H])(C([H])([H])[H])C(C([H])([H])[H])(C([H])([H])[H])C([H])([H])[H])c2[H])sc1[H]


 28 29  0  0  0  0  0  0  0  0999 V2000
  -88.3159   29.4703   -2.3050 C   0  0  0  0  0  0  0  0  0  0  0  0
  -87.4735   29.4386   -1.1804 C   0  0  0  0  0  0  0  0  0  0  0  0
  -86.8614   30.5616   -0.6714 C   0  0  0  0  0  0  0  0  0  0  0  0
  -87.0960   31.7396   -1.2989 C   0  0  0  0  0  0  0  0  0  0  0  0
  -87.9144   31.8637   -2.4165 C   0  0  0  0  0  0  0  0  0  0  0  0
  -88.5093   30.6976   -2.8912 C   0  0  0  0  0  0  0  0  0  0  0  0
  -88.1055   33.1603   -3.0184 C   0  0  0  0  0  0  0  0  0  0  0  0
  -88.8917   33.9846   -2.4815 O   0  0  0  0  0  0  0  0  0  0  0  0
  -87.4303   33.5418   -4.2072 N   0  0  0  0  0  0  0  0  0  0  0  0
  -86.7639   32.9260   -4.7178 H   0  0  0  0  0  0  0  0  0  0  0  0
  -87.6494   34.8424   -4.7730 C   0  0  0  0  0  0  0  0  0  0  0  0
  -86.8700   35.8984   -4.6025 N   0  0  0  0  0  0  0  0  0  0  0  0
  -87.1749   37.0222   -5.1674 C   0  0  0  0  0  0  0  0  0  0  0  0
  -88.3139   37.0641   -5.9302 C   0  0  0  0  0  0  0  0  0  0  0  0
  -88.8789   35.4539   -5.7799 S   0  0  0  0  0  0  0  0  0  0  0  0
  -88.8871   28.2953   -2.7458 O   0  0  0  0  0  0  0  0  0  0  0  0
  -89.6672   27.4327   -2.0071 C   0  0  0  0  0  0  0  0  0  0  0  0
  -90.7134   28.2628   -1.2759 C   0  0  0  0  0  0  0  0  0  0  0  0
  -90.3614   26.4991   -3.0082 C   0  0  0  0  0  0  0  0  0  0  0  0
  -92.3098   26.5487   -4.2553 C   0  0  0  0  0  0  0  0  0  0  0  0
  -91.1486   27.1901   -3.8966 O   0  0  0  0  0  0  0  0  0  0  0  0
  -86.0537   30.4270    0.4349 O   0  0  0  0  0  0  0  0  0  0  0  0
  -84.9503   29.6242    0.6284 C   0  0  0  0  0  0  0  0  0  0  0  0
  -85.2251   28.4258    1.5159 C   0  0  0  0  0  0  0  0  0  0  0  0
  -83.8245   30.4557    1.2036 C   0  0  0  0  0  0  0  0  0  0  0  0
  -82.8124   29.5357    1.8500 C   0  0  0  0  0  0  0  0  0  0  0  0
  -84.3015   31.4920    2.1719 C   0  0  0  0  0  0  0  0  0  0  0  0
  -83.1400   31.1800    0.0569 C   0  0  0  0  0  0  0  0  0  0  0  0
 20 21  1  0  0  0
 21 19  1  0  0  0
 19 17  1  0  0  0
 17 18  1  0  0  0
 17 16  1  0  0  0
 16  1  1  0  0  0
  1  2  2  0  0  0
  2  3  1  0  0  0
  3 22  1  0  0  0
 22 23  1  0  0  0
 23 24  1  0  0  0
 23 25  1  0  0  0
 25 26  1  0  0  0
 25 27  1  0  0  0
 25 28  1  0  0  0
  3  4  2  0  0  0
  4  5  1  0  0  0
  5  6  2  0  0  0
  5  7  1  0  0  0
  7  8  2  0  0  0
  7  9  1  0  0  0
  9 11  1  0  0  0
 11 12  2  0  0  0
 12 13  1  0  0  0
 13 14  2  0  0  0
 14 15  1  0  0  0
  6  1  1  0  0  0
 15 11  1  0  0  0
  9 10  1  0  0  0
M  END
> <minimizedAffinity>
-7.44359

> <CNNscore>
0.1536462754

> <CNNaffinity>
5.7086505890

> <CNN_VS>
0.8771129251

> <CNNaffinity_variance>
0.3309404254

$$$$
[H]c1nc(N([H])C(=O)c2c([H])c(O[C@@]([H])(C([H])([H])[H])C([H])([H])OC([H])([H])[H])c([H])c(O[C@]([H])(C([H])([H])[H])C(C([H])([H])[H])(C([H])([H])[H])C([H])([H])[H])c2[H])sc1[H]


 28 29  0  0  0  0  0  0  0  0999 V2000
  -85.5508   30.3246    1.2898 C   0  0  0  0  0  0  0  0  0  0  0  0
  -86.1216   30.8022    0.0975 C   0  0  0  0  0  0  0  0  0  0  0  0
  -87.1630   30.1676   -0.5409 C   0  0  0  0  0  0  0  0  0  0  0  0
  -87.6435   29.0331    0.0236 C   0  0  0  0  0  0  0  0  0  0  0  0
  -87.1400   28.4892    1.2005 C   0  0  0  0  0  0  0  0  0  0  0  0
  -86.0870   29.1699    1.8062 C   0  0  0  0  0  0  0  0  0  0  0  0
  -87.7156   27.2764    1.7273 C   0  0  0  0  0  0  0  0  0  0  0  0
  -86.9616   26.3247    2.0610 O   0  0  0  0  0  0  0  0  0  0  0  0
  -89.1176   27.1183    1.8840 N   0  0  0  0  0  0  0  0  0  0  0  0
  -89.8143   27.8508    1.6349 H   0  0  0  0  0  0  0  0  0  0  0  0
  -89.6488   25.8944    2.4125 C   0  0  0  0  0  0  0  0  0  0  0  0
  -90.1704   24.9090    1.6995 N   0  0  0  0  0  0  0  0  0  0  0  0
  -90.6186   23.8504    2.2942 C   0  0  0  0  0  0  0  0  0  0  0  0
  -90.5289   23.8013    3.6618 C   0  0  0  0  0  0  0  0  0  0  0  0
  -89.7923   25.3093    4.0052 S   0  0  0  0  0  0  0  0  0  0  0  0
  -84.5096   31.0257    1.8603 O   0  0  0  0  0  0  0  0  0  0  0  0
  -83.1685   30.8772    1.5818 C   0  0  0  0  0  0  0  0  0  0  0  0
  -82.8109   29.4113    1.7859 C   0  0  0  0  0  0  0  0  0  0  0  0
  -82.9810   31.2499    0.1047 C   0  0  0  0  0  0  0  0  0  0  0  0
  -83.8083   33.1927   -0.8414 C   0  0  0  0  0  0  0  0  0  0  0  0
  -82.8348   32.6043   -0.0703 O   0  0  0  0  0  0  0  0  0  0  0  0
  -87.6533   30.7148   -1.7047 O   0  0  0  0  0  0  0  0  0  0  0  0
  -88.0175   32.0146   -1.9827 C   0  0  0  0  0  0  0  0  0  0  0  0
  -89.1538   32.5207   -1.1155 C   0  0  0  0  0  0  0  0  0  0  0  0
  -88.3847   32.1265   -3.4463 C   0  0  0  0  0  0  0  0  0  0  0  0
  -87.6064   33.2671   -4.0643 C   0  0  0  0  0  0  0  0  0  0  0  0
  -89.8545   32.2998   -3.6667 C   0  0  0  0  0  0  0  0  0  0  0  0
  -87.9659   30.8399   -4.1372 C   0  0  0  0  0  0  0  0  0  0  0  0
 20 21  1  0  0  0
 21 19  1  0  0  0
 19 17  1  0  0  0
 17 18  1  0  0  0
 17 16  1  0  0  0
 16  1  1  0  0  0
  1  2  2  0  0  0
  2  3  1  0  0  0
  3 22  1  0  0  0
 22 23  1  0  0  0
 23 24  1  0  0  0
 23 25  1  0  0  0
 25 26  1  0  0  0
 25 27  1  0  0  0
 25 28  1  0  0  0
  3  4  2  0  0  0
  4  5  1  0  0  0
  5  6  2  0  0  0
  5  7  1  0  0  0
  7  8  2  0  0  0
  7  9  1  0  0  0
  9 11  1  0  0  0
 11 12  2  0  0  0
 12 13  1  0  0  0
 13 14  2  0  0  0
 14 15  1  0  0  0
  6  1  1  0  0  0
 15 11  1  0  0  0
  9 10  1  0  0  0
M  END
> <minimizedAffinity>
-7.40070

> <CNNscore>
0.1433377117

> <CNNaffinity>
6.0120649338

> <CNN_VS>
0.8617556095

> <CNNaffinity_variance>
0.2874736488

$$$$
[H]c1c(N([H])C(=O)[C@]2([H])N(C(=O)c3c([H])c([H])c(F)c(Cl)c3[H])C([H])([H])c3c([H])c([H])c([H])c([H])c3C2([H])[H])noc1C(C([H])([H])[H])(C([H])([H])[H])C([H])([H])[H]


 33 36  0  0  0  0  0  0  0  0999 V2000
  -88.7042   28.7992   -2.0177 C   0  0  0  0  0  0  0  0  0  0  0  0
  -89.8407   28.7837   -3.0368 C   0  0  0  0  0  0  0  0  0  0  0  0
  -90.4146   30.1032   -3.3495 C   0  0  0  0  0  0  0  0  0  0  0  0
  -91.7924   30.2318   -3.6167 C   0  0  0  0  0  0  0  0  0  0  0  0
  -92.2686   31.5007   -3.9651 C   0  0  0  0  0  0  0  0  0  0  0  0
  -91.3931   32.5542   -4.0345 C   0  0  0  0  0  0  0  0  0  0  0  0
  -90.0319   32.3976   -3.7612 C   0  0  0  0  0  0  0  0  0  0  0  0
  -89.5607   31.1580   -3.4168 C   0  0  0  0  0  0  0  0  0  0  0  0
  -88.1029   30.9769   -3.0880 C   0  0  0  0  0  0  0  0  0  0  0  0
  -87.9440   29.9874   -1.9883 N   0  0  0  0  0  0  0  0  0  0  0  0
  -87.1017   30.3434   -0.9346 C   0  0  0  0  0  0  0  0  0  0  0  0
  -87.2041   29.6103    0.1513 O   0  0  0  0  0  0  0  0  0  0  0  0
  -86.1127   31.3771   -0.7945 C   0  0  0  0  0  0  0  0  0  0  0  0
  -86.3116   32.6960   -1.1594 C   0  0  0  0  0  0  0  0  0  0  0  0
  -85.3566   33.6630   -0.9539 C   0  0  0  0  0  0  0  0  0  0  0  0
  -84.1600   33.3506   -0.3769 C   0  0  0  0  0  0  0  0  0  0  0  0
  -83.1920   34.2748   -0.1737 F   0  0  0  0  0  0  0  0  0  0  0  0
  -83.9108   32.0304    0.0095 C   0  0  0  0  0  0  0  0  0  0  0  0
  -82.3725   31.6654    0.7700 Cl  0  0  0  0  0  0  0  0  0  0  0  0
  -84.8779   31.0915   -0.2043 C   0  0  0  0  0  0  0  0  0  0  0  0
  -89.8973   28.9139    0.2370 N   0  0  0  0  0  0  0  0  0  0  0  0
  -89.2261   28.1957   -0.8315 C   0  0  0  0  0  0  0  0  0  0  0  0
  -89.1080   26.9435   -0.6138 O   0  0  0  0  0  0  0  0  0  0  0  0
  -90.0279   29.9350    0.0603 H   0  0  0  0  0  0  0  0  0  0  0  0
  -90.2703   27.0159    3.3168 C   0  0  0  0  0  0  0  0  0  0  0  0
  -89.5357   27.3554    2.1966 C   0  0  0  0  0  0  0  0  0  0  0  0
  -90.1917   28.3301    1.4895 C   0  0  0  0  0  0  0  0  0  0  0  0
  -91.3330   28.5590    2.2253 N   0  0  0  0  0  0  0  0  0  0  0  0
  -91.3499   27.7976    3.2556 O   0  0  0  0  0  0  0  0  0  0  0  0
  -89.9363   26.6250    5.7656 C   0  0  0  0  0  0  0  0  0  0  0  0
  -90.0069   26.0290    4.3882 C   0  0  0  0  0  0  0  0  0  0  0  0
  -91.0875   24.9608    4.3515 C   0  0  0  0  0  0  0  0  0  0  0  0
  -88.6537   25.3569    4.1542 C   0  0  0  0  0  0  0  0  0  0  0  0
 30 31  1  0  0  0
 31 32  1  0  0  0
 31 33  1  0  0  0
 31 25  1  0  0  0
 25 26  2  0  0  0
 26 27  1  0  0  0
 27 21  1  0  0  0
 21 22  1  0  0  0
 22 23  2  0  0  0
 22  1  1  0  0  0
  1  2  1  0  0  0
  2  3  1  0  0  0
  3  4  2  0  0  0
  4  5  1  0  0  0
  5  6  2  0  0  0
  6  7  1  0  0  0
  7  8  2  0  0  0
  8  9  1  0  0  0
  9 10  1  0  0  0
 10 11  1  0  0  0
 11 12  2  0  0  0
 11 13  1  0  0  0
 13 14  2  0  0  0
 14 15  1  0  0  0
 15 16  2  0  0  0
 16 17  1  0  0  0
 16 18  1  0  0  0
 18 19  1  0  0  0
 18 20  2  0  0  0
 27 28  2  0  0  0
 28 29  1  0  0  0
 29 25  1  0  0  0
 10  1  1  0  0  0
 20 13  1  0  0  0
  8  3  1  0  0  0
 21 24  1  0  0  0
M  END
> <minimizedAffinity>
-7.97842

> <CNNscore>
0.1455678642

> <CNNaffinity>
6.3367872238

> <CNN_VS>
0.9224326015

> <CNNaffinity_variance>
0.3458454013

$$$$
[H]c1c(N([H])C(=O)[C@]2([H])N(C(=O)c3c([H])c([H])c(F)c(Cl)c3[H])C([H])([H])c3c([H])c([H])c([H])c([H])c3C2([H])[H])noc1C(C([H])([H])[H])(C([H])([H])[H])C([H])([H])[H]


 33 36  0  0  0  0  0  0  0  0999 V2000
  -89.0255   31.4412   -0.9738 C   0  0  0  0  0  0  0  0  0  0  0  0
  -90.2919   30.6440   -1.2760 C   0  0  0  0  0  0  0  0  0  0  0  0
  -90.0712   29.2258   -1.6047 C   0  0  0  0  0  0  0  0  0  0  0  0
  -90.8896   28.5826   -2.5550 C   0  0  0  0  0  0  0  0  0  0  0  0
  -90.6696   27.2194   -2.7820 C   0  0  0  0  0  0  0  0  0  0  0  0
  -89.6845   26.5695   -2.0831 C   0  0  0  0  0  0  0  0  0  0  0  0
  -88.8862   27.2339   -1.1487 C   0  0  0  0  0  0  0  0  0  0  0  0
  -89.0953   28.5692   -0.9245 C   0  0  0  0  0  0  0  0  0  0  0  0
  -88.2239   29.3086    0.0554 C   0  0  0  0  0  0  0  0  0  0  0  0
  -87.9614   30.6897   -0.4319 N   0  0  0  0  0  0  0  0  0  0  0  0
  -86.6380   31.1302   -0.4003 C   0  0  0  0  0  0  0  0  0  0  0  0
  -86.3795   32.2126   -1.0995 O   0  0  0  0  0  0  0  0  0  0  0  0
  -85.4675   30.6274    0.2654 C   0  0  0  0  0  0  0  0  0  0  0  0
  -84.2857   31.3334    0.3966 C   0  0  0  0  0  0  0  0  0  0  0  0
  -83.2100   30.8348    1.0920 C   0  0  0  0  0  0  0  0  0  0  0  0
  -83.2700   29.6064    1.6836 C   0  0  0  0  0  0  0  0  0  0  0  0
  -82.2245   29.0791    2.3627 F   0  0  0  0  0  0  0  0  0  0  0  0
  -84.4432   28.8535    1.5792 C   0  0  0  0  0  0  0  0  0  0  0  0
  -84.4973   27.2886    2.3705 Cl  0  0  0  0  0  0  0  0  0  0  0  0
  -85.4965   29.3744    0.8849 C   0  0  0  0  0  0  0  0  0  0  0  0
  -88.6922   33.7746   -1.9559 N   0  0  0  0  0  0  0  0  0  0  0  0
  -88.8471   32.3358   -2.0744 C   0  0  0  0  0  0  0  0  0  0  0  0
  -88.8386   31.9157   -3.2798 O   0  0  0  0  0  0  0  0  0  0  0  0
  -88.6674   34.1304   -0.9742 H   0  0  0  0  0  0  0  0  0  0  0  0
  -88.3228   36.1930   -4.6468 C   0  0  0  0  0  0  0  0  0  0  0  0
  -87.7665   35.3827   -3.6755 C   0  0  0  0  0  0  0  0  0  0  0  0
  -88.7504   34.6482   -3.0647 C   0  0  0  0  0  0  0  0  0  0  0  0
  -89.9032   35.0453   -3.7049 N   0  0  0  0  0  0  0  0  0  0  0  0
  -89.6286   35.9234   -4.5966 O   0  0  0  0  0  0  0  0  0  0  0  0
  -87.4576   36.6273   -6.9542 C   0  0  0  0  0  0  0  0  0  0  0  0
  -87.7006   37.1660   -5.5728 C   0  0  0  0  0  0  0  0  0  0  0  0
  -88.5828   38.4008   -5.6568 C   0  0  0  0  0  0  0  0  0  0  0  0
  -86.3299   37.5857   -5.0411 C   0  0  0  0  0  0  0  0  0  0  0  0
 30 31  1  0  0  0
 31 32  1  0  0  0
 31 33  1  0  0  0
 31 25  1  0  0  0
 25 26  2  0  0  0
 26 27  1  0  0  0
 27 21  1  0  0  0
 21 22  1  0  0  0
 22 23  2  0  0  0
 22  1  1  0  0  0
  1  2  1  0  0  0
  2  3  1  0  0  0
  3  4  2  0  0  0
  4  5  1  0  0  0
  5  6  2  0  0  0
  6  7  1  0  0  0
  7  8  2  0  0  0
  8  9  1  0  0  0
  9 10  1  0  0  0
 10 11  1  0  0  0
 11 12  2  0  0  0
 11 13  1  0  0  0
 13 14  2  0  0  0
 14 15  1  0  0  0
 15 16  2  0  0  0
 16 17  1  0  0  0
 16 18  1  0  0  0
 18 19  1  0  0  0
 18 20  2  0  0  0
 27 28  2  0  0  0
 28 29  1  0  0  0
 29 25  1  0  0  0
 10  1  1  0  0  0
 20 13  1  0  0  0
  8  3  1  0  0  0
 21 24  1  0  0  0
M  END
> <minimizedAffinity>
-9.56326

> <CNNscore>
0.1348610222

> <CNNaffinity>
6.2501955032

> <CNN_VS>
0.8429077268

> <CNNaffinity_variance>
0.3486213088

$$$$
[H]c1c(N([H])C(=O)[C@]2([H])N(C(=O)c3c([H])c([H])c(F)c(Cl)c3[H])C([H])([H])c3c([H])c([H])c([H])c([H])c3C2([H])[H])noc1C(C([H])([H])[H])(C([H])([H])[H])C([H])([H])[H]


 33 36  0  0  0  0  0  0  0  0999 V2000
  -89.5413   30.6754   -1.1472 C   0  0  0  0  0  0  0  0  0  0  0  0
  -90.7095   29.7477   -1.4715 C   0  0  0  0  0  0  0  0  0  0  0  0
  -90.3407   28.3423   -1.7106 C   0  0  0  0  0  0  0  0  0  0  0  0
  -91.0407   27.5784   -2.6660 C   0  0  0  0  0  0  0  0  0  0  0  0
  -90.6835   26.2327   -2.8067 C   0  0  0  0  0  0  0  0  0  0  0  0
  -89.6843   25.7145   -2.0228 C   0  0  0  0  0  0  0  0  0  0  0  0
  -89.0054   26.4968   -1.0854 C   0  0  0  0  0  0  0  0  0  0  0  0
  -89.3491   27.8157   -0.9454 C   0  0  0  0  0  0  0  0  0  0  0  0
  -88.6070   28.6818    0.0371 C   0  0  0  0  0  0  0  0  0  0  0  0
  -88.4453   30.0559   -0.5102 N   0  0  0  0  0  0  0  0  0  0  0  0
  -87.1720   30.6211   -0.4333 C   0  0  0  0  0  0  0  0  0  0  0  0
  -86.9747   31.6873   -1.1759 O   0  0  0  0  0  0  0  0  0  0  0  0
  -86.0002   30.2650    0.3191 C   0  0  0  0  0  0  0  0  0  0  0  0
  -85.9292   29.1852    1.1801 C   0  0  0  0  0  0  0  0  0  0  0  0
  -84.7690   28.8484    1.8357 C   0  0  0  0  0  0  0  0  0  0  0  0
  -83.6305   29.5802    1.6600 C   0  0  0  0  0  0  0  0  0  0  0  0
  -82.4754   29.2856    2.3013 F   0  0  0  0  0  0  0  0  0  0  0  0
  -83.6514   30.6819    0.7997 C   0  0  0  0  0  0  0  0  0  0  0  0
  -82.1658   31.5881    0.5768 Cl  0  0  0  0  0  0  0  0  0  0  0  0
  -84.8164   30.9916    0.1599 C   0  0  0  0  0  0  0  0  0  0  0  0
  -89.5599   32.9687   -2.2700 N   0  0  0  0  0  0  0  0  0  0  0  0
  -89.3833   31.5276   -2.2840 C   0  0  0  0  0  0  0  0  0  0  0  0
  -89.0918   31.0568   -3.4341 O   0  0  0  0  0  0  0  0  0  0  0  0
  -89.7697   33.3725   -1.3299 H   0  0  0  0  0  0  0  0  0  0  0  0
  -89.3298   35.2993   -5.0524 C   0  0  0  0  0  0  0  0  0  0  0  0
  -88.7910   34.7314   -3.9137 C   0  0  0  0  0  0  0  0  0  0  0  0
  -89.6241   33.7470   -3.4474 C   0  0  0  0  0  0  0  0  0  0  0  0
  -90.6688   33.7474   -4.3447 N   0  0  0  0  0  0  0  0  0  0  0  0
  -90.4739   34.6397   -5.2433 O   0  0  0  0  0  0  0  0  0  0  0  0
  -87.3505   36.3485   -6.1671 C   0  0  0  0  0  0  0  0  0  0  0  0
  -88.8325   36.3885   -5.9228 C   0  0  0  0  0  0  0  0  0  0  0  0
  -89.5683   36.3333   -7.2515 C   0  0  0  0  0  0  0  0  0  0  0  0
  -89.1118   37.7429   -5.2708 C   0  0  0  0  0  0  0  0  0  0  0  0
 30 31  1  0  0  0
 31 32  1  0  0  0
 31 33  1  0  0  0
 31 25  1  0  0  0
 25 26  2  0  0  0
 26 27  1  0  0  0
 27 21  1  0  0  0
 21 22  1  0  0  0
 22 23  2  0  0  0
 22  1  1  0  0  0
  1  2  1  0  0  0
  2  3  1  0  0  0
  3  4  2  0  0  0
  4  5  1  0  0  0
  5  6  2  0  0  0
  6  7  1  0  0  0
  7  8  2  0  0  0
  8  9  1  0  0  0
  9 10  1  0  0  0
 10 11  1  0  0  0
 11 12  2  0  0  0
 11 13  1  0  0  0
 13 14  2  0  0  0
 14 15  1  0  0  0
 15 16  2  0  0  0
 16 17  1  0  0  0
 16 18  1  0  0  0
 18 19  1  0  0  0
 18 20  2  0  0  0
 27 28  2  0  0  0
 28 29  1  0  0  0
 29 25  1  0  0  0
 10  1  1  0  0  0
 20 13  1  0  0  0
  8  3  1  0  0  0
 21 24  1  0  0  0
M  END
> <minimizedAffinity>
-9.39208

> <CNNscore>
0.0951137319

> <CNNaffinity>
5.9803972244

> <CNN_VS>
0.5688179135

> <CNNaffinity_variance>
0.3264773488

$$$$
[H]c1c(N([H])C(=O)[C@]2([H])N(C(=O)c3c([H])c([H])c(F)c(Cl)c3[H])C([H])([H])c3c([H])c([H])c([H])c([H])c3C2([H])[H])noc1C(C([H])([H])[H])(C([H])([H])[H])C([H])([H])[H]


 33 36  0  0  0  0  0  0  0  0999 V2000
  -90.0687   30.5554   -1.5977 C   0  0  0  0  0  0  0  0  0  0  0  0
  -90.9946   29.3427   -1.5469 C   0  0  0  0  0  0  0  0  0  0  0  0
  -90.3112   28.0391   -1.5028 C   0  0  0  0  0  0  0  0  0  0  0  0
  -90.8693   26.9235   -2.1588 C   0  0  0  0  0  0  0  0  0  0  0  0
  -90.2048   25.6986   -2.0320 C   0  0  0  0  0  0  0  0  0  0  0  0
  -89.0560   25.6284   -1.2859 C   0  0  0  0  0  0  0  0  0  0  0  0
  -88.5239   26.7521   -0.6487 C   0  0  0  0  0  0  0  0  0  0  0  0
  -89.1690   27.9546   -0.7718 C   0  0  0  0  0  0  0  0  0  0  0  0
  -88.5931   29.1826   -0.1185 C   0  0  0  0  0  0  0  0  0  0  0  0
  -88.8119   30.3739   -0.9826 N   0  0  0  0  0  0  0  0  0  0  0  0
  -87.7134   31.2055   -1.2025 C   0  0  0  0  0  0  0  0  0  0  0  0
  -87.8363   32.0652   -2.1889 O   0  0  0  0  0  0  0  0  0  0  0  0
  -86.4396   31.3181   -0.5462 C   0  0  0  0  0  0  0  0  0  0  0  0
  -85.6608   32.4608   -0.5540 C   0  0  0  0  0  0  0  0  0  0  0  0
  -84.4748   32.5415    0.1362 C   0  0  0  0  0  0  0  0  0  0  0  0
  -84.0159   31.4805    0.8615 C   0  0  0  0  0  0  0  0  0  0  0  0
  -82.8454   31.5208    1.5403 F   0  0  0  0  0  0  0  0  0  0  0  0
  -84.7673   30.3023    0.9007 C   0  0  0  0  0  0  0  0  0  0  0  0
  -84.1623   28.9646    1.8610 Cl  0  0  0  0  0  0  0  0  0  0  0  0
  -85.9421   30.2512    0.2081 C   0  0  0  0  0  0  0  0  0  0  0  0
  -90.7050   32.4363   -3.2032 N   0  0  0  0  0  0  0  0  0  0  0  0
  -90.2054   31.1049   -2.9103 C   0  0  0  0  0  0  0  0  0  0  0  0
  -89.9112   30.4261   -3.9506 O   0  0  0  0  0  0  0  0  0  0  0  0
  -90.9221   33.0149   -2.3611 H   0  0  0  0  0  0  0  0  0  0  0  0
  -91.2803   33.9998   -6.4359 C   0  0  0  0  0  0  0  0  0  0  0  0
  -90.5491   33.8888   -5.2686 C   0  0  0  0  0  0  0  0  0  0  0  0
  -91.0437   32.8609   -4.5075 C   0  0  0  0  0  0  0  0  0  0  0  0
  -92.0856   32.3659   -5.2596 N   0  0  0  0  0  0  0  0  0  0  0  0
  -92.1959   33.0333   -6.3478 O   0  0  0  0  0  0  0  0  0  0  0  0
  -91.0201   34.2655   -8.9104 C   0  0  0  0  0  0  0  0  0  0  0  0
  -91.1559   34.9384   -7.5739 C   0  0  0  0  0  0  0  0  0  0  0  0
  -92.3655   35.8586   -7.5889 C   0  0  0  0  0  0  0  0  0  0  0  0
  -89.8994   35.7933   -7.4072 C   0  0  0  0  0  0  0  0  0  0  0  0
 30 31  1  0  0  0
 31 32  1  0  0  0
 31 33  1  0  0  0
 31 25  1  0  0  0
 25 26  2  0  0  0
 26 27  1  0  0  0
 27 21  1  0  0  0
 21 22  1  0  0  0
 22 23  2  0  0  0
 22  1  1  0  0  0
  1  2  1  0  0  0
  2  3  1  0  0  0
  3  4  2  0  0  0
  4  5  1  0  0  0
  5  6  2  0  0  0
  6  7  1  0  0  0
  7  8  2  0  0  0
  8  9  1  0  0  0
  9 10  1  0  0  0
 10 11  1  0  0  0
 11 12  2  0  0  0
 11 13  1  0  0  0
 13 14  2  0  0  0
 14 15  1  0  0  0
 15 16  2  0  0  0
 16 17  1  0  0  0
 16 18  1  0  0  0
 18 19  1  0  0  0
 18 20  2  0  0  0
 27 28  2  0  0  0
 28 29  1  0  0  0
 29 25  1  0  0  0
 10  1  1  0  0  0
 20 13  1  0  0  0
  8  3  1  0  0  0
 21 24  1  0  0  0
M  END
> <minimizedAffinity>
-8.88552

> <CNNscore>
0.0909981355

> <CNNaffinity>
5.9292364120

> <CNN_VS>
0.5395494699

> <CNNaffinity_variance>
0.2513457239

$$$$
[H]c1c(N([H])C(=O)[C@]2([H])N(C(=O)c3c([H])c([H])c(F)c(Cl)c3[H])C([H])([H])c3c([H])c([H])c([H])c([H])c3C2([H])[H])noc1C(C([H])([H])[H])(C([H])([H])[H])C([H])([H])[H]


 33 36  0  0  0  0  0  0  0  0999 V2000
  -89.0038   31.2695   -1.0917 C   0  0  0  0  0  0  0  0  0  0  0  0
  -90.2770   30.4632   -1.3351 C   0  0  0  0  0  0  0  0  0  0  0  0
  -90.0687   29.0222   -1.5553 C   0  0  0  0  0  0  0  0  0  0  0  0
  -90.8918   28.3164   -2.4558 C   0  0  0  0  0  0  0  0  0  0  0  0
  -90.6839   26.9381   -2.5787 C   0  0  0  0  0  0  0  0  0  0  0  0
  -89.7056   26.3341   -1.8308 C   0  0  0  0  0  0  0  0  0  0  0  0
  -88.9024   27.0600   -0.9477 C   0  0  0  0  0  0  0  0  0  0  0  0
  -89.0997   28.4103   -0.8255 C   0  0  0  0  0  0  0  0  0  0  0  0
  -88.2227   29.2138    0.0973 C   0  0  0  0  0  0  0  0  0  0  0  0
  -87.9471   30.5517   -0.4925 N   0  0  0  0  0  0  0  0  0  0  0  0
  -86.6198   30.9815   -0.4918 C   0  0  0  0  0  0  0  0  0  0  0  0
  -86.3506   32.0055   -1.2703 O   0  0  0  0  0  0  0  0  0  0  0  0
  -85.4547   30.5199    0.2123 C   0  0  0  0  0  0  0  0  0  0  0  0
  -84.2898   31.2523    0.3492 C   0  0  0  0  0  0  0  0  0  0  0  0
  -83.2202   30.7940    1.0808 C   0  0  0  0  0  0  0  0  0  0  0  0
  -83.2697   29.5811    1.7044 C   0  0  0  0  0  0  0  0  0  0  0  0
  -82.2294   29.0930    2.4199 F   0  0  0  0  0  0  0  0  0  0  0  0
  -84.4257   28.8026    1.5957 C   0  0  0  0  0  0  0  0  0  0  0  0
  -84.4672   27.2589    2.4283 Cl  0  0  0  0  0  0  0  0  0  0  0  0
  -85.4733   29.2838    0.8652 C   0  0  0  0  0  0  0  0  0  0  0  0
  -88.7325   33.5263   -2.2552 N   0  0  0  0  0  0  0  0  0  0  0  0
  -88.8159   32.0768   -2.2564 C   0  0  0  0  0  0  0  0  0  0  0  0
  -88.7326   31.5583   -3.4199 O   0  0  0  0  0  0  0  0  0  0  0  0
  -88.7693   33.9637   -1.3074 H   0  0  0  0  0  0  0  0  0  0  0  0
  -89.3973   35.3514   -5.3298 C   0  0  0  0  0  0  0  0  0  0  0  0
  -89.8480   34.7267   -4.1826 C   0  0  0  0  0  0  0  0  0  0  0  0
  -88.7794   34.3002   -3.4363 C   0  0  0  0  0  0  0  0  0  0  0  0
  -87.6849   34.6935   -4.1736 N   0  0  0  0  0  0  0  0  0  0  0  0
  -88.0674   35.2863   -5.2432 O   0  0  0  0  0  0  0  0  0  0  0  0
  -89.3161   36.9293   -7.2701 C   0  0  0  0  0  0  0  0  0  0  0  0
  -90.1369   35.9741   -6.4508 C   0  0  0  0  0  0  0  0  0  0  0  0
  -90.6872   34.8778   -7.3482 C   0  0  0  0  0  0  0  0  0  0  0  0
  -91.3104   36.7906   -5.9088 C   0  0  0  0  0  0  0  0  0  0  0  0
 30 31  1  0  0  0
 31 32  1  0  0  0
 31 33  1  0  0  0
 31 25  1  0  0  0
 25 26  2  0  0  0
 26 27  1  0  0  0
 27 21  1  0  0  0
 21 22  1  0  0  0
 22 23  2  0  0  0
 22  1  1  0  0  0
  1  2  1  0  0  0
  2  3  1  0  0  0
  3  4  2  0  0  0
  4  5  1  0  0  0
  5  6  2  0  0  0
  6  7  1  0  0  0
  7  8  2  0  0  0
  8  9  1  0  0  0
  9 10  1  0  0  0
 10 11  1  0  0  0
 11 12  2  0  0  0
 11 13  1  0  0  0
 13 14  2  0  0  0
 14 15  1  0  0  0
 15 16  2  0  0  0
 16 17  1  0  0  0
 16 18  1  0  0  0
 18 19  1  0  0  0
 18 20  2  0  0  0
 27 28  2  0  0  0
 28 29  1  0  0  0
 29 25  1  0  0  0
 10  1  1  0  0  0
 20 13  1  0  0  0
  8  3  1  0  0  0
 21 24  1  0  0  0
M  END
> <minimizedAffinity>
-9.29177

> <CNNscore>
0.0885705352

> <CNNaffinity>
6.0437173843

> <CNN_VS>
0.5352953076

> <CNNaffinity_variance>
0.2919875979

$$$$
[H]c1c(N([H])C(=O)[C@]2([H])N(C(=O)c3c([H])c([H])c(F)c(Cl)c3[H])C([H])([H])c3c([H])c([H])c([H])c([H])c3C2([H])[H])noc1C(C([H])([H])[H])(C([H])([H])[H])C([H])([H])[H]


 33 36  0  0  0  0  0  0  0  0999 V2000
  -88.5302   26.5479   -1.2986 C   0  0  0  0  0  0  0  0  0  0  0  0
  -87.8952   26.6546    0.0855 C   0  0  0  0  0  0  0  0  0  0  0  0
  -88.8057   26.3838    1.2107 C   0  0  0  0  0  0  0  0  0  0  0  0
  -88.6692   27.0948    2.4200 C   0  0  0  0  0  0  0  0  0  0  0  0
  -89.5254   26.7523    3.4725 C   0  0  0  0  0  0  0  0  0  0  0  0
  -90.4487   25.7539    3.2934 C   0  0  0  0  0  0  0  0  0  0  0  0
  -90.5633   25.0677    2.0818 C   0  0  0  0  0  0  0  0  0  0  0  0
  -89.7294   25.4010    1.0470 C   0  0  0  0  0  0  0  0  0  0  0  0
  -89.8597   24.6943   -0.2758 C   0  0  0  0  0  0  0  0  0  0  0  0
  -89.6108   25.6455   -1.3925 N   0  0  0  0  0  0  0  0  0  0  0  0
  -90.5301   25.6427   -2.4419 C   0  0  0  0  0  0  0  0  0  0  0  0
  -90.4712   26.6731   -3.2556 O   0  0  0  0  0  0  0  0  0  0  0  0
  -91.5552   24.7114   -2.8265 C   0  0  0  0  0  0  0  0  0  0  0  0
  -91.5082   23.3541   -2.5657 C   0  0  0  0  0  0  0  0  0  0  0  0
  -92.5391   22.5094   -2.9017 C   0  0  0  0  0  0  0  0  0  0  0  0
  -93.6604   22.9866   -3.5162 C   0  0  0  0  0  0  0  0  0  0  0  0
  -94.6872   22.1805   -3.8742 F   0  0  0  0  0  0  0  0  0  0  0  0
  -93.7556   24.3518   -3.8015 C   0  0  0  0  0  0  0  0  0  0  0  0
  -95.2196   24.9380   -4.5704 Cl  0  0  0  0  0  0  0  0  0  0  0  0
  -92.7181   25.1676   -3.4543 C   0  0  0  0  0  0  0  0  0  0  0  0
  -87.8125   28.3905   -2.9141 N   0  0  0  0  0  0  0  0  0  0  0  0
  -88.6019   27.8822   -1.8067 C   0  0  0  0  0  0  0  0  0  0  0  0
  -89.3742   28.7536   -1.2835 O   0  0  0  0  0  0  0  0  0  0  0  0
  -87.1972   27.6814   -3.3719 H   0  0  0  0  0  0  0  0  0  0  0  0
  -87.7305   32.0153   -3.1981 C   0  0  0  0  0  0  0  0  0  0  0  0
  -87.6472   30.8684   -2.4317 C   0  0  0  0  0  0  0  0  0  0  0  0
  -87.7379   29.7636   -3.2389 C   0  0  0  0  0  0  0  0  0  0  0  0
  -87.8740   30.2902   -4.5040 N   0  0  0  0  0  0  0  0  0  0  0  0
  -87.8674   31.5703   -4.4485 O   0  0  0  0  0  0  0  0  0  0  0  0
  -89.0280   34.0136   -2.4335 C   0  0  0  0  0  0  0  0  0  0  0  0
  -87.6906   33.4445   -2.8144 C   0  0  0  0  0  0  0  0  0  0  0  0
  -86.7170   33.6184   -1.6602 C   0  0  0  0  0  0  0  0  0  0  0  0
  -87.1993   34.2853   -3.9929 C   0  0  0  0  0  0  0  0  0  0  0  0
 30 31  1  0  0  0
 31 32  1  0  0  0
 31 33  1  0  0  0
 31 25  1  0  0  0
 25 26  2  0  0  0
 26 27  1  0  0  0
 27 21  1  0  0  0
 21 22  1  0  0  0
 22 23  2  0  0  0
 22  1  1  0  0  0
  1  2  1  0  0  0
  2  3  1  0  0  0
  3  4  2  0  0  0
  4  5  1  0  0  0
  5  6  2  0  0  0
  6  7  1  0  0  0
  7  8  2  0  0  0
  8  9  1  0  0  0
  9 10  1  0  0  0
 10 11  1  0  0  0
 11 12  2  0  0  0
 11 13  1  0  0  0
 13 14  2  0  0  0
 14 15  1  0  0  0
 15 16  2  0  0  0
 16 17  1  0  0  0
 16 18  1  0  0  0
 18 19  1  0  0  0
 18 20  2  0  0  0
 27 28  2  0  0  0
 28 29  1  0  0  0
 29 25  1  0  0  0
 10  1  1  0  0  0
 20 13  1  0  0  0
  8  3  1  0  0  0
 21 24  1  0  0  0
M  END
> <minimizedAffinity>
-8.61622

> <CNNscore>
0.0844119340

> <CNNaffinity>
5.7881250381

> <CNN_VS>
0.4885868430

> <CNNaffinity_variance>
0.2233231068

$$$$
[H]c1c(N([H])C(=O)[C@]2([H])N(C(=O)c3c([H])c([H])c(F)c(Cl)c3[H])C([H])([H])c3c([H])c([H])c([H])c([H])c3C2([H])[H])noc1C(C([H])([H])[H])(C([H])([H])[H])C([H])([H])[H]


 33 36  0  0  0  0  0  0  0  0999 V2000
  -87.7150   31.4614   -0.6465 C   0  0  0  0  0  0  0  0  0  0  0  0
  -86.7191   31.0615    0.4392 C   0  0  0  0  0  0  0  0  0  0  0  0
  -85.3212   31.4386    0.1713 C   0  0  0  0  0  0  0  0  0  0  0  0
  -84.2682   30.5994    0.5876 C   0  0  0  0  0  0  0  0  0  0  0  0
  -82.9599   31.0393    0.3571 C   0  0  0  0  0  0  0  0  0  0  0  0
  -82.7530   32.2501   -0.2531 C   0  0  0  0  0  0  0  0  0  0  0  0
  -83.8169   33.0602   -0.6579 C   0  0  0  0  0  0  0  0  0  0  0  0
  -85.0999   32.6331   -0.4372 C   0  0  0  0  0  0  0  0  0  0  0  0
  -86.2586   33.4780   -0.8953 C   0  0  0  0  0  0  0  0  0  0  0  0
  -87.3638   32.6108   -1.3856 N   0  0  0  0  0  0  0  0  0  0  0  0
  -87.9355   32.9487   -2.6125 C   0  0  0  0  0  0  0  0  0  0  0  0
  -88.6850   32.0229   -3.1677 O   0  0  0  0  0  0  0  0  0  0  0  0
  -87.8721   34.1410   -3.4128 C   0  0  0  0  0  0  0  0  0  0  0  0
  -87.8634   34.1481   -4.7956 C   0  0  0  0  0  0  0  0  0  0  0  0
  -87.8600   35.3160   -5.5204 C   0  0  0  0  0  0  0  0  0  0  0  0
  -87.8620   36.5273   -4.8919 C   0  0  0  0  0  0  0  0  0  0  0  0
  -87.8435   37.6961   -5.5746 F   0  0  0  0  0  0  0  0  0  0  0  0
  -87.8705   36.5731   -3.4947 C   0  0  0  0  0  0  0  0  0  0  0  0
  -87.8969   38.1454   -2.7168 Cl  0  0  0  0  0  0  0  0  0  0  0  0
  -87.8765   35.3980   -2.8007 C   0  0  0  0  0  0  0  0  0  0  0  0
  -89.5086   29.8397   -1.4670 N   0  0  0  0  0  0  0  0  0  0  0  0
  -88.1279   30.2453   -1.2743 C   0  0  0  0  0  0  0  0  0  0  0  0
  -87.2779   29.3926   -1.6984 O   0  0  0  0  0  0  0  0  0  0  0  0
  -90.2162   30.5403   -1.1519 H   0  0  0  0  0  0  0  0  0  0  0  0
  -90.4438   26.3610   -1.9676 C   0  0  0  0  0  0  0  0  0  0  0  0
  -90.3361   27.4701   -1.1504 C   0  0  0  0  0  0  0  0  0  0  0  0
  -89.8780   28.5390   -1.8770 C   0  0  0  0  0  0  0  0  0  0  0  0
  -89.7211   28.0308   -3.1472 N   0  0  0  0  0  0  0  0  0  0  0  0
  -90.0490   26.7923   -3.1669 O   0  0  0  0  0  0  0  0  0  0  0  0
  -89.8140   23.9407   -1.8855 C   0  0  0  0  0  0  0  0  0  0  0  0
  -90.8808   24.9775   -1.6740 C   0  0  0  0  0  0  0  0  0  0  0  0
  -91.3768   24.9108   -0.2389 C   0  0  0  0  0  0  0  0  0  0  0  0
  -92.0314   24.5881   -2.6024 C   0  0  0  0  0  0  0  0  0  0  0  0
 30 31  1  0  0  0
 31 32  1  0  0  0
 31 33  1  0  0  0
 31 25  1  0  0  0
 25 26  2  0  0  0
 26 27  1  0  0  0
 27 21  1  0  0  0
 21 22  1  0  0  0
 22 23  2  0  0  0
 22  1  1  0  0  0
  1  2  1  0  0  0
  2  3  1  0  0  0
  3  4  2  0  0  0
  4  5  1  0  0  0
  5  6  2  0  0  0
  6  7  1  0  0  0
  7  8  2  0  0  0
  8  9  1  0  0  0
  9 10  1  0  0  0
 10 11  1  0  0  0
 11 12  2  0  0  0
 11 13  1  0  0  0
 13 14  2  0  0  0
 14 15  1  0  0  0
 15 16  2  0  0  0
 16 17  1  0  0  0
 16 18  1  0  0  0
 18 19  1  0  0  0
 18 20  2  0  0  0
 27 28  2  0  0  0
 28 29  1  0  0  0
 29 25  1  0  0  0
 10  1  1  0  0  0
 20 13  1  0  0  0
  8  3  1  0  0  0
 21 24  1  0  0  0
M  END
> <minimizedAffinity>
-9.84603

> <CNNscore>
0.0638735592

> <CNNaffinity>
6.0326395035

> <CNN_VS>
0.3853261471

> <CNNaffinity_variance>
0.2528492808

$$$$
[H]c1c(N([H])C(=O)[C@]2([H])N(C(=O)c3c([H])c([H])c(F)c(Cl)c3[H])C([H])([H])c3c([H])c([H])c([H])c([H])c3C2([H])[H])noc1C(C([H])([H])[H])(C([H])([H])[H])C([H])([H])[H]


 33 36  0  0  0  0  0  0  0  0999 V2000
  -88.5594   26.4466   -0.0811 C   0  0  0  0  0  0  0  0  0  0  0  0
  -88.0562   26.8090    1.3139 C   0  0  0  0  0  0  0  0  0  0  0  0
  -89.0524   26.6734    2.3898 C   0  0  0  0  0  0  0  0  0  0  0  0
  -89.0542   27.5760    3.4723 C   0  0  0  0  0  0  0  0  0  0  0  0
  -89.9869   27.3609    4.4930 C   0  0  0  0  0  0  0  0  0  0  0  0
  -90.8492   26.2977    4.4059 C   0  0  0  0  0  0  0  0  0  0  0  0
  -90.8264   25.4204    3.3188 C   0  0  0  0  0  0  0  0  0  0  0  0
  -89.9171   25.6280    2.3152 C   0  0  0  0  0  0  0  0  0  0  0  0
  -89.8992   24.7117    1.1209 C   0  0  0  0  0  0  0  0  0  0  0  0
  -89.5897   25.4831   -0.1131 N   0  0  0  0  0  0  0  0  0  0  0  0
  -90.4100   25.2613   -1.2196 C   0  0  0  0  0  0  0  0  0  0  0  0
  -90.3200   26.1491   -2.1844 O   0  0  0  0  0  0  0  0  0  0  0  0
  -91.3578   24.2256   -1.5281 C   0  0  0  0  0  0  0  0  0  0  0  0
  -92.0176   24.1127   -2.7382 C   0  0  0  0  0  0  0  0  0  0  0  0
  -92.8732   23.0717   -3.0095 C   0  0  0  0  0  0  0  0  0  0  0  0
  -93.1075   22.1005   -2.0799 C   0  0  0  0  0  0  0  0  0  0  0  0
  -93.9553   21.0702   -2.3085 F   0  0  0  0  0  0  0  0  0  0  0  0
  -92.4643   22.1702   -0.8407 C   0  0  0  0  0  0  0  0  0  0  0  0
  -92.7681   20.8938    0.3241 Cl  0  0  0  0  0  0  0  0  0  0  0  0
  -91.6181   23.2134   -0.5995 C   0  0  0  0  0  0  0  0  0  0  0  0
  -87.9083   27.9665   -2.0269 N   0  0  0  0  0  0  0  0  0  0  0  0
  -88.6392   27.6758   -0.8065 C   0  0  0  0  0  0  0  0  0  0  0  0
  -89.3647   28.6438   -0.3990 O   0  0  0  0  0  0  0  0  0  0  0  0
  -87.3329   27.1737   -2.3892 H   0  0  0  0  0  0  0  0  0  0  0  0
  -87.7935   31.4860   -2.9360 C   0  0  0  0  0  0  0  0  0  0  0  0
  -87.6918   30.4867   -1.9869 C   0  0  0  0  0  0  0  0  0  0  0  0
  -87.8307   29.2614   -2.5867 C   0  0  0  0  0  0  0  0  0  0  0  0
  -88.0140   29.5650   -3.9174 N   0  0  0  0  0  0  0  0  0  0  0  0
  -87.9892   30.8351   -4.0842 O   0  0  0  0  0  0  0  0  0  0  0  0
  -86.5073   33.4482   -2.0661 C   0  0  0  0  0  0  0  0  0  0  0  0
  -87.7194   32.9588   -2.8069 C   0  0  0  0  0  0  0  0  0  0  0  0
  -87.7511   33.5779   -4.1946 C   0  0  0  0  0  0  0  0  0  0  0  0
  -88.9254   33.4726   -2.0201 C   0  0  0  0  0  0  0  0  0  0  0  0
 30 31  1  0  0  0
 31 32  1  0  0  0
 31 33  1  0  0  0
 31 25  1  0  0  0
 25 26  2  0  0  0
 26 27  1  0  0  0
 27 21  1  0  0  0
 21 22  1  0  0  0
 22 23  2  0  0  0
 22  1  1  0  0  0
  1  2  1  0  0  0
  2  3  1  0  0  0
  3  4  2  0  0  0
  4  5  1  0  0  0
  5  6  2  0  0  0
  6  7  1  0  0  0
  7  8  2  0  0  0
  8  9  1  0  0  0
  9 10  1  0  0  0
 10 11  1  0  0  0
 11 12  2  0  0  0
 11 13  1  0  0  0
 13 14  2  0  0  0
 14 15  1  0  0  0
 15 16  2  0  0  0
 16 17  1  0  0  0
 16 18  1  0  0  0
 18 19  1  0  0  0
 18 20  2  0  0  0
 27 28  2  0  0  0
 28 29  1  0  0  0
 29 25  1  0  0  0
 10  1  1  0  0  0
 20 13  1  0  0  0
  8  3  1  0  0  0
 21 24  1  0  0  0
M  END
> <minimizedAffinity>
-8.54794

> <CNNscore>
0.0536182337

> <CNNaffinity>
5.7211427689

> <CNN_VS>
0.3067575693

> <CNNaffinity_variance>
0.3125417829

$$$$
[H]c1c(N([H])C(=O)[C@]2([H])N(C(=O)c3c([H])c([H])c(F)c(Cl)c3[H])C([H])([H])c3c([H])c([H])c([H])c([H])c3C2([H])[H])noc1C(C([H])([H])[H])(C([H])([H])[H])C([H])([H])[H]


 33 36  0  0  0  0  0  0  0  0999 V2000
  -90.8000   28.8901   -1.0112 C   0  0  0  0  0  0  0  0  0  0  0  0
  -91.3360   30.0451   -1.8534 C   0  0  0  0  0  0  0  0  0  0  0  0
  -91.8777   29.6588   -3.1670 C   0  0  0  0  0  0  0  0  0  0  0  0
  -91.7199   30.5120   -4.2777 C   0  0  0  0  0  0  0  0  0  0  0  0
  -92.3072   30.1180   -5.4852 C   0  0  0  0  0  0  0  0  0  0  0  0
  -93.0040   28.9380   -5.5431 C   0  0  0  0  0  0  0  0  0  0  0  0
  -93.1416   28.1103   -4.4260 C   0  0  0  0  0  0  0  0  0  0  0  0
  -92.5662   28.4898   -3.2419 C   0  0  0  0  0  0  0  0  0  0  0  0
  -92.6771   27.5955   -2.0360 C   0  0  0  0  0  0  0  0  0  0  0  0
  -91.4184   27.6434   -1.2441 N   0  0  0  0  0  0  0  0  0  0  0  0
  -90.8737   26.4215   -0.8481 C   0  0  0  0  0  0  0  0  0  0  0  0
  -89.6312   26.4613   -0.4221 O   0  0  0  0  0  0  0  0  0  0  0  0
  -91.4145   25.0904   -0.8066 C   0  0  0  0  0  0  0  0  0  0  0  0
  -91.7412   24.4213    0.3587 C   0  0  0  0  0  0  0  0  0  0  0  0
  -92.3099   23.1700    0.3479 C   0  0  0  0  0  0  0  0  0  0  0  0
  -92.5733   22.5332   -0.8300 C   0  0  0  0  0  0  0  0  0  0  0  0
  -93.1185   21.2951   -0.8764 F   0  0  0  0  0  0  0  0  0  0  0  0
  -92.2609   23.1681   -2.0356 C   0  0  0  0  0  0  0  0  0  0  0  0
  -92.6334   22.3334   -3.5331 Cl  0  0  0  0  0  0  0  0  0  0  0  0
  -91.6994   24.4114   -1.9951 C   0  0  0  0  0  0  0  0  0  0  0  0
  -88.5634   28.9850    0.2172 N   0  0  0  0  0  0  0  0  0  0  0  0
  -89.3792   29.0454   -0.9823 C   0  0  0  0  0  0  0  0  0  0  0  0
  -88.7132   29.2826   -2.0452 O   0  0  0  0  0  0  0  0  0  0  0  0
  -89.0902   28.7622    1.0912 H   0  0  0  0  0  0  0  0  0  0  0  0
  -85.2629   30.5095    0.3104 C   0  0  0  0  0  0  0  0  0  0  0  0
  -86.6227   30.5737    0.5480 C   0  0  0  0  0  0  0  0  0  0  0  0
  -87.2042   29.3698    0.2431 C   0  0  0  0  0  0  0  0  0  0  0  0
  -86.1491   28.5917   -0.1783 N   0  0  0  0  0  0  0  0  0  0  0  0
  -85.0608   29.2663   -0.1301 O   0  0  0  0  0  0  0  0  0  0  0  0
  -82.8500   31.0852   -0.0179 C   0  0  0  0  0  0  0  0  0  0  0  0
  -84.1999   31.5269    0.4725 C   0  0  0  0  0  0  0  0  0  0  0  0
  -84.6153   32.7947   -0.2557 C   0  0  0  0  0  0  0  0  0  0  0  0
  -84.0184   31.8571    1.9542 C   0  0  0  0  0  0  0  0  0  0  0  0
 30 31  1  0  0  0
 31 32  1  0  0  0
 31 33  1  0  0  0
 31 25  1  0  0  0
 25 26  2  0  0  0
 26 27  1  0  0  0
 27 21  1  0  0  0
 21 22  1  0  0  0
 22 23  2  0  0  0
 22  1  1  0  0  0
  1  2  1  0  0  0
  2  3  1  0  0  0
  3  4  2  0  0  0
  4  5  1  0  0  0
  5  6  2  0  0  0
  6  7  1  0  0  0
  7  8  2  0  0  0
  8  9  1  0  0  0
  9 10  1  0  0  0
 10 11  1  0  0  0
 11 12  2  0  0  0
 11 13  1  0  0  0
 13 14  2  0  0  0
 14 15  1  0  0  0
 15 16  2  0  0  0
 16 17  1  0  0  0
 16 18  1  0  0  0
 18 19  1  0  0  0
 18 20  2  0  0  0
 27 28  2  0  0  0
 28 29  1  0  0  0
 29 25  1  0  0  0
 10  1  1  0  0  0
 20 13  1  0  0  0
  8  3  1  0  0  0
 21 24  1  0  0  0
M  END
> <minimizedAffinity>
-7.63512

> <CNNscore>
0.0488465056

> <CNNaffinity>
5.7099266052

> <CNN_VS>
0.2789099514

> <CNNaffinity_variance>
0.1882624924

$$$$
[H]c1c([H])c([H])c(C2([H])C(C(=O)OC(C([H])([H])[H])(C([H])([H])[H])C([H])([H])[H])=C(C([H])([H])[H])N=C(C([H])([H])[H])C2([H])C(=O)OC([H])([H])[H])c(Cl)c1[H]


 26 27  0  0  0  0  0  0  0  0999 V2000
  -90.4995   27.9032   -0.5772 C   0  0  0  0  0  0  0  0  0  0  0  0
  -89.5853   28.4555    0.4724 C   0  0  0  0  0  0  0  0  0  0  0  0
  -88.1496   28.5537   -0.0567 C   0  0  0  0  0  0  0  0  0  0  0  0
  -87.8031   27.8504   -1.1129 C   0  0  0  0  0  0  0  0  0  0  0  0
  -86.3701   27.9468   -1.6025 C   0  0  0  0  0  0  0  0  0  0  0  0
  -88.7138   27.1366   -1.9301 N   0  0  0  0  0  0  0  0  0  0  0  0
  -89.9512   27.1542   -1.6847 C   0  0  0  0  0  0  0  0  0  0  0  0
  -90.9150   26.3648   -2.5582 C   0  0  0  0  0  0  0  0  0  0  0  0
  -89.6258   27.5365    1.6672 C   0  0  0  0  0  0  0  0  0  0  0  0
  -88.8635   26.3694    1.6656 C   0  0  0  0  0  0  0  0  0  0  0  0
  -88.7365   25.5639    2.8069 C   0  0  0  0  0  0  0  0  0  0  0  0
  -89.3768   25.9299    3.9540 C   0  0  0  0  0  0  0  0  0  0  0  0
  -90.1462   27.0785    3.9996 C   0  0  0  0  0  0  0  0  0  0  0  0
  -90.2479   27.8468    2.8452 C   0  0  0  0  0  0  0  0  0  0  0  0
  -91.4501   29.1418    2.9424 Cl  0  0  0  0  0  0  0  0  0  0  0  0
  -91.3471   29.0626   -1.0840 C   0  0  0  0  0  0  0  0  0  0  0  0
  -92.4605   29.2877   -0.5797 O   0  0  0  0  0  0  0  0  0  0  0  0
  -90.3047   31.1287   -1.7841 C   0  0  0  0  0  0  0  0  0  0  0  0
  -90.8954   29.8752   -2.1020 O   0  0  0  0  0  0  0  0  0  0  0  0
  -87.1977   29.4646    0.5770 C   0  0  0  0  0  0  0  0  0  0  0  0
  -87.0269   30.6645    0.2747 O   0  0  0  0  0  0  0  0  0  0  0  0
  -86.3413   29.0800    1.6270 O   0  0  0  0  0  0  0  0  0  0  0  0
  -85.0650   29.5837    1.8145 C   0  0  0  0  0  0  0  0  0  0  0  0
  -84.2737   28.4814    2.5357 C   0  0  0  0  0  0  0  0  0  0  0  0
  -84.4121   29.9034    0.5026 C   0  0  0  0  0  0  0  0  0  0  0  0
  -85.0207   30.7997    2.7239 C   0  0  0  0  0  0  0  0  0  0  0  0
 18 19  1  0  0  0
 19 16  1  0  0  0
 16 17  2  0  0  0
 16  1  1  0  0  0
  1  2  1  0  0  0
  2  3  1  0  0  0
  3 20  1  0  0  0
 20 21  2  0  0  0
 20 22  1  0  0  0
 22 23  1  0  0  0
 23 24  1  0  0  0
 23 25  1  0  0  0
 23 26  1  0  0  0
  3  4  2  0  0  0
  4  5  1  0  0  0
  4  6  1  0  0  0
  6  7  2  0  0  0
  7  8  1  0  0  0
  2  9  1  0  0  0
  9 10  2  0  0  0
 10 11  1  0  0  0
 11 12  2  0  0  0
 12 13  1  0  0  0
 13 14  2  0  0  0
 14 15  1  0  0  0
  7  1  1  0  0  0
 14  9  1  0  0  0
M  END
> <minimizedAffinity>
-6.30956

> <CNNscore>
0.3962217569

> <CNNaffinity>
5.9305663109

> <CNN_VS>
2.3498194218

> <CNNaffinity_variance>
0.1928409487

$$$$
[H]c1c([H])c([H])c(C2([H])C(C(=O)OC(C([H])([H])[H])(C([H])([H])[H])C([H])([H])[H])=C(C([H])([H])[H])N=C(C([H])([H])[H])C2([H])C(=O)OC([H])([H])[H])c(Cl)c1[H]


 26 27  0  0  0  0  0  0  0  0999 V2000
  -87.6257   28.6496    0.2304 C   0  0  0  0  0  0  0  0  0  0  0  0
  -87.5860   30.1432    0.1297 C   0  0  0  0  0  0  0  0  0  0  0  0
  -87.9735   30.6017   -1.2811 C   0  0  0  0  0  0  0  0  0  0  0  0
  -87.9159   29.7429   -2.2758 C   0  0  0  0  0  0  0  0  0  0  0  0
  -88.2817   30.2276   -3.6663 C   0  0  0  0  0  0  0  0  0  0  0  0
  -87.6983   28.3522   -2.1176 N   0  0  0  0  0  0  0  0  0  0  0  0
  -87.5597   27.8474   -0.9697 C   0  0  0  0  0  0  0  0  0  0  0  0
  -87.3047   26.3552   -0.8166 C   0  0  0  0  0  0  0  0  0  0  0  0
  -86.1852   30.6023    0.4475 C   0  0  0  0  0  0  0  0  0  0  0  0
  -85.5494   31.5114   -0.3967 C   0  0  0  0  0  0  0  0  0  0  0  0
  -84.3170   32.0944   -0.0669 C   0  0  0  0  0  0  0  0  0  0  0  0
  -83.7196   31.7641    1.1137 C   0  0  0  0  0  0  0  0  0  0  0  0
  -84.3137   30.8642    1.9802 C   0  0  0  0  0  0  0  0  0  0  0  0
  -85.5338   30.3073    1.6134 C   0  0  0  0  0  0  0  0  0  0  0  0
  -86.0727   28.9904    2.6655 Cl  0  0  0  0  0  0  0  0  0  0  0  0
  -88.8615   28.2912    1.0452 C   0  0  0  0  0  0  0  0  0  0  0  0
  -88.8069   27.3853    1.8942 O   0  0  0  0  0  0  0  0  0  0  0  0
  -90.9951   28.4574   -0.0798 C   0  0  0  0  0  0  0  0  0  0  0  0
  -90.0510   28.9620    0.8557 O   0  0  0  0  0  0  0  0  0  0  0  0
  -88.4551   31.9646   -1.5003 C   0  0  0  0  0  0  0  0  0  0  0  0
  -88.7794   32.7745   -0.6063 O   0  0  0  0  0  0  0  0  0  0  0  0
  -88.6138   32.5321   -2.7795 O   0  0  0  0  0  0  0  0  0  0  0  0
  -88.1039   33.7643   -3.1531 C   0  0  0  0  0  0  0  0  0  0  0  0
  -87.7981   33.6610   -4.6555 C   0  0  0  0  0  0  0  0  0  0  0  0
  -89.1013   34.8579   -2.9108 C   0  0  0  0  0  0  0  0  0  0  0  0
  -86.7875   34.1059   -2.4764 C   0  0  0  0  0  0  0  0  0  0  0  0
 18 19  1  0  0  0
 19 16  1  0  0  0
 16 17  2  0  0  0
 16  1  1  0  0  0
  1  2  1  0  0  0
  2  3  1  0  0  0
  3 20  1  0  0  0
 20 21  2  0  0  0
 20 22  1  0  0  0
 22 23  1  0  0  0
 23 24  1  0  0  0
 23 25  1  0  0  0
 23 26  1  0  0  0
  3  4  2  0  0  0
  4  5  1  0  0  0
  4  6  1  0  0  0
  6  7  2  0  0  0
  7  8  1  0  0  0
  2  9  1  0  0  0
  9 10  2  0  0  0
 10 11  1  0  0  0
 11 12  2  0  0  0
 12 13  1  0  0  0
 13 14  2  0  0  0
 14 15  1  0  0  0
  7  1  1  0  0  0
 14  9  1  0  0  0
M  END
> <minimizedAffinity>
-7.28985

> <CNNscore>
0.3785667419

> <CNNaffinity>
6.1236782074

> <CNN_VS>
2.3182208538

> <CNNaffinity_variance>
0.0973570198

$$$$
[H]c1c([H])c([H])c(C2([H])C(C(=O)OC(C([H])([H])[H])(C([H])([H])[H])C([H])([H])[H])=C(C([H])([H])[H])N=C(C([H])([H])[H])C2([H])C(=O)OC([H])([H])[H])c(Cl)c1[H]


 26 27  0  0  0  0  0  0  0  0999 V2000
  -87.3083   28.1434    0.8153 C   0  0  0  0  0  0  0  0  0  0  0  0
  -87.0951   29.6038    0.5619 C   0  0  0  0  0  0  0  0  0  0  0  0
  -87.4941   29.9688   -0.8728 C   0  0  0  0  0  0  0  0  0  0  0  0
  -87.5888   29.0176   -1.7765 C   0  0  0  0  0  0  0  0  0  0  0  0
  -87.9621   29.4077   -3.1945 C   0  0  0  0  0  0  0  0  0  0  0  0
  -87.5317   27.6324   -1.4859 N   0  0  0  0  0  0  0  0  0  0  0  0
  -87.3981   27.2273   -0.2986 C   0  0  0  0  0  0  0  0  0  0  0  0
  -87.3163   25.7367   -0.0042 C   0  0  0  0  0  0  0  0  0  0  0  0
  -85.6355   29.9142    0.7791 C   0  0  0  0  0  0  0  0  0  0  0  0
  -84.7897   30.0554   -0.3200 C   0  0  0  0  0  0  0  0  0  0  0  0
  -83.4664   30.5010   -0.1862 C   0  0  0  0  0  0  0  0  0  0  0  0
  -82.9894   30.8057    1.0546 C   0  0  0  0  0  0  0  0  0  0  0  0
  -83.7931   30.6773    2.1731 C   0  0  0  0  0  0  0  0  0  0  0  0
  -85.0975   30.2295    1.9964 C   0  0  0  0  0  0  0  0  0  0  0  0
  -85.9462   29.8623    3.5051 Cl  0  0  0  0  0  0  0  0  0  0  0  0
  -88.5365   28.0212    1.7077 C   0  0  0  0  0  0  0  0  0  0  0  0
  -88.4246   27.5822    2.8650 O   0  0  0  0  0  0  0  0  0  0  0  0
  -90.8956   28.3378    2.1314 C   0  0  0  0  0  0  0  0  0  0  0  0
  -89.7821   28.3939    1.2493 O   0  0  0  0  0  0  0  0  0  0  0  0
  -87.8193   31.3533   -1.2113 C   0  0  0  0  0  0  0  0  0  0  0  0
  -88.8167   31.9867   -0.8059 O   0  0  0  0  0  0  0  0  0  0  0  0
  -87.0236   32.1496   -2.0578 O   0  0  0  0  0  0  0  0  0  0  0  0
  -86.3930   33.3172   -1.6618 C   0  0  0  0  0  0  0  0  0  0  0  0
  -84.9525   33.2232   -2.1885 C   0  0  0  0  0  0  0  0  0  0  0  0
  -87.0704   34.5217   -2.2448 C   0  0  0  0  0  0  0  0  0  0  0  0
  -86.2829   33.4653   -0.1540 C   0  0  0  0  0  0  0  0  0  0  0  0
 18 19  1  0  0  0
 19 16  1  0  0  0
 16 17  2  0  0  0
 16  1  1  0  0  0
  1  2  1  0  0  0
  2  3  1  0  0  0
  3 20  1  0  0  0
 20 21  2  0  0  0
 20 22  1  0  0  0
 22 23  1  0  0  0
 23 24  1  0  0  0
 23 25  1  0  0  0
 23 26  1  0  0  0
  3  4  2  0  0  0
  4  5  1  0  0  0
  4  6  1  0  0  0
  6  7  2  0  0  0
  7  8  1  0  0  0
  2  9  1  0  0  0
  9 10  2  0  0  0
 10 11  1  0  0  0
 11 12  2  0  0  0
 12 13  1  0  0  0
 13 14  2  0  0  0
 14 15  1  0  0  0
  7  1  1  0  0  0
 14  9  1  0  0  0
M  END
> <minimizedAffinity>
-6.53068

> <CNNscore>
0.3307918012

> <CNNaffinity>
5.7816524506

> <CNN_VS>
1.9125232697

> <CNNaffinity_variance>
0.3917488456

$$$$
[H]c1c([H])c([H])c(C2([H])C(C(=O)OC(C([H])([H])[H])(C([H])([H])[H])C([H])([H])[H])=C(C([H])([H])[H])N=C(C([H])([H])[H])C2([H])C(=O)OC([H])([H])[H])c(Cl)c1[H]


 26 27  0  0  0  0  0  0  0  0999 V2000
  -88.6822   29.8034   -0.9105 C   0  0  0  0  0  0  0  0  0  0  0  0
  -87.9530   31.1072   -1.0144 C   0  0  0  0  0  0  0  0  0  0  0  0
  -87.7554   31.5021   -2.4826 C   0  0  0  0  0  0  0  0  0  0  0  0
  -87.8624   30.5822   -3.4169 C   0  0  0  0  0  0  0  0  0  0  0  0
  -87.6391   30.9938   -4.8601 C   0  0  0  0  0  0  0  0  0  0  0  0
  -88.3367   29.2668   -3.1907 N   0  0  0  0  0  0  0  0  0  0  0  0
  -88.7091   28.9040   -2.0412 C   0  0  0  0  0  0  0  0  0  0  0  0
  -89.1956   27.4811   -1.8089 C   0  0  0  0  0  0  0  0  0  0  0  0
  -86.6112   30.9543   -0.3434 C   0  0  0  0  0  0  0  0  0  0  0  0
  -86.0863   29.6800   -0.1337 C   0  0  0  0  0  0  0  0  0  0  0  0
  -84.7792   29.4833    0.3355 C   0  0  0  0  0  0  0  0  0  0  0  0
  -83.9956   30.5686    0.5960 C   0  0  0  0  0  0  0  0  0  0  0  0
  -84.4768   31.8513    0.4049 C   0  0  0  0  0  0  0  0  0  0  0  0
  -85.7790   32.0017   -0.0587 C   0  0  0  0  0  0  0  0  0  0  0  0
  -86.3706   33.6692   -0.0234 Cl  0  0  0  0  0  0  0  0  0  0  0  0
  -90.0978   30.1210   -0.4468 C   0  0  0  0  0  0  0  0  0  0  0  0
  -90.9303   30.5731   -1.2513 O   0  0  0  0  0  0  0  0  0  0  0  0
  -91.1522   28.7117    1.2107 C   0  0  0  0  0  0  0  0  0  0  0  0
  -90.4752   29.9124    0.8627 O   0  0  0  0  0  0  0  0  0  0  0  0
  -87.5074   32.8986   -2.8370 C   0  0  0  0  0  0  0  0  0  0  0  0
  -86.4072   33.3767   -3.1853 O   0  0  0  0  0  0  0  0  0  0  0  0
  -88.5083   33.8894   -2.8228 O   0  0  0  0  0  0  0  0  0  0  0  0
  -89.2391   34.2734   -3.9348 C   0  0  0  0  0  0  0  0  0  0  0  0
  -89.8945   35.6149   -3.5713 C   0  0  0  0  0  0  0  0  0  0  0  0
  -88.3514   34.4483   -5.1309 C   0  0  0  0  0  0  0  0  0  0  0  0
  -90.3768   33.3242   -4.2698 C   0  0  0  0  0  0  0  0  0  0  0  0
 18 19  1  0  0  0
 19 16  1  0  0  0
 16 17  2  0  0  0
 16  1  1  0  0  0
  1  2  1  0  0  0
  2  3  1  0  0  0
  3 20  1  0  0  0
 20 21  2  0  0  0
 20 22  1  0  0  0
 22 23  1  0  0  0
 23 24  1  0  0  0
 23 25  1  0  0  0
 23 26  1  0  0  0
  3  4  2  0  0  0
  4  5  1  0  0  0
  4  6  1  0  0  0
  6  7  2  0  0  0
  7  8  1  0  0  0
  2  9  1  0  0  0
  9 10  2  0  0  0
 10 11  1  0  0  0
 11 12  2  0  0  0
 12 13  1  0  0  0
 13 14  2  0  0  0
 14 15  1  0  0  0
  7  1  1  0  0  0
 14  9  1  0  0  0
M  END
> <minimizedAffinity>
-7.25237

> <CNNscore>
0.2085886747

> <CNNaffinity>
5.4782204628

> <CNN_VS>
1.1426947117

> <CNNaffinity_variance>
0.2764131725

$$$$
[H]c1c([H])c([H])c(C2([H])C(C(=O)OC(C([H])([H])[H])(C([H])([H])[H])C([H])([H])[H])=C(C([H])([H])[H])N=C(C([H])([H])[H])C2([H])C(=O)OC([H])([H])[H])c(Cl)c1[H]


 26 27  0  0  0  0  0  0  0  0999 V2000
  -91.2061   26.4336   -0.6043 C   0  0  0  0  0  0  0  0  0  0  0  0
  -90.4412   27.2606    0.3824 C   0  0  0  0  0  0  0  0  0  0  0  0
  -88.9544   27.3094    0.0113 C   0  0  0  0  0  0  0  0  0  0  0  0
  -88.4639   26.4005   -0.8034 C   0  0  0  0  0  0  0  0  0  0  0  0
  -86.9846   26.4566   -1.1363 C   0  0  0  0  0  0  0  0  0  0  0  0
  -89.2498   25.4705   -1.5273 N   0  0  0  0  0  0  0  0  0  0  0  0
  -90.5080   25.4792   -1.4348 C   0  0  0  0  0  0  0  0  0  0  0  0
  -91.3378   24.4598   -2.2013 C   0  0  0  0  0  0  0  0  0  0  0  0
  -90.6051   26.6414    1.7475 C   0  0  0  0  0  0  0  0  0  0  0  0
  -90.4158   25.2699    1.9098 C   0  0  0  0  0  0  0  0  0  0  0  0
  -90.3958   24.6678    3.1765 C   0  0  0  0  0  0  0  0  0  0  0  0
  -90.5667   25.4440    4.2847 C   0  0  0  0  0  0  0  0  0  0  0  0
  -90.7605   26.8088    4.1700 C   0  0  0  0  0  0  0  0  0  0  0  0
  -90.7765   27.3648    2.8956 C   0  0  0  0  0  0  0  0  0  0  0  0
  -91.2815   29.0603    2.8531 Cl  0  0  0  0  0  0  0  0  0  0  0  0
  -92.0136   27.3985   -1.4625 C   0  0  0  0  0  0  0  0  0  0  0  0
  -91.4982   28.4554   -1.8649 O   0  0  0  0  0  0  0  0  0  0  0  0
  -94.0341   28.0219   -2.6348 C   0  0  0  0  0  0  0  0  0  0  0  0
  -93.3189   27.1160   -1.8048 O   0  0  0  0  0  0  0  0  0  0  0  0
  -88.1100   28.3908    0.5163 C   0  0  0  0  0  0  0  0  0  0  0  0
  -87.7964   28.5714    1.7119 O   0  0  0  0  0  0  0  0  0  0  0  0
  -87.5416   29.3786   -0.3111 O   0  0  0  0  0  0  0  0  0  0  0  0
  -88.2480   30.4373   -0.8573 C   0  0  0  0  0  0  0  0  0  0  0  0
  -87.3954   31.6914   -0.6092 C   0  0  0  0  0  0  0  0  0  0  0  0
  -88.4552   30.2460   -2.3304 C   0  0  0  0  0  0  0  0  0  0  0  0
  -89.5819   30.6915   -0.1764 C   0  0  0  0  0  0  0  0  0  0  0  0
 18 19  1  0  0  0
 19 16  1  0  0  0
 16 17  2  0  0  0
 16  1  1  0  0  0
  1  2  1  0  0  0
  2  3  1  0  0  0
  3 20  1  0  0  0
 20 21  2  0  0  0
 20 22  1  0  0  0
 22 23  1  0  0  0
 23 24  1  0  0  0
 23 25  1  0  0  0
 23 26  1  0  0  0
  3  4  2  0  0  0
  4  5  1  0  0  0
  4  6  1  0  0  0
  6  7  2  0  0  0
  7  8  1  0  0  0
  2  9  1  0  0  0
  9 10  2  0  0  0
 10 11  1  0  0  0
 11 12  2  0  0  0
 12 13  1  0  0  0
 13 14  2  0  0  0
 14 15  1  0  0  0
  7  1  1  0  0  0
 14  9  1  0  0  0
M  END
> <minimizedAffinity>
-5.44631

> <CNNscore>
0.1949612945

> <CNNaffinity>
5.4354090691

> <CNN_VS>
1.0596944094

> <CNNaffinity_variance>
0.2686357796

$$$$
[H]c1c([H])c([H])c(C2([H])C(C(=O)OC(C([H])([H])[H])(C([H])([H])[H])C([H])([H])[H])=C(C([H])([H])[H])N=C(C([H])([H])[H])C2([H])C(=O)OC([H])([H])[H])c(Cl)c1[H]


 26 27  0  0  0  0  0  0  0  0999 V2000
  -88.3576   29.4524   -1.1795 C   0  0  0  0  0  0  0  0  0  0  0  0
  -87.9478   28.4535   -0.1418 C   0  0  0  0  0  0  0  0  0  0  0  0
  -89.0921   28.1977    0.8459 C   0  0  0  0  0  0  0  0  0  0  0  0
  -90.0725   29.0703    0.9356 C   0  0  0  0  0  0  0  0  0  0  0  0
  -91.1809   28.8060    1.9375 C   0  0  0  0  0  0  0  0  0  0  0  0
  -90.2574   30.1567    0.0457 N   0  0  0  0  0  0  0  0  0  0  0  0
  -89.4700   30.3384   -0.9231 C   0  0  0  0  0  0  0  0  0  0  0  0
  -89.6684   31.5225   -1.8578 C   0  0  0  0  0  0  0  0  0  0  0  0
  -86.7514   29.0002    0.5956 C   0  0  0  0  0  0  0  0  0  0  0  0
  -86.4774   30.3662    0.5483 C   0  0  0  0  0  0  0  0  0  0  0  0
  -85.4792   30.9512    1.3413 C   0  0  0  0  0  0  0  0  0  0  0  0
  -84.7526   30.1633    2.1846 C   0  0  0  0  0  0  0  0  0  0  0  0
  -84.9889   28.8025    2.2614 C   0  0  0  0  0  0  0  0  0  0  0  0
  -85.9855   28.2627    1.4559 C   0  0  0  0  0  0  0  0  0  0  0  0
  -86.0286   26.4936    1.4471 Cl  0  0  0  0  0  0  0  0  0  0  0  0
  -88.5752   28.6834   -2.4761 C   0  0  0  0  0  0  0  0  0  0  0  0
  -87.6540   28.5854   -3.3045 O   0  0  0  0  0  0  0  0  0  0  0  0
  -89.9500   26.6950   -2.5124 C   0  0  0  0  0  0  0  0  0  0  0  0
  -89.7883   28.0876   -2.7484 O   0  0  0  0  0  0  0  0  0  0  0  0
  -89.1153   26.9673    1.6351 C   0  0  0  0  0  0  0  0  0  0  0  0
  -89.2764   25.8146    1.1815 O   0  0  0  0  0  0  0  0  0  0  0  0
  -88.9564   26.9432    3.0343 O   0  0  0  0  0  0  0  0  0  0  0  0
  -89.6482   26.0939    3.8817 C   0  0  0  0  0  0  0  0  0  0  0  0
  -90.0525   26.9419    5.0977 C   0  0  0  0  0  0  0  0  0  0  0  0
  -90.8739   25.5449    3.2140 C   0  0  0  0  0  0  0  0  0  0  0  0
  -88.8008   24.9554    4.4233 C   0  0  0  0  0  0  0  0  0  0  0  0
 18 19  1  0  0  0
 19 16  1  0  0  0
 16 17  2  0  0  0
 16  1  1  0  0  0
  1  2  1  0  0  0
  2  3  1  0  0  0
  3 20  1  0  0  0
 20 21  2  0  0  0
 20 22  1  0  0  0
 22 23  1  0  0  0
 23 24  1  0  0  0
 23 25  1  0  0  0
 23 26  1  0  0  0
  3  4  2  0  0  0
  4  5  1  0  0  0
  4  6  1  0  0  0
  6  7  2  0  0  0
  7  8  1  0  0  0
  2  9  1  0  0  0
  9 10  2  0  0  0
 10 11  1  0  0  0
 11 12  2  0  0  0
 12 13  1  0  0  0
 13 14  2  0  0  0
 14 15  1  0  0  0
  7  1  1  0  0  0
 14  9  1  0  0  0
M  END
> <minimizedAffinity>
-7.38340

> <CNNscore>
0.1924635172

> <CNNaffinity>
5.5631437302

> <CNN_VS>
1.0707021952

> <CNNaffinity_variance>
0.3259726167

$$$$
[H]c1c([H])c([H])c(C2([H])C(C(=O)OC(C([H])([H])[H])(C([H])([H])[H])C([H])([H])[H])=C(C([H])([H])[H])N=C(C([H])([H])[H])C2([H])C(=O)OC([H])([H])[H])c(Cl)c1[H]


 26 27  0  0  0  0  0  0  0  0999 V2000
  -87.5773   28.8006   -0.0190 C   0  0  0  0  0  0  0  0  0  0  0  0
  -87.4963   30.2757   -0.2640 C   0  0  0  0  0  0  0  0  0  0  0  0
  -87.8693   30.6054   -1.7141 C   0  0  0  0  0  0  0  0  0  0  0  0
  -87.8342   29.6527   -2.6206 C   0  0  0  0  0  0  0  0  0  0  0  0
  -88.1848   30.0099   -4.0530 C   0  0  0  0  0  0  0  0  0  0  0  0
  -87.6552   28.2785   -2.3272 N   0  0  0  0  0  0  0  0  0  0  0  0
  -87.5319   27.8841   -1.1353 C   0  0  0  0  0  0  0  0  0  0  0  0
  -87.3183   26.4074   -0.8370 C   0  0  0  0  0  0  0  0  0  0  0  0
  -86.0838   30.7251    0.0131 C   0  0  0  0  0  0  0  0  0  0  0  0
  -85.0753   29.7749    0.1655 C   0  0  0  0  0  0  0  0  0  0  0  0
  -83.7234   30.1361    0.2628 C   0  0  0  0  0  0  0  0  0  0  0  0
  -83.3816   31.4552    0.2075 C   0  0  0  0  0  0  0  0  0  0  0  0
  -84.3501   32.4317    0.0599 C   0  0  0  0  0  0  0  0  0  0  0  0
  -85.6785   32.0308   -0.0297 C   0  0  0  0  0  0  0  0  0  0  0  0
  -86.8418   33.3625    0.0403 Cl  0  0  0  0  0  0  0  0  0  0  0  0
  -88.8235   28.5568    0.8219 C   0  0  0  0  0  0  0  0  0  0  0  0
  -89.9493   28.7884    0.3492 O   0  0  0  0  0  0  0  0  0  0  0  0
  -88.8843   26.6864    2.3526 C   0  0  0  0  0  0  0  0  0  0  0  0
  -88.7228   28.0780    2.1108 O   0  0  0  0  0  0  0  0  0  0  0  0
  -88.3130   31.9531   -2.0665 C   0  0  0  0  0  0  0  0  0  0  0  0
  -89.4008   32.4708   -1.7364 O   0  0  0  0  0  0  0  0  0  0  0  0
  -87.5431   32.8427   -2.8408 O   0  0  0  0  0  0  0  0  0  0  0  0
  -88.0750   33.8525   -3.6252 C   0  0  0  0  0  0  0  0  0  0  0  0
  -86.9246   34.8358   -3.8917 C   0  0  0  0  0  0  0  0  0  0  0  0
  -88.5932   33.3114   -4.9245 C   0  0  0  0  0  0  0  0  0  0  0  0
  -89.1620   34.6527   -2.9283 C   0  0  0  0  0  0  0  0  0  0  0  0
 18 19  1  0  0  0
 19 16  1  0  0  0
 16 17  2  0  0  0
 16  1  1  0  0  0
  1  2  1  0  0  0
  2  3  1  0  0  0
  3 20  1  0  0  0
 20 21  2  0  0  0
 20 22  1  0  0  0
 22 23  1  0  0  0
 23 24  1  0  0  0
 23 25  1  0  0  0
 23 26  1  0  0  0
  3  4  2  0  0  0
  4  5  1  0  0  0
  4  6  1  0  0  0
  6  7  2  0  0  0
  7  8  1  0  0  0
  2  9  1  0  0  0
  9 10  2  0  0  0
 10 11  1  0  0  0
 11 12  2  0  0  0
 12 13  1  0  0  0
 13 14  2  0  0  0
 14 15  1  0  0  0
  7  1  1  0  0  0
 14  9  1  0  0  0
M  END
> <minimizedAffinity>
-6.73312

> <CNNscore>
0.1854913533

> <CNNaffinity>
5.7682380676

> <CNN_VS>
1.0699583292

> <CNNaffinity_variance>
0.1885854304

$$$$
[H]c1c([H])c([H])c(C2([H])C(C(=O)OC(C([H])([H])[H])(C([H])([H])[H])C([H])([H])[H])=C(C([H])([H])[H])N=C(C([H])([H])[H])C2([H])C(=O)OC([H])([H])[H])c(Cl)c1[H]


 26 27  0  0  0  0  0  0  0  0999 V2000
  -88.6532   27.9333    1.1426 C   0  0  0  0  0  0  0  0  0  0  0  0
  -89.7184   28.3510    0.1765 C   0  0  0  0  0  0  0  0  0  0  0  0
  -89.9959   27.2366   -0.8393 C   0  0  0  0  0  0  0  0  0  0  0  0
  -89.1027   26.2867   -1.0131 C   0  0  0  0  0  0  0  0  0  0  0  0
  -89.3905   25.2085   -2.0412 C   0  0  0  0  0  0  0  0  0  0  0  0
  -87.9644   26.1017   -0.1905 N   0  0  0  0  0  0  0  0  0  0  0  0
  -87.7520   26.8581    0.7965 C   0  0  0  0  0  0  0  0  0  0  0  0
  -86.5134   26.6609    1.6580 C   0  0  0  0  0  0  0  0  0  0  0  0
  -89.2464   29.5895   -0.5428 C   0  0  0  0  0  0  0  0  0  0  0  0
  -89.8039   30.8267   -0.2239 C   0  0  0  0  0  0  0  0  0  0  0  0
  -89.2935   32.0265   -0.7410 C   0  0  0  0  0  0  0  0  0  0  0  0
  -88.2204   31.9855   -1.5815 C   0  0  0  0  0  0  0  0  0  0  0  0
  -87.6377   30.7795   -1.9271 C   0  0  0  0  0  0  0  0  0  0  0  0
  -88.1765   29.6136   -1.3946 C   0  0  0  0  0  0  0  0  0  0  0  0
  -87.5211   28.1277   -2.0976 Cl  0  0  0  0  0  0  0  0  0  0  0  0
  -89.3437   27.6454    2.4692 C   0  0  0  0  0  0  0  0  0  0  0  0
  -88.6704   27.3461    3.4700 O   0  0  0  0  0  0  0  0  0  0  0  0
  -91.3061   28.7876    3.2997 C   0  0  0  0  0  0  0  0  0  0  0  0
  -90.7163   27.7128    2.5799 O   0  0  0  0  0  0  0  0  0  0  0  0
  -91.2666   27.2057   -1.5616 C   0  0  0  0  0  0  0  0  0  0  0  0
  -92.3251   26.6852   -1.1504 O   0  0  0  0  0  0  0  0  0  0  0  0
  -91.4441   27.7732   -2.8384 O   0  0  0  0  0  0  0  0  0  0  0  0
  -92.1713   28.9260   -3.0835 C   0  0  0  0  0  0  0  0  0  0  0  0
  -91.1679   29.9551   -3.6269 C   0  0  0  0  0  0  0  0  0  0  0  0
  -93.2481   28.6803   -4.0981 C   0  0  0  0  0  0  0  0  0  0  0  0
  -92.7718   29.5417   -1.8312 C   0  0  0  0  0  0  0  0  0  0  0  0
 18 19  1  0  0  0
 19 16  1  0  0  0
 16 17  2  0  0  0
 16  1  1  0  0  0
  1  2  1  0  0  0
  2  3  1  0  0  0
  3 20  1  0  0  0
 20 21  2  0  0  0
 20 22  1  0  0  0
 22 23  1  0  0  0
 23 24  1  0  0  0
 23 25  1  0  0  0
 23 26  1  0  0  0
  3  4  2  0  0  0
  4  5  1  0  0  0
  4  6  1  0  0  0
  6  7  2  0  0  0
  7  8  1  0  0  0
  2  9  1  0  0  0
  9 10  2  0  0  0
 10 11  1  0  0  0
 11 12  2  0  0  0
 12 13  1  0  0  0
 13 14  2  0  0  0
 14 15  1  0  0  0
  7  1  1  0  0  0
 14  9  1  0  0  0
M  END
> <minimizedAffinity>
-5.91743

> <CNNscore>
0.1744112670

> <CNNaffinity>
5.1508131027

> <CNN_VS>
0.8983598351

> <CNNaffinity_variance>
0.3091903329

$$$$
[H]c1c([H])c([H])c(C2([H])C(C(=O)OC(C([H])([H])[H])(C([H])([H])[H])C([H])([H])[H])=C(C([H])([H])[H])N=C(C([H])([H])[H])C2([H])C(=O)OC([H])([H])[H])c(Cl)c1[H]


 26 27  0  0  0  0  0  0  0  0999 V2000
  -87.9065   30.7884   -1.3438 C   0  0  0  0  0  0  0  0  0  0  0  0
  -87.5702   29.4973   -0.6638 C   0  0  0  0  0  0  0  0  0  0  0  0
  -88.8307   28.8469   -0.0818 C   0  0  0  0  0  0  0  0  0  0  0  0
  -89.9049   29.5819    0.1093 C   0  0  0  0  0  0  0  0  0  0  0  0
  -91.1316   28.9200    0.7086 C   0  0  0  0  0  0  0  0  0  0  0  0
  -90.0566   30.9100   -0.3594 N   0  0  0  0  0  0  0  0  0  0  0  0
  -89.1401   31.4689   -1.0221 C   0  0  0  0  0  0  0  0  0  0  0  0
  -89.3084   32.9036   -1.5001 C   0  0  0  0  0  0  0  0  0  0  0  0
  -86.5888   29.7869    0.4439 C   0  0  0  0  0  0  0  0  0  0  0  0
  -86.4529   28.8848    1.4980 C   0  0  0  0  0  0  0  0  0  0  0  0
  -85.4471   29.0201    2.4662 C   0  0  0  0  0  0  0  0  0  0  0  0
  -84.5745   30.0644    2.3773 C   0  0  0  0  0  0  0  0  0  0  0  0
  -84.6745   30.9849    1.3497 C   0  0  0  0  0  0  0  0  0  0  0  0
  -85.6878   30.8154    0.4127 C   0  0  0  0  0  0  0  0  0  0  0  0
  -85.8792   32.1785   -0.6995 Cl  0  0  0  0  0  0  0  0  0  0  0  0
  -87.8086   30.5404   -2.8433 C   0  0  0  0  0  0  0  0  0  0  0  0
  -87.9735   29.3955   -3.2975 O   0  0  0  0  0  0  0  0  0  0  0  0
  -88.3361   31.7312   -4.8802 C   0  0  0  0  0  0  0  0  0  0  0  0
  -87.5386   31.5749   -3.7137 O   0  0  0  0  0  0  0  0  0  0  0  0
  -88.8488   27.4129    0.2022 C   0  0  0  0  0  0  0  0  0  0  0  0
  -88.1955   26.5415   -0.4095 O   0  0  0  0  0  0  0  0  0  0  0  0
  -89.6283   26.8370    1.2242 O   0  0  0  0  0  0  0  0  0  0  0  0
  -89.1426   26.4976    2.4760 C   0  0  0  0  0  0  0  0  0  0  0  0
  -89.9800   25.2983    2.9469 C   0  0  0  0  0  0  0  0  0  0  0  0
  -87.6948   26.1120    2.4076 C   0  0  0  0  0  0  0  0  0  0  0  0
  -89.3392   27.5855    3.5178 C   0  0  0  0  0  0  0  0  0  0  0  0
 18 19  1  0  0  0
 19 16  1  0  0  0
 16 17  2  0  0  0
 16  1  1  0  0  0
  1  2  1  0  0  0
  2  3  1  0  0  0
  3 20  1  0  0  0
 20 21  2  0  0  0
 20 22  1  0  0  0
 22 23  1  0  0  0
 23 24  1  0  0  0
 23 25  1  0  0  0
 23 26  1  0  0  0
  3  4  2  0  0  0
  4  5  1  0  0  0
  4  6  1  0  0  0
  6  7  2  0  0  0
  7  8  1  0  0  0
  2  9  1  0  0  0
  9 10  2  0  0  0
 10 11  1  0  0  0
 11 12  2  0  0  0
 12 13  1  0  0  0
 13 14  2  0  0  0
 14 15  1  0  0  0
  7  1  1  0  0  0
 14  9  1  0  0  0
M  END
> <minimizedAffinity>
-7.56928

> <CNNscore>
0.1721496582

> <CNNaffinity>
5.6747221947

> <CNN_VS>
0.9769014716

> <CNNaffinity_variance>
0.2425930947

$$$$
[H]OC(=O)c1c([H])c([H])c(-c2c([H])c([H])c(N(C([H])([H])[H])C([H])([H])[H])c(C#N)c2[H])c(C#N)c1[H]


 23 24  0  0  0  0  0  0  0  0999 V2000
  -85.7163   31.2100   -0.2200 C   0  0  0  0  0  0  0  0  0  0  0  0
  -86.3219   30.0523    0.2168 C   0  0  0  0  0  0  0  0  0  0  0  0
  -85.6882   29.1715    1.0773 C   0  0  0  0  0  0  0  0  0  0  0  0
  -84.4148   29.4261    1.5315 C   0  0  0  0  0  0  0  0  0  0  0  0
  -83.8258   30.5893    1.0829 C   0  0  0  0  0  0  0  0  0  0  0  0
  -84.4435   31.4768    0.2257 C   0  0  0  0  0  0  0  0  0  0  0  0
  -87.9480   33.5057   -2.9600 C   0  0  0  0  0  0  0  0  0  0  0  0
  -87.4574   34.1077   -1.7814 C   0  0  0  0  0  0  0  0  0  0  0  0
  -86.7313   33.3987   -0.8643 C   0  0  0  0  0  0  0  0  0  0  0  0
  -86.4819   32.0668   -1.1125 C   0  0  0  0  0  0  0  0  0  0  0  0
  -86.9592   31.4770   -2.2618 C   0  0  0  0  0  0  0  0  0  0  0  0
  -87.7049   32.1870   -3.2141 C   0  0  0  0  0  0  0  0  0  0  0  0
  -87.9829   35.0768   -4.8538 C   0  0  0  0  0  0  0  0  0  0  0  0
  -88.7199   34.2904   -3.8380 N   0  0  0  0  0  0  0  0  0  0  0  0
  -90.1433   34.4735   -3.8554 C   0  0  0  0  0  0  0  0  0  0  0  0
  -88.1359   31.4880   -4.4052 C   0  0  0  0  0  0  0  0  0  0  0  0
  -88.4563   30.9109   -5.3440 N   0  0  0  0  0  0  0  0  0  0  0  0
  -83.7137   28.5191    2.4413 C   0  0  0  0  0  0  0  0  0  0  0  0
  -82.3397   28.3825    2.3962 O   0  0  0  0  0  0  0  0  0  0  0  0
  -84.3765   27.8567    3.2744 O   0  0  0  0  0  0  0  0  0  0  0  0
  -81.7541   29.2018    2.2417 H   0  0  0  0  0  0  0  0  0  0  0  0
  -83.7830   32.6586   -0.2159 C   0  0  0  0  0  0  0  0  0  0  0  0
  -83.2562   33.6265   -0.5963 N   0  0  0  0  0  0  0  0  0  0  0  0
 13 14  1  0  0  0
 14 15  1  0  0  0
 14  7  1  0  0  0
  7  8  2  0  0  0
  8  9  1  0  0  0
  9 10  2  0  0  0
 10 11  1  0  0  0
 11 12  2  0  0  0
 12 16  1  0  0  0
 16 17  3  0  0  0
 10  1  1  0  0  0
  1  2  2  0  0  0
  2  3  1  0  0  0
  3  4  2  0  0  0
  4  5  1  0  0  0
  5  6  2  0  0  0
  6 22  1  0  0  0
 22 23  3  0  0  0
  4 18  1  0  0  0
 18 19  1  0  0  0
 18 20  2  0  0  0
 12  7  1  0  0  0
  6  1  1  0  0  0
 19 21  1  0  0  0
M  END
> <minimizedAffinity>
-7.51986

> <CNNscore>
0.8541933894

> <CNNaffinity>
5.9473571777

> <CNN_VS>
5.0801930428

> <CNNaffinity_variance>
0.0341222622

$$$$
[H]OC(=O)c1c([H])c([H])c(-c2c([H])c([H])c(N(C([H])([H])[H])C([H])([H])[H])c(C#N)c2[H])c(C#N)c1[H]


 23 24  0  0  0  0  0  0  0  0999 V2000
  -87.0727   32.3853   -1.2856 C   0  0  0  0  0  0  0  0  0  0  0  0
  -88.3886   32.4824   -1.6816 C   0  0  0  0  0  0  0  0  0  0  0  0
  -88.8415   33.5220   -2.4765 C   0  0  0  0  0  0  0  0  0  0  0  0
  -87.9810   34.5068   -2.9037 C   0  0  0  0  0  0  0  0  0  0  0  0
  -86.6687   34.3920   -2.4966 C   0  0  0  0  0  0  0  0  0  0  0  0
  -86.2018   33.3629   -1.7048 C   0  0  0  0  0  0  0  0  0  0  0  0
  -86.1411   28.9366    0.9500 C   0  0  0  0  0  0  0  0  0  0  0  0
  -85.7136   30.2017    1.4073 C   0  0  0  0  0  0  0  0  0  0  0  0
  -85.9919   31.3459    0.7113 C   0  0  0  0  0  0  0  0  0  0  0  0
  -86.7073   31.2432   -0.4615 C   0  0  0  0  0  0  0  0  0  0  0  0
  -87.1258   30.0101   -0.9098 C   0  0  0  0  0  0  0  0  0  0  0  0
  -86.8510   28.8260   -0.2104 C   0  0  0  0  0  0  0  0  0  0  0  0
  -84.3784   27.7194    2.1612 C   0  0  0  0  0  0  0  0  0  0  0  0
  -85.7837   27.8005    1.7009 N   0  0  0  0  0  0  0  0  0  0  0  0
  -86.5943   26.6682    2.0484 C   0  0  0  0  0  0  0  0  0  0  0  0
  -87.3601   27.5818   -0.7451 C   0  0  0  0  0  0  0  0  0  0  0  0
  -87.7502   26.6018   -1.1971 N   0  0  0  0  0  0  0  0  0  0  0  0
  -88.4231   35.6202   -3.7443 C   0  0  0  0  0  0  0  0  0  0  0  0
  -87.8024   35.8983   -4.9469 O   0  0  0  0  0  0  0  0  0  0  0  0
  -89.3826   36.3310   -3.3618 O   0  0  0  0  0  0  0  0  0  0  0  0
  -87.5053   35.1344   -5.5520 H   0  0  0  0  0  0  0  0  0  0  0  0
  -84.8369   33.3001   -1.3035 C   0  0  0  0  0  0  0  0  0  0  0  0
  -83.7133   33.2577   -0.9957 N   0  0  0  0  0  0  0  0  0  0  0  0
 13 14  1  0  0  0
 14 15  1  0  0  0
 14  7  1  0  0  0
  7  8  2  0  0  0
  8  9  1  0  0  0
  9 10  2  0  0  0
 10 11  1  0  0  0
 11 12  2  0  0  0
 12 16  1  0  0  0
 16 17  3  0  0  0
 10  1  1  0  0  0
  1  2  2  0  0  0
  2  3  1  0  0  0
  3  4  2  0  0  0
  4  5  1  0  0  0
  5  6  2  0  0  0
  6 22  1  0  0  0
 22 23  3  0  0  0
  4 18  1  0  0  0
 18 19  1  0  0  0
 18 20  2  0  0  0
 12  7  1  0  0  0
  6  1  1  0  0  0
 19 21  1  0  0  0
M  END
> <minimizedAffinity>
-6.87684

> <CNNscore>
0.2332870215

> <CNNaffinity>
5.3787870407

> <CNN_VS>
1.2548011541

> <CNNaffinity_variance>
0.1835930049

$$$$
[H]OC(=O)c1c([H])c([H])c(-c2c([H])c([H])c(N(C([H])([H])[H])C([H])([H])[H])c(C#N)c2[H])c(C#N)c1[H]


 23 24  0  0  0  0  0  0  0  0999 V2000
  -86.0360   29.3439    0.9395 C   0  0  0  0  0  0  0  0  0  0  0  0
  -86.3732   30.4700    0.2210 C   0  0  0  0  0  0  0  0  0  0  0  0
  -85.4450   31.4512   -0.0848 C   0  0  0  0  0  0  0  0  0  0  0  0
  -84.1367   31.3334    0.3242 C   0  0  0  0  0  0  0  0  0  0  0  0
  -83.8194   30.1998    1.0421 C   0  0  0  0  0  0  0  0  0  0  0  0
  -84.7321   29.2134    1.3549 C   0  0  0  0  0  0  0  0  0  0  0  0
  -89.0861   26.4779    1.4317 C   0  0  0  0  0  0  0  0  0  0  0  0
  -88.6815   27.2631    2.5326 C   0  0  0  0  0  0  0  0  0  0  0  0
  -87.6939   28.2024    2.4174 C   0  0  0  0  0  0  0  0  0  0  0  0
  -87.0904   28.3734    1.1908 C   0  0  0  0  0  0  0  0  0  0  0  0
  -87.4834   27.6087    0.1150 C   0  0  0  0  0  0  0  0  0  0  0  0
  -88.4940   26.6413    0.2128 C   0  0  0  0  0  0  0  0  0  0  0  0
  -91.3998   25.7552    1.0074 C   0  0  0  0  0  0  0  0  0  0  0  0
  -90.0829   25.5050    1.6370 N   0  0  0  0  0  0  0  0  0  0  0  0
  -90.0130   24.3068    2.4241 C   0  0  0  0  0  0  0  0  0  0  0  0
  -88.8588   25.9099   -0.9810 C   0  0  0  0  0  0  0  0  0  0  0  0
  -89.1640   25.3089   -1.9097 N   0  0  0  0  0  0  0  0  0  0  0  0
  -83.1283   32.3494    0.0199 C   0  0  0  0  0  0  0  0  0  0  0  0
  -81.8228   32.2124    0.4506 O   0  0  0  0  0  0  0  0  0  0  0  0
  -83.4603   33.3601   -0.6438 O   0  0  0  0  0  0  0  0  0  0  0  0
  -81.3760   31.2970    0.4295 H   0  0  0  0  0  0  0  0  0  0  0  0
  -84.3520   28.0677    2.1104 C   0  0  0  0  0  0  0  0  0  0  0  0
  -84.0611   27.1196    2.7233 N   0  0  0  0  0  0  0  0  0  0  0  0
 13 14  1  0  0  0
 14 15  1  0  0  0
 14  7  1  0  0  0
  7  8  2  0  0  0
  8  9  1  0  0  0
  9 10  2  0  0  0
 10 11  1  0  0  0
 11 12  2  0  0  0
 12 16  1  0  0  0
 16 17  3  0  0  0
 10  1  1  0  0  0
  1  2  2  0  0  0
  2  3  1  0  0  0
  3  4  2  0  0  0
  4  5  1  0  0  0
  5  6  2  0  0  0
  6 22  1  0  0  0
 22 23  3  0  0  0
  4 18  1  0  0  0
 18 19  1  0  0  0
 18 20  2  0  0  0
 12  7  1  0  0  0
  6  1  1  0  0  0
 19 21  1  0  0  0
M  END
> <minimizedAffinity>
-7.29778

> <CNNscore>
0.2326762378

> <CNNaffinity>
5.5109024048

> <CNN_VS>
1.2822560072

> <CNNaffinity_variance>
0.1981469691

$$$$
[H]OC(=O)c1c([H])c([H])c(-c2c([H])c([H])c(N(C([H])([H])[H])C([H])([H])[H])c(C#N)c2[H])c(C#N)c1[H]


 23 24  0  0  0  0  0  0  0  0999 V2000
  -86.7041   31.1228   -0.5724 C   0  0  0  0  0  0  0  0  0  0  0  0
  -85.9930   31.8493    0.3574 C   0  0  0  0  0  0  0  0  0  0  0  0
  -85.0738   31.2557    1.2063 C   0  0  0  0  0  0  0  0  0  0  0  0
  -84.8361   29.9018    1.1492 C   0  0  0  0  0  0  0  0  0  0  0  0
  -85.5576   29.1925    0.2126 C   0  0  0  0  0  0  0  0  0  0  0  0
  -86.4769   29.7687   -0.6401 C   0  0  0  0  0  0  0  0  0  0  0  0
  -89.2118   33.3805   -3.0969 C   0  0  0  0  0  0  0  0  0  0  0  0
  -89.7667   32.3661   -2.2874 C   0  0  0  0  0  0  0  0  0  0  0  0
  -88.9887   31.6081   -1.4560 C   0  0  0  0  0  0  0  0  0  0  0  0
  -87.6337   31.8538   -1.4200 C   0  0  0  0  0  0  0  0  0  0  0  0
  -87.0898   32.8431   -2.2086 C   0  0  0  0  0  0  0  0  0  0  0  0
  -87.8705   33.6311   -3.0668 C   0  0  0  0  0  0  0  0  0  0  0  0
  -90.5432   33.3839   -5.1665 C   0  0  0  0  0  0  0  0  0  0  0  0
  -90.0707   34.0931   -3.9552 N   0  0  0  0  0  0  0  0  0  0  0  0
  -90.5222   35.4508   -3.8414 C   0  0  0  0  0  0  0  0  0  0  0  0
  -87.2121   34.6672   -3.8324 C   0  0  0  0  0  0  0  0  0  0  0  0
  -86.6952   35.5095   -4.4157 N   0  0  0  0  0  0  0  0  0  0  0  0
  -83.8726   29.2398    2.0296 C   0  0  0  0  0  0  0  0  0  0  0  0
  -84.2810   28.3077    2.9640 O   0  0  0  0  0  0  0  0  0  0  0  0
  -82.6562   29.5272    1.9300 O   0  0  0  0  0  0  0  0  0  0  0  0
  -85.0139   27.6408    2.7271 H   0  0  0  0  0  0  0  0  0  0  0  0
  -87.2038   28.9855   -1.5814 C   0  0  0  0  0  0  0  0  0  0  0  0
  -87.7885   28.3560   -2.3694 N   0  0  0  0  0  0  0  0  0  0  0  0
 13 14  1  0  0  0
 14 15  1  0  0  0
 14  7  1  0  0  0
  7  8  2  0  0  0
  8  9  1  0  0  0
  9 10  2  0  0  0
 10 11  1  0  0  0
 11 12  2  0  0  0
 12 16  1  0  0  0
 16 17  3  0  0  0
 10  1  1  0  0  0
  1  2  2  0  0  0
  2  3  1  0  0  0
  3  4  2  0  0  0
  4  5  1  0  0  0
  5  6  2  0  0  0
  6 22  1  0  0  0
 22 23  3  0  0  0
  4 18  1  0  0  0
 18 19  1  0  0  0
 18 20  2  0  0  0
 12  7  1  0  0  0
  6  1  1  0  0  0
 19 21  1  0  0  0
M  END
> <minimizedAffinity>
-6.87200

> <CNNscore>
0.2263857573

> <CNNaffinity>
4.9867744446

> <CNN_VS>
1.1289347410

> <CNNaffinity_variance>
0.1893428117

$$$$
[H]OC(=O)c1c([H])c([H])c(-c2c([H])c([H])c(N(C([H])([H])[H])C([H])([H])[H])c(C#N)c2[H])c(C#N)c1[H]


 23 24  0  0  0  0  0  0  0  0999 V2000
  -86.2984   31.1589   -0.4867 C   0  0  0  0  0  0  0  0  0  0  0  0
  -85.5693   31.8055    0.4872 C   0  0  0  0  0  0  0  0  0  0  0  0
  -84.7946   31.1153    1.4044 C   0  0  0  0  0  0  0  0  0  0  0  0
  -84.7258   29.7415    1.3741 C   0  0  0  0  0  0  0  0  0  0  0  0
  -85.4626   29.1132    0.3925 C   0  0  0  0  0  0  0  0  0  0  0  0
  -86.2392   29.7861   -0.5283 C   0  0  0  0  0  0  0  0  0  0  0  0
  -88.7045   33.3991   -3.1231 C   0  0  0  0  0  0  0  0  0  0  0  0
  -87.3743   33.8026   -2.8783 C   0  0  0  0  0  0  0  0  0  0  0  0
  -86.5601   33.1062   -2.0280 C   0  0  0  0  0  0  0  0  0  0  0  0
  -87.0661   31.9869   -1.4042 C   0  0  0  0  0  0  0  0  0  0  0  0
  -88.3635   31.5909   -1.6415 C   0  0  0  0  0  0  0  0  0  0  0  0
  -89.2136   32.2911   -2.5099 C   0  0  0  0  0  0  0  0  0  0  0  0
  -89.5922   33.7471   -5.3917 C   0  0  0  0  0  0  0  0  0  0  0  0
  -89.4935   34.1885   -3.9814 N   0  0  0  0  0  0  0  0  0  0  0  0
  -90.1892   35.4084   -3.6853 C   0  0  0  0  0  0  0  0  0  0  0  0
  -90.5504   31.7790   -2.7191 C   0  0  0  0  0  0  0  0  0  0  0  0
  -91.5992   31.3432   -2.8837 N   0  0  0  0  0  0  0  0  0  0  0  0
  -83.9182   28.9783    2.3264 C   0  0  0  0  0  0  0  0  0  0  0  0
  -82.5402   28.9482    2.2324 O   0  0  0  0  0  0  0  0  0  0  0  0
  -84.4920   28.3422    3.2420 O   0  0  0  0  0  0  0  0  0  0  0  0
  -82.0312   29.7946    1.9821 H   0  0  0  0  0  0  0  0  0  0  0  0
  -86.9903   29.0851   -1.5144 C   0  0  0  0  0  0  0  0  0  0  0  0
  -87.6248   28.5157   -2.3095 N   0  0  0  0  0  0  0  0  0  0  0  0
 13 14  1  0  0  0
 14 15  1  0  0  0
 14  7  1  0  0  0
  7  8  2  0  0  0
  8  9  1  0  0  0
  9 10  2  0  0  0
 10 11  1  0  0  0
 11 12  2  0  0  0
 12 16  1  0  0  0
 16 17  3  0  0  0
 10  1  1  0  0  0
  1  2  2  0  0  0
  2  3  1  0  0  0
  3  4  2  0  0  0
  4  5  1  0  0  0
  5  6  2  0  0  0
  6 22  1  0  0  0
 22 23  3  0  0  0
  4 18  1  0  0  0
 18 19  1  0  0  0
 18 20  2  0  0  0
 12  7  1  0  0  0
  6  1  1  0  0  0
 19 21  1  0  0  0
M  END
> <minimizedAffinity>
-6.96654

> <CNNscore>
0.2216924429

> <CNNaffinity>
5.0410566330

> <CNN_VS>
1.1175642014

> <CNNaffinity_variance>
0.1867441386

$$$$
[H]OC(=O)c1c([H])c([H])c(-c2c([H])c([H])c(N(C([H])([H])[H])C([H])([H])[H])c(C#N)c2[H])c(C#N)c1[H]


 23 24  0  0  0  0  0  0  0  0999 V2000
  -89.4255   30.1068   -1.5225 C   0  0  0  0  0  0  0  0  0  0  0  0
  -90.4828   29.8151   -0.6888 C   0  0  0  0  0  0  0  0  0  0  0  0
  -91.7332   29.4777   -1.1792 C   0  0  0  0  0  0  0  0  0  0  0  0
  -91.9654   29.4214   -2.5341 C   0  0  0  0  0  0  0  0  0  0  0  0
  -90.8950   29.7168   -3.3514 C   0  0  0  0  0  0  0  0  0  0  0  0
  -89.6435   30.0548   -2.8788 C   0  0  0  0  0  0  0  0  0  0  0  0
  -85.7397   30.8366    0.3858 C   0  0  0  0  0  0  0  0  0  0  0  0
  -86.3759   31.8768   -0.3253 C   0  0  0  0  0  0  0  0  0  0  0  0
  -87.5711   31.6823   -0.9613 C   0  0  0  0  0  0  0  0  0  0  0  0
  -88.1542   30.4358   -0.8962 C   0  0  0  0  0  0  0  0  0  0  0  0
  -87.5357   29.4193   -0.2029 C   0  0  0  0  0  0  0  0  0  0  0  0
  -86.3108   29.5990    0.4560 C   0  0  0  0  0  0  0  0  0  0  0  0
  -84.5099   31.5531    2.3932 C   0  0  0  0  0  0  0  0  0  0  0  0
  -84.4925   31.1025    0.9825 N   0  0  0  0  0  0  0  0  0  0  0  0
  -83.1872   31.0415    0.3890 C   0  0  0  0  0  0  0  0  0  0  0  0
  -85.7551   28.4794    1.1846 C   0  0  0  0  0  0  0  0  0  0  0  0
  -85.3217   27.5723    1.7381 N   0  0  0  0  0  0  0  0  0  0  0  0
  -93.2728   29.0686   -3.0889 C   0  0  0  0  0  0  0  0  0  0  0  0
  -93.4474   28.8857   -4.4471 O   0  0  0  0  0  0  0  0  0  0  0  0
  -94.2486   28.9310   -2.3135 O   0  0  0  0  0  0  0  0  0  0  0  0
  -92.7271   28.4131   -4.9911 H   0  0  0  0  0  0  0  0  0  0  0  0
  -88.5757   30.3626   -3.7693 C   0  0  0  0  0  0  0  0  0  0  0  0
  -87.7096   30.6364   -4.5001 N   0  0  0  0  0  0  0  0  0  0  0  0
 13 14  1  0  0  0
 14 15  1  0  0  0
 14  7  1  0  0  0
  7  8  2  0  0  0
  8  9  1  0  0  0
  9 10  2  0  0  0
 10 11  1  0  0  0
 11 12  2  0  0  0
 12 16  1  0  0  0
 16 17  3  0  0  0
 10  1  1  0  0  0
  1  2  2  0  0  0
  2  3  1  0  0  0
  3  4  2  0  0  0
  4  5  1  0  0  0
  5  6  2  0  0  0
  6 22  1  0  0  0
 22 23  3  0  0  0
  4 18  1  0  0  0
 18 19  1  0  0  0
 18 20  2  0  0  0
 12  7  1  0  0  0
  6  1  1  0  0  0
 19 21  1  0  0  0
M  END
> <minimizedAffinity>
-6.01077

> <CNNscore>
0.2133924216

> <CNNaffinity>
5.3714647293

> <CNN_VS>
1.1462298632

> <CNNaffinity_variance>
0.2865209877

$$$$
[H]OC(=O)c1c([H])c([H])c(-c2c([H])c([H])c(N(C([H])([H])[H])C([H])([H])[H])c(C#N)c2[H])c(C#N)c1[H]


 23 24  0  0  0  0  0  0  0  0999 V2000
  -85.8946   29.1290    1.0607 C   0  0  0  0  0  0  0  0  0  0  0  0
  -86.3073   30.1923    0.2880 C   0  0  0  0  0  0  0  0  0  0  0  0
  -85.4517   31.2250   -0.0572 C   0  0  0  0  0  0  0  0  0  0  0  0
  -84.1424   31.2244    0.3654 C   0  0  0  0  0  0  0  0  0  0  0  0
  -83.7489   30.1520    1.1376 C   0  0  0  0  0  0  0  0  0  0  0  0
  -84.5888   29.1157    1.4903 C   0  0  0  0  0  0  0  0  0  0  0  0
  -88.8102   26.2657    2.0901 C   0  0  0  0  0  0  0  0  0  0  0  0
  -87.9345   26.0141    1.0121 C   0  0  0  0  0  0  0  0  0  0  0  0
  -86.9759   26.9172    0.6427 C   0  0  0  0  0  0  0  0  0  0  0  0
  -86.8764   28.0951    1.3503 C   0  0  0  0  0  0  0  0  0  0  0  0
  -87.7294   28.3429    2.4027 C   0  0  0  0  0  0  0  0  0  0  0  0
  -88.7179   27.4296    2.7969 C   0  0  0  0  0  0  0  0  0  0  0  0
  -90.8843   25.1377    1.3962 C   0  0  0  0  0  0  0  0  0  0  0  0
  -89.7959   25.3051    2.3865 N   0  0  0  0  0  0  0  0  0  0  0  0
  -89.9201   24.4847    3.5577 C   0  0  0  0  0  0  0  0  0  0  0  0
  -89.5455   27.7660    3.9349 C   0  0  0  0  0  0  0  0  0  0  0  0
  -90.2158   28.0555    4.8202 N   0  0  0  0  0  0  0  0  0  0  0  0
  -83.2094   32.2978    0.0204 C   0  0  0  0  0  0  0  0  0  0  0  0
  -81.9088   32.2918    0.4865 O   0  0  0  0  0  0  0  0  0  0  0  0
  -83.6023   33.2370   -0.7114 O   0  0  0  0  0  0  0  0  0  0  0  0
  -81.3911   31.4154    0.5316 H   0  0  0  0  0  0  0  0  0  0  0  0
  -84.1321   28.0377    2.3010 C   0  0  0  0  0  0  0  0  0  0  0  0
  -83.7537   27.1429    2.9454 N   0  0  0  0  0  0  0  0  0  0  0  0
 13 14  1  0  0  0
 14 15  1  0  0  0
 14  7  1  0  0  0
  7  8  2  0  0  0
  8  9  1  0  0  0
  9 10  2  0  0  0
 10 11  1  0  0  0
 11 12  2  0  0  0
 12 16  1  0  0  0
 16 17  3  0  0  0
 10  1  1  0  0  0
  1  2  2  0  0  0
  2  3  1  0  0  0
  3  4  2  0  0  0
  4  5  1  0  0  0
  5  6  2  0  0  0
  6 22  1  0  0  0
 22 23  3  0  0  0
  4 18  1  0  0  0
 18 19  1  0  0  0
 18 20  2  0  0  0
 12  7  1  0  0  0
  6  1  1  0  0  0
 19 21  1  0  0  0
M  END
> <minimizedAffinity>
-7.98700

> <CNNscore>
0.2114206403

> <CNNaffinity>
5.4034366608

> <CNN_VS>
1.1423979998

> <CNNaffinity_variance>
0.1813369095

$$$$
[H]OC(=O)c1c([H])c([H])c(-c2c([H])c([H])c(N(C([H])([H])[H])C([H])([H])[H])c(C#N)c2[H])c(C#N)c1[H]


 23 24  0  0  0  0  0  0  0  0999 V2000
  -88.8468   26.8472    0.7665 C   0  0  0  0  0  0  0  0  0  0  0  0
  -89.1898   26.2095    1.9386 C   0  0  0  0  0  0  0  0  0  0  0  0
  -90.1871   25.2500    1.9879 C   0  0  0  0  0  0  0  0  0  0  0  0
  -90.8789   24.8960    0.8526 C   0  0  0  0  0  0  0  0  0  0  0  0
  -90.5212   25.5455   -0.3098 C   0  0  0  0  0  0  0  0  0  0  0  0
  -89.5304   26.5035   -0.3756 C   0  0  0  0  0  0  0  0  0  0  0  0
  -85.6154   29.5332    1.0868 C   0  0  0  0  0  0  0  0  0  0  0  0
  -86.7970   29.9377    0.4292 C   0  0  0  0  0  0  0  0  0  0  0  0
  -87.8682   29.0969    0.3005 C   0  0  0  0  0  0  0  0  0  0  0  0
  -87.7750   27.8289    0.8311 C   0  0  0  0  0  0  0  0  0  0  0  0
  -86.6233   27.4318    1.4733 C   0  0  0  0  0  0  0  0  0  0  0  0
  -85.5149   28.2791    1.6160 C   0  0  0  0  0  0  0  0  0  0  0  0
  -84.5592   31.4252    2.2531 C   0  0  0  0  0  0  0  0  0  0  0  0
  -84.5412   30.4413    1.1463 N   0  0  0  0  0  0  0  0  0  0  0  0
  -83.4363   30.5786    0.2405 C   0  0  0  0  0  0  0  0  0  0  0  0
  -84.3617   27.7820    2.3345 C   0  0  0  0  0  0  0  0  0  0  0  0
  -83.4289   27.3948    2.8793 N   0  0  0  0  0  0  0  0  0  0  0  0
  -91.9386   23.8867    0.8661 C   0  0  0  0  0  0  0  0  0  0  0  0
  -92.5387   23.4645   -0.3045 O   0  0  0  0  0  0  0  0  0  0  0  0
  -92.3045   23.3997    1.9620 O   0  0  0  0  0  0  0  0  0  0  0  0
  -91.9751   23.3305   -1.1427 H   0  0  0  0  0  0  0  0  0  0  0  0
  -89.2099   27.1520   -1.6022 C   0  0  0  0  0  0  0  0  0  0  0  0
  -88.9660   27.6971   -2.6035 N   0  0  0  0  0  0  0  0  0  0  0  0
 13 14  1  0  0  0
 14 15  1  0  0  0
 14  7  1  0  0  0
  7  8  2  0  0  0
  8  9  1  0  0  0
  9 10  2  0  0  0
 10 11  1  0  0  0
 11 12  2  0  0  0
 12 16  1  0  0  0
 16 17  3  0  0  0
 10  1  1  0  0  0
  1  2  2  0  0  0
  2  3  1  0  0  0
  3  4  2  0  0  0
  4  5  1  0  0  0
  5  6  2  0  0  0
  6 22  1  0  0  0
 22 23  3  0  0  0
  4 18  1  0  0  0
 18 19  1  0  0  0
 18 20  2  0  0  0
 12  7  1  0  0  0
  6  1  1  0  0  0
 19 21  1  0  0  0
M  END
> <minimizedAffinity>
-6.61339

> <CNNscore>
0.1916590780

> <CNNaffinity>
5.3824357986

> <CNN_VS>
1.0315927267

> <CNNaffinity_variance>
0.1983556896

$$$$
[H]OC(=O)c1c([H])c([H])c(-c2c([H])c([H])c(N(C([H])([H])[H])C([H])([H])[H])c(C#N)c2[H])c(C#N)c1[H]


 23 24  0  0  0  0  0  0  0  0999 V2000
  -88.7122   26.3765    1.1992 C   0  0  0  0  0  0  0  0  0  0  0  0
  -88.7103   25.5024    0.1343 C   0  0  0  0  0  0  0  0  0  0  0  0
  -89.6131   24.4565    0.0411 C   0  0  0  0  0  0  0  0  0  0  0  0
  -90.5557   24.2518    1.0221 C   0  0  0  0  0  0  0  0  0  0  0  0
  -90.5412   25.1368    2.0793 C   0  0  0  0  0  0  0  0  0  0  0  0
  -89.6485   26.1834    2.1871 C   0  0  0  0  0  0  0  0  0  0  0  0
  -85.7063   29.3288    1.2839 C   0  0  0  0  0  0  0  0  0  0  0  0
  -86.9605   29.6256    0.7085 C   0  0  0  0  0  0  0  0  0  0  0  0
  -87.9627   28.6962    0.6577 C   0  0  0  0  0  0  0  0  0  0  0  0
  -87.7258   27.4458    1.1853 C   0  0  0  0  0  0  0  0  0  0  0  0
  -86.5030   27.1537    1.7476 C   0  0  0  0  0  0  0  0  0  0  0  0
  -85.4634   28.0929    1.8097 C   0  0  0  0  0  0  0  0  0  0  0  0
  -83.8260   30.3620    0.0786 C   0  0  0  0  0  0  0  0  0  0  0  0
  -84.7115   30.3249    1.2652 N   0  0  0  0  0  0  0  0  0  0  0  0
  -84.4010   31.2964    2.2750 C   0  0  0  0  0  0  0  0  0  0  0  0
  -84.2254   27.7019    2.4483 C   0  0  0  0  0  0  0  0  0  0  0  0
  -83.2587   27.3671    2.9680 N   0  0  0  0  0  0  0  0  0  0  0  0
  -91.5257   23.1579    0.9578 C   0  0  0  0  0  0  0  0  0  0  0  0
  -91.3821   22.1275    0.0488 O   0  0  0  0  0  0  0  0  0  0  0  0
  -92.5026   23.1606    1.7439 O   0  0  0  0  0  0  0  0  0  0  0  0
  -90.4560   21.7504   -0.1470 H   0  0  0  0  0  0  0  0  0  0  0  0
  -89.6708   27.0611    3.3083 C   0  0  0  0  0  0  0  0  0  0  0  0
  -89.6907   27.7610    4.2404 N   0  0  0  0  0  0  0  0  0  0  0  0
 13 14  1  0  0  0
 14 15  1  0  0  0
 14  7  1  0  0  0
  7  8  2  0  0  0
  8  9  1  0  0  0
  9 10  2  0  0  0
 10 11  1  0  0  0
 11 12  2  0  0  0
 12 16  1  0  0  0
 16 17  3  0  0  0
 10  1  1  0  0  0
  1  2  2  0  0  0
  2  3  1  0  0  0
  3  4  2  0  0  0
  4  5  1  0  0  0
  5  6  2  0  0  0
  6 22  1  0  0  0
 22 23  3  0  0  0
  4 18  1  0  0  0
 18 19  1  0  0  0
 18 20  2  0  0  0
 12  7  1  0  0  0
  6  1  1  0  0  0
 19 21  1  0  0  0
M  END
> <minimizedAffinity>
-6.60132

> <CNNscore>
0.1884163022

> <CNNaffinity>
5.3174400330

> <CNN_VS>
1.0018924475

> <CNNaffinity_variance>
0.2676192522

$$$$
[H]c1c([H])c([H])c(C([H])([H])[C@@]([H])(C(=O)N([H])[H])N([H])C(=O)[C@@]([H])(N([H])C(=O)[C@@]([H])(N([H])C(=O)[C@@]2([H])N(C(=O)[C@@]([H])(N([H])[H])C([H])([H])c3c([H])n([H])c4c([H])c([H])c([H])c([H])c34)C([H])([H])C([H])([H])C2([H])[H])C([H])([H])c2c([H])c([H])c([H])c([H])c2[H])C([H])([H])C([H])(C([H])([H])[H])C([H])([H])[H])c([H])c1[H]


 60 64  0  0  0  0  0  0  0  0999 V2000
  -90.2665   28.0752   -1.8717 C   0  0  0  0  0  0  0  0  0  0  0  0
  -89.7054   29.3987   -2.0132 N   0  0  0  0  0  0  0  0  0  0  0  0
  -90.3590   30.4248   -2.7775 C   0  0  0  0  0  0  0  0  0  0  0  0
  -91.4454   30.1189   -3.3792 O   0  0  0  0  0  0  0  0  0  0  0  0
  -88.8064   29.6572   -1.5649 H   0  0  0  0  0  0  0  0  0  0  0  0
  -89.8815   31.7809   -2.9072 C   0  0  0  0  0  0  0  0  0  0  0  0
  -90.1196   32.3439   -4.3123 C   0  0  0  0  0  0  0  0  0  0  0  0
  -88.9788   31.7472   -5.0984 C   0  0  0  0  0  0  0  0  0  0  0  0
  -87.9120   31.3907   -4.0496 C   0  0  0  0  0  0  0  0  0  0  0  0
  -88.4643   31.9115   -2.8277 N   0  0  0  0  0  0  0  0  0  0  0  0
  -87.7517   32.4805   -1.7552 C   0  0  0  0  0  0  0  0  0  0  0  0
  -88.4035   32.9061   -0.7337 O   0  0  0  0  0  0  0  0  0  0  0  0
  -86.2807   32.6528   -1.6758 C   0  0  0  0  0  0  0  0  0  0  0  0
  -85.7946   33.5315   -2.6948 N   0  0  0  0  0  0  0  0  0  0  0  0
  -86.5550   34.1952   -3.0214 H   0  0  0  0  0  0  0  0  0  0  0  0
  -85.3348   33.0595   -3.4968 H   0  0  0  0  0  0  0  0  0  0  0  0
  -85.8170   33.1348   -0.3230 C   0  0  0  0  0  0  0  0  0  0  0  0
  -84.5937   32.3981    0.0591 C   0  0  0  0  0  0  0  0  0  0  0  0
  -83.2930   32.8027   -0.2313 C   0  0  0  0  0  0  0  0  0  0  0  0
  -82.4313   31.9291    0.3133 N   0  0  0  0  0  0  0  0  0  0  0  0
  -83.1033   30.9501    0.9594 C   0  0  0  0  0  0  0  0  0  0  0  0
  -82.6766   29.8351    1.6588 C   0  0  0  0  0  0  0  0  0  0  0  0
  -83.5642   28.9735    2.2204 C   0  0  0  0  0  0  0  0  0  0  0  0
  -84.9136   29.2433    2.0718 C   0  0  0  0  0  0  0  0  0  0  0  0
  -85.3298   30.3569    1.3736 C   0  0  0  0  0  0  0  0  0  0  0  0
  -84.4578   31.2466    0.7971 C   0  0  0  0  0  0  0  0  0  0  0  0
  -81.3891   31.9401    0.2833 H   0  0  0  0  0  0  0  0  0  0  0  0
  -90.3110   26.7943    0.3552 N   0  0  0  0  0  0  0  0  0  0  0  0
  -89.5921   27.3812   -0.7123 C   0  0  0  0  0  0  0  0  0  0  0  0
  -88.3132   27.3367   -0.7220 O   0  0  0  0  0  0  0  0  0  0  0  0
  -91.3496   26.8566    0.3546 H   0  0  0  0  0  0  0  0  0  0  0  0
  -89.5982   26.1244    1.4207 C   0  0  0  0  0  0  0  0  0  0  0  0
  -90.0929   24.7616    1.7022 C   0  0  0  0  0  0  0  0  0  0  0  0
  -90.1206   24.2921    2.8940 O   0  0  0  0  0  0  0  0  0  0  0  0
  -90.5464   23.9709    0.6157 N   0  0  0  0  0  0  0  0  0  0  0  0
  -90.5394   24.3233   -0.3620 H   0  0  0  0  0  0  0  0  0  0  0  0
  -91.0405   22.6257    0.8260 C   0  0  0  0  0  0  0  0  0  0  0  0
  -89.9850   21.6100    0.9193 C   0  0  0  0  0  0  0  0  0  0  0  0
  -88.7995   21.5791    0.1508 N   0  0  0  0  0  0  0  0  0  0  0  0
  -90.1202   20.6514    1.7617 O   0  0  0  0  0  0  0  0  0  0  0  0
  -87.8489   21.5353    0.6166 H   0  0  0  0  0  0  0  0  0  0  0  0
  -88.8824   21.5994   -0.8875 H   0  0  0  0  0  0  0  0  0  0  0  0
  -91.9820   22.2640   -0.3267 C   0  0  0  0  0  0  0  0  0  0  0  0
  -93.3906   22.1747    0.0677 C   0  0  0  0  0  0  0  0  0  0  0  0
  -94.0449   21.0019    0.3223 C   0  0  0  0  0  0  0  0  0  0  0  0
  -95.3925   20.9931    0.6995 C   0  0  0  0  0  0  0  0  0  0  0  0
  -96.0719   22.1832    0.8169 C   0  0  0  0  0  0  0  0  0  0  0  0
  -95.4271   23.3555    0.5653 C   0  0  0  0  0  0  0  0  0  0  0  0
  -94.1019   23.3639    0.1941 C   0  0  0  0  0  0  0  0  0  0  0  0
  -89.4343   26.9698    2.6337 C   0  0  0  0  0  0  0  0  0  0  0  0
  -90.4011   27.0725    4.9756 C   0  0  0  0  0  0  0  0  0  0  0  0
  -90.6036   27.1852    3.5067 C   0  0  0  0  0  0  0  0  0  0  0  0
  -91.0700   28.6317    3.2402 C   0  0  0  0  0  0  0  0  0  0  0  0
  -90.1528   27.2054   -3.0942 C   0  0  0  0  0  0  0  0  0  0  0  0
  -91.3255   26.3713   -3.3979 C   0  0  0  0  0  0  0  0  0  0  0  0
  -92.2322   26.7896   -4.3831 C   0  0  0  0  0  0  0  0  0  0  0  0
  -93.3635   26.1336   -4.7299 C   0  0  0  0  0  0  0  0  0  0  0  0
  -93.6751   24.9504   -4.0754 C   0  0  0  0  0  0  0  0  0  0  0  0
  -92.8151   24.4937   -3.0970 C   0  0  0  0  0  0  0  0  0  0  0  0
  -91.6651   25.1960   -2.7706 C   0  0  0  0  0  0  0  0  0  0  0  0
 51 52  1  0  0  0
 52 53  1  0  0  0
 52 50  1  0  0  0
 50 32  1  0  0  0
 32 28  1  0  0  0
 28 29  1  0  0  0
 29 30  2  0  0  0
 29  1  1  0  0  0
  1 54  1  0  0  0
 54 55  1  0  0  0
 55 56  2  0  0  0
 56 57  1  0  0  0
 57 58  2  0  0  0
 58 59  1  0  0  0
 59 60  2  0  0  0
  1  2  1  0  0  0
  2  3  1  0  0  0
  3  4  2  0  0  0
  3  6  1  0  0  0
  6  7  1  0  0  0
  7  8  1  0  0  0
  8  9  1  0  0  0
  9 10  1  0  0  0
 10 11  1  0  0  0
 11 12  2  0  0  0
 11 13  1  0  0  0
 13 14  1  0  0  0
 13 17  1  0  0  0
 17 18  1  0  0  0
 18 19  2  0  0  0
 19 20  1  0  0  0
 20 21  1  0  0  0
 21 22  2  0  0  0
 22 23  1  0  0  0
 23 24  2  0  0  0
 24 25  1  0  0  0
 25 26  2  0  0  0
 32 33  1  0  0  0
 33 34  2  0  0  0
 33 35  1  0  0  0
 35 37  1  0  0  0
 37 43  1  0  0  0
 43 44  1  0  0  0
 44 45  2  0  0  0
 45 46  1  0  0  0
 46 47  2  0  0  0
 47 48  1  0  0  0
 48 49  2  0  0  0
 37 38  1  0  0  0
 38 39  1  0  0  0
 38 40  2  0  0  0
 60 55  1  0  0  0
 10  6  1  0  0  0
 26 18  1  0  0  0
 49 44  1  0  0  0
 26 21  1  0  0  0
 28 31  1  0  0  0
  2  5  1  0  0  0
 14 15  1  0  0  0
 14 16  1  0  0  0
 20 27  1  0  0  0
 35 36  1  0  0  0
 39 41  1  0  0  0
 39 42  1  0  0  0
M  END
> <minimizedAffinity>
-9.89929

> <CNNscore>
0.2117338777

> <CNNaffinity>
7.2312269211

> <CNN_VS>
1.5310957432

> <CNNaffinity_variance>
1.2099882364

$$$$
[H]c1c([H])c([H])c(C([H])([H])[C@@]([H])(C(=O)N([H])[H])N([H])C(=O)[C@@]([H])(N([H])C(=O)[C@@]([H])(N([H])C(=O)[C@@]2([H])N(C(=O)[C@@]([H])(N([H])[H])C([H])([H])c3c([H])n([H])c4c([H])c([H])c([H])c([H])c34)C([H])([H])C([H])([H])C2([H])[H])C([H])([H])c2c([H])c([H])c([H])c([H])c2[H])C([H])([H])C([H])(C([H])([H])[H])C([H])([H])[H])c([H])c1[H]


 60 64  0  0  0  0  0  0  0  0999 V2000
  -92.1875   30.3077   -3.6546 C   0  0  0  0  0  0  0  0  0  0  0  0
  -91.3096   31.3598   -3.1977 N   0  0  0  0  0  0  0  0  0  0  0  0
  -91.1199   32.5715   -3.9461 C   0  0  0  0  0  0  0  0  0  0  0  0
  -91.7215   32.6782   -5.0697 O   0  0  0  0  0  0  0  0  0  0  0  0
  -90.7826   31.2781   -2.3079 H   0  0  0  0  0  0  0  0  0  0  0  0
  -90.3053   33.6827   -3.5153 C   0  0  0  0  0  0  0  0  0  0  0  0
  -90.1824   34.7607   -4.5973 C   0  0  0  0  0  0  0  0  0  0  0  0
  -89.1222   34.1894   -5.5055 C   0  0  0  0  0  0  0  0  0  0  0  0
  -88.3474   33.1853   -4.6358 C   0  0  0  0  0  0  0  0  0  0  0  0
  -88.9287   33.3615   -3.3318 N   0  0  0  0  0  0  0  0  0  0  0  0
  -88.2654   33.2707   -2.0934 C   0  0  0  0  0  0  0  0  0  0  0  0
  -88.9357   33.4641   -1.0151 O   0  0  0  0  0  0  0  0  0  0  0  0
  -86.8269   32.9710   -1.8914 C   0  0  0  0  0  0  0  0  0  0  0  0
  -86.0188   33.5273   -2.9328 N   0  0  0  0  0  0  0  0  0  0  0  0
  -86.4982   34.3581   -3.3858 H   0  0  0  0  0  0  0  0  0  0  0  0
  -85.6915   32.8457   -3.6440 H   0  0  0  0  0  0  0  0  0  0  0  0
  -86.3136   33.4285   -0.5482 C   0  0  0  0  0  0  0  0  0  0  0  0
  -85.0276   32.7556   -0.2677 C   0  0  0  0  0  0  0  0  0  0  0  0
  -83.7839   33.1858   -0.7239 C   0  0  0  0  0  0  0  0  0  0  0  0
  -82.8335   32.3736   -0.2343 N   0  0  0  0  0  0  0  0  0  0  0  0
  -83.3911   31.4115    0.5345 C   0  0  0  0  0  0  0  0  0  0  0  0
  -82.8461   30.3530    1.2395 C   0  0  0  0  0  0  0  0  0  0  0  0
  -83.6316   29.4960    1.9425 C   0  0  0  0  0  0  0  0  0  0  0  0
  -84.9987   29.7121    1.9328 C   0  0  0  0  0  0  0  0  0  0  0  0
  -85.5331   30.7697    1.2278 C   0  0  0  0  0  0  0  0  0  0  0  0
  -84.7657   31.6533    0.5103 C   0  0  0  0  0  0  0  0  0  0  0  0
  -81.8023   32.4174   -0.3822 H   0  0  0  0  0  0  0  0  0  0  0  0
  -92.0088   27.9818   -2.5775 N   0  0  0  0  0  0  0  0  0  0  0  0
  -92.4145   29.3358   -2.5213 C   0  0  0  0  0  0  0  0  0  0  0  0
  -93.0016   29.7838   -1.4762 O   0  0  0  0  0  0  0  0  0  0  0  0
  -91.5494   27.6314   -3.4428 H   0  0  0  0  0  0  0  0  0  0  0  0
  -92.2378   27.1141   -1.4431 C   0  0  0  0  0  0  0  0  0  0  0  0
  -90.9994   26.5641   -0.8555 C   0  0  0  0  0  0  0  0  0  0  0  0
  -90.0767   26.0608   -1.5883 O   0  0  0  0  0  0  0  0  0  0  0  0
  -90.8450   26.6061    0.5536 N   0  0  0  0  0  0  0  0  0  0  0  0
  -91.5733   27.0099    1.1752 H   0  0  0  0  0  0  0  0  0  0  0  0
  -89.6550   26.0803    1.1904 C   0  0  0  0  0  0  0  0  0  0  0  0
  -89.9267   25.2496    2.3697 C   0  0  0  0  0  0  0  0  0  0  0  0
  -90.1934   23.8620    2.3576 N   0  0  0  0  0  0  0  0  0  0  0  0
  -89.9310   25.8011    3.5284 O   0  0  0  0  0  0  0  0  0  0  0  0
  -89.6189   23.1913    2.9428 H   0  0  0  0  0  0  0  0  0  0  0  0
  -90.9712   23.5130    1.7588 H   0  0  0  0  0  0  0  0  0  0  0  0
  -88.7602   27.2537    1.6008 C   0  0  0  0  0  0  0  0  0  0  0  0
  -88.3195   28.0817    0.4748 C   0  0  0  0  0  0  0  0  0  0  0  0
  -88.9008   29.2662    0.1176 C   0  0  0  0  0  0  0  0  0  0  0  0
  -88.4228   30.0073   -0.9690 C   0  0  0  0  0  0  0  0  0  0  0  0
  -87.3503   29.5381   -1.6910 C   0  0  0  0  0  0  0  0  0  0  0  0
  -86.7659   28.3594   -1.3413 C   0  0  0  0  0  0  0  0  0  0  0  0
  -87.2361   27.6306   -0.2728 C   0  0  0  0  0  0  0  0  0  0  0  0
  -93.2923   26.0949   -1.6925 C   0  0  0  0  0  0  0  0  0  0  0  0
  -93.0103   24.0781   -3.2035 C   0  0  0  0  0  0  0  0  0  0  0  0
  -93.3981   25.5044   -3.0401 C   0  0  0  0  0  0  0  0  0  0  0  0
  -94.8886   25.5987   -3.4276 C   0  0  0  0  0  0  0  0  0  0  0  0
  -91.6943   29.5490   -4.8567 C   0  0  0  0  0  0  0  0  0  0  0  0
  -92.7266   28.8635   -5.6490 C   0  0  0  0  0  0  0  0  0  0  0  0
  -93.8839   29.5616   -6.0244 C   0  0  0  0  0  0  0  0  0  0  0  0
  -94.9192   29.0370   -6.7198 C   0  0  0  0  0  0  0  0  0  0  0  0
  -94.8566   27.7055   -7.1053 C   0  0  0  0  0  0  0  0  0  0  0  0
  -93.7382   26.9731   -6.7616 C   0  0  0  0  0  0  0  0  0  0  0  0
  -92.6981   27.5480   -6.0475 C   0  0  0  0  0  0  0  0  0  0  0  0
 51 52  1  0  0  0
 52 53  1  0  0  0
 52 50  1  0  0  0
 50 32  1  0  0  0
 32 28  1  0  0  0
 28 29  1  0  0  0
 29 30  2  0  0  0
 29  1  1  0  0  0
  1 54  1  0  0  0
 54 55  1  0  0  0
 55 56  2  0  0  0
 56 57  1  0  0  0
 57 58  2  0  0  0
 58 59  1  0  0  0
 59 60  2  0  0  0
  1  2  1  0  0  0
  2  3  1  0  0  0
  3  4  2  0  0  0
  3  6  1  0  0  0
  6  7  1  0  0  0
  7  8  1  0  0  0
  8  9  1  0  0  0
  9 10  1  0  0  0
 10 11  1  0  0  0
 11 12  2  0  0  0
 11 13  1  0  0  0
 13 14  1  0  0  0
 13 17  1  0  0  0
 17 18  1  0  0  0
 18 19  2  0  0  0
 19 20  1  0  0  0
 20 21  1  0  0  0
 21 22  2  0  0  0
 22 23  1  0  0  0
 23 24  2  0  0  0
 24 25  1  0  0  0
 25 26  2  0  0  0
 32 33  1  0  0  0
 33 34  2  0  0  0
 33 35  1  0  0  0
 35 37  1  0  0  0
 37 43  1  0  0  0
 43 44  1  0  0  0
 44 45  2  0  0  0
 45 46  1  0  0  0
 46 47  2  0  0  0
 47 48  1  0  0  0
 48 49  2  0  0  0
 37 38  1  0  0  0
 38 39  1  0  0  0
 38 40  2  0  0  0
 60 55  1  0  0  0
 10  6  1  0  0  0
 26 18  1  0  0  0
 49 44  1  0  0  0
 26 21  1  0  0  0
 28 31  1  0  0  0
  2  5  1  0  0  0
 14 15  1  0  0  0
 14 16  1  0  0  0
 20 27  1  0  0  0
 35 36  1  0  0  0
 39 41  1  0  0  0
 39 42  1  0  0  0
M  END
> <minimizedAffinity>
-8.90288

> <CNNscore>
0.1632060856

> <CNNaffinity>
7.1182012558

> <CNN_VS>
1.1617337465

> <CNNaffinity_variance>
1.0894305706

$$$$
[H]c1c([H])c([H])c(C([H])([H])[C@@]([H])(C(=O)N([H])[H])N([H])C(=O)[C@@]([H])(N([H])C(=O)[C@@]([H])(N([H])C(=O)[C@@]2([H])N(C(=O)[C@@]([H])(N([H])[H])C([H])([H])c3c([H])n([H])c4c([H])c([H])c([H])c([H])c34)C([H])([H])C([H])([H])C2([H])[H])C([H])([H])c2c([H])c([H])c([H])c([H])c2[H])C([H])([H])C([H])(C([H])([H])[H])C([H])([H])[H])c([H])c1[H]


 60 64  0  0  0  0  0  0  0  0999 V2000
  -90.8541   27.7452   -1.6204 C   0  0  0  0  0  0  0  0  0  0  0  0
  -90.7438   29.1818   -1.7219 N   0  0  0  0  0  0  0  0  0  0  0  0
  -89.7368   29.8128   -2.5294 C   0  0  0  0  0  0  0  0  0  0  0  0
  -88.8961   29.0590   -3.1300 O   0  0  0  0  0  0  0  0  0  0  0  0
  -91.3916   29.8127   -1.2133 H   0  0  0  0  0  0  0  0  0  0  0  0
  -89.6121   31.2383   -2.7196 C   0  0  0  0  0  0  0  0  0  0  0  0
  -90.1397   31.6858   -4.0868 C   0  0  0  0  0  0  0  0  0  0  0  0
  -88.9907   31.3489   -5.0040 C   0  0  0  0  0  0  0  0  0  0  0  0
  -87.7542   31.2851   -4.0917 C   0  0  0  0  0  0  0  0  0  0  0  0
  -88.2666   31.6997   -2.8131 N   0  0  0  0  0  0  0  0  0  0  0  0
  -87.5878   32.4530   -1.8365 C   0  0  0  0  0  0  0  0  0  0  0  0
  -88.1971   32.7456   -0.7444 O   0  0  0  0  0  0  0  0  0  0  0  0
  -86.2003   32.9675   -1.9367 C   0  0  0  0  0  0  0  0  0  0  0  0
  -86.0716   33.9448   -2.9736 N   0  0  0  0  0  0  0  0  0  0  0  0
  -87.0020   34.4127   -3.1752 H   0  0  0  0  0  0  0  0  0  0  0  0
  -85.6243   33.6017   -3.8452 H   0  0  0  0  0  0  0  0  0  0  0  0
  -85.6875   33.5340   -0.6355 C   0  0  0  0  0  0  0  0  0  0  0  0
  -84.5556   32.7092   -0.1622 C   0  0  0  0  0  0  0  0  0  0  0  0
  -83.2109   32.9893   -0.3926 C   0  0  0  0  0  0  0  0  0  0  0  0
  -82.4593   32.0654    0.2270 N   0  0  0  0  0  0  0  0  0  0  0  0
  -83.2480   31.1725    0.8659 C   0  0  0  0  0  0  0  0  0  0  0  0
  -82.9586   30.0515    1.6235 C   0  0  0  0  0  0  0  0  0  0  0  0
  -83.9469   29.2909    2.1623 C   0  0  0  0  0  0  0  0  0  0  0  0
  -85.2576   29.6703    1.9302 C   0  0  0  0  0  0  0  0  0  0  0  0
  -85.5368   30.7890    1.1743 C   0  0  0  0  0  0  0  0  0  0  0  0
  -84.5607   31.5784    0.6189 C   0  0  0  0  0  0  0  0  0  0  0  0
  -81.4200   31.9855    0.2547 H   0  0  0  0  0  0  0  0  0  0  0  0
  -91.5177   26.4752   -3.7532 N   0  0  0  0  0  0  0  0  0  0  0  0
  -91.8672   27.2616   -2.6305 C   0  0  0  0  0  0  0  0  0  0  0  0
  -93.0883   27.5923   -2.4375 O   0  0  0  0  0  0  0  0  0  0  0  0
  -90.5173   26.2318   -3.9031 H   0  0  0  0  0  0  0  0  0  0  0  0
  -92.5460   26.0272   -4.6665 C   0  0  0  0  0  0  0  0  0  0  0  0
  -93.1199   27.1086   -5.4925 C   0  0  0  0  0  0  0  0  0  0  0  0
  -92.4282   27.7025   -6.3928 O   0  0  0  0  0  0  0  0  0  0  0  0
  -94.4701   27.4821   -5.2715 N   0  0  0  0  0  0  0  0  0  0  0  0
  -95.0584   27.0184   -4.5511 H   0  0  0  0  0  0  0  0  0  0  0  0
  -95.0897   28.5371   -6.0467 C   0  0  0  0  0  0  0  0  0  0  0  0
  -95.2881   28.2004   -7.4615 C   0  0  0  0  0  0  0  0  0  0  0  0
  -94.6211   28.7998   -8.5537 N   0  0  0  0  0  0  0  0  0  0  0  0
  -96.1355   27.2868   -7.7681 O   0  0  0  0  0  0  0  0  0  0  0  0
  -94.0929   28.2118   -9.2591 H   0  0  0  0  0  0  0  0  0  0  0  0
  -94.6620   29.8363   -8.6497 H   0  0  0  0  0  0  0  0  0  0  0  0
  -94.2181   29.7928   -5.9491 C   0  0  0  0  0  0  0  0  0  0  0  0
  -94.5504   30.6548   -4.8114 C   0  0  0  0  0  0  0  0  0  0  0  0
  -93.7678   30.7962   -3.6996 C   0  0  0  0  0  0  0  0  0  0  0  0
  -94.1471   31.6426   -2.6516 C   0  0  0  0  0  0  0  0  0  0  0  0
  -95.3263   32.3449   -2.7396 C   0  0  0  0  0  0  0  0  0  0  0  0
  -96.1110   32.2095   -3.8439 C   0  0  0  0  0  0  0  0  0  0  0  0
  -95.7380   31.3771   -4.8742 C   0  0  0  0  0  0  0  0  0  0  0  0
  -93.5639   25.1582   -4.0171 C   0  0  0  0  0  0  0  0  0  0  0  0
  -92.5320   23.3437   -2.5775 C   0  0  0  0  0  0  0  0  0  0  0  0
  -93.2506   23.7303   -3.8207 C   0  0  0  0  0  0  0  0  0  0  0  0
  -94.6093   23.0000   -3.7845 C   0  0  0  0  0  0  0  0  0  0  0  0
  -91.2405   27.2345   -0.2588 C   0  0  0  0  0  0  0  0  0  0  0  0
  -90.1258   26.9401    0.6545 C   0  0  0  0  0  0  0  0  0  0  0  0
  -90.3884   26.7273    2.0160 C   0  0  0  0  0  0  0  0  0  0  0  0
  -89.4516   26.4843    2.9615 C   0  0  0  0  0  0  0  0  0  0  0  0
  -88.1179   26.4358    2.5814 C   0  0  0  0  0  0  0  0  0  0  0  0
  -87.8050   26.6380    1.2522 C   0  0  0  0  0  0  0  0  0  0  0  0
  -88.7951   26.8847    0.3136 C   0  0  0  0  0  0  0  0  0  0  0  0
 51 52  1  0  0  0
 52 53  1  0  0  0
 52 50  1  0  0  0
 50 32  1  0  0  0
 32 28  1  0  0  0
 28 29  1  0  0  0
 29 30  2  0  0  0
 29  1  1  0  0  0
  1 54  1  0  0  0
 54 55  1  0  0  0
 55 56  2  0  0  0
 56 57  1  0  0  0
 57 58  2  0  0  0
 58 59  1  0  0  0
 59 60  2  0  0  0
  1  2  1  0  0  0
  2  3  1  0  0  0
  3  4  2  0  0  0
  3  6  1  0  0  0
  6  7  1  0  0  0
  7  8  1  0  0  0
  8  9  1  0  0  0
  9 10  1  0  0  0
 10 11  1  0  0  0
 11 12  2  0  0  0
 11 13  1  0  0  0
 13 14  1  0  0  0
 13 17  1  0  0  0
 17 18  1  0  0  0
 18 19  2  0  0  0
 19 20  1  0  0  0
 20 21  1  0  0  0
 21 22  2  0  0  0
 22 23  1  0  0  0
 23 24  2  0  0  0
 24 25  1  0  0  0
 25 26  2  0  0  0
 32 33  1  0  0  0
 33 34  2  0  0  0
 33 35  1  0  0  0
 35 37  1  0  0  0
 37 43  1  0  0  0
 43 44  1  0  0  0
 44 45  2  0  0  0
 45 46  1  0  0  0
 46 47  2  0  0  0
 47 48  1  0  0  0
 48 49  2  0  0  0
 37 38  1  0  0  0
 38 39  1  0  0  0
 38 40  2  0  0  0
 60 55  1  0  0  0
 10  6  1  0  0  0
 26 18  1  0  0  0
 49 44  1  0  0  0
 26 21  1  0  0  0
 28 31  1  0  0  0
  2  5  1  0  0  0
 14 15  1  0  0  0
 14 16  1  0  0  0
 20 27  1  0  0  0
 35 36  1  0  0  0
 39 41  1  0  0  0
 39 42  1  0  0  0
M  END
> <minimizedAffinity>
-9.01860

> <CNNscore>
0.1417981237

> <CNNaffinity>
6.8881692886

> <CNN_VS>
0.9767294526

> <CNNaffinity_variance>
0.8932952881

$$$$
[H]c1c([H])c([H])c(C([H])([H])[C@@]([H])(C(=O)N([H])[H])N([H])C(=O)[C@@]([H])(N([H])C(=O)[C@@]([H])(N([H])C(=O)[C@@]2([H])N(C(=O)[C@@]([H])(N([H])[H])C([H])([H])c3c([H])n([H])c4c([H])c([H])c([H])c([H])c34)C([H])([H])C([H])([H])C2([H])[H])C([H])([H])c2c([H])c([H])c([H])c([H])c2[H])C([H])([H])C([H])(C([H])([H])[H])C([H])([H])[H])c([H])c1[H]


 60 64  0  0  0  0  0  0  0  0999 V2000
  -88.2145   27.1525   -0.9880 C   0  0  0  0  0  0  0  0  0  0  0  0
  -88.3708   28.5837   -1.1040 N   0  0  0  0  0  0  0  0  0  0  0  0
  -88.9314   29.1956   -2.2768 C   0  0  0  0  0  0  0  0  0  0  0  0
  -89.2512   28.4325   -3.2520 O   0  0  0  0  0  0  0  0  0  0  0  0
  -88.0832   29.2242   -0.3403 H   0  0  0  0  0  0  0  0  0  0  0  0
  -89.1689   30.6113   -2.4296 C   0  0  0  0  0  0  0  0  0  0  0  0
  -89.8391   30.9422   -3.7672 C   0  0  0  0  0  0  0  0  0  0  0  0
  -88.6760   30.9189   -4.7273 C   0  0  0  0  0  0  0  0  0  0  0  0
  -87.4303   31.1444   -3.8541 C   0  0  0  0  0  0  0  0  0  0  0  0
  -87.9830   31.3931   -2.5496 N   0  0  0  0  0  0  0  0  0  0  0  0
  -87.4765   32.2708   -1.5723 C   0  0  0  0  0  0  0  0  0  0  0  0
  -88.0998   32.3811   -0.4548 O   0  0  0  0  0  0  0  0  0  0  0  0
  -86.2633   33.1145   -1.6987 C   0  0  0  0  0  0  0  0  0  0  0  0
  -86.4965   34.2563   -2.5288 N   0  0  0  0  0  0  0  0  0  0  0  0
  -87.5257   34.5128   -2.5452 H   0  0  0  0  0  0  0  0  0  0  0  0
  -86.1093   34.1854   -3.4892 H   0  0  0  0  0  0  0  0  0  0  0  0
  -85.7132   33.5575   -0.3652 C   0  0  0  0  0  0  0  0  0  0  0  0
  -84.5612   32.7020   -0.0097 C   0  0  0  0  0  0  0  0  0  0  0  0
  -83.2367   32.9607   -0.3542 C   0  0  0  0  0  0  0  0  0  0  0  0
  -82.4524   32.0107    0.1793 N   0  0  0  0  0  0  0  0  0  0  0  0
  -83.1996   31.1207    0.8701 C   0  0  0  0  0  0  0  0  0  0  0  0
  -82.8673   29.9797    1.5787 C   0  0  0  0  0  0  0  0  0  0  0  0
  -83.8194   29.2279    2.1900 C   0  0  0  0  0  0  0  0  0  0  0  0
  -85.1374   29.6367    2.0828 C   0  0  0  0  0  0  0  0  0  0  0  0
  -85.4594   30.7752    1.3748 C   0  0  0  0  0  0  0  0  0  0  0  0
  -84.5202   31.5564    0.7486 C   0  0  0  0  0  0  0  0  0  0  0  0
  -81.4166   31.9103    0.1126 H   0  0  0  0  0  0  0  0  0  0  0  0
  -89.8134   25.2086   -1.5046 N   0  0  0  0  0  0  0  0  0  0  0  0
  -89.5812   26.5102   -1.0017 C   0  0  0  0  0  0  0  0  0  0  0  0
  -90.5538   27.1961   -0.5313 O   0  0  0  0  0  0  0  0  0  0  0  0
  -89.0133   24.6735   -1.8997 H   0  0  0  0  0  0  0  0  0  0  0  0
  -91.1462   24.6481   -1.4633 C   0  0  0  0  0  0  0  0  0  0  0  0
  -92.1180   25.3613   -2.3166 C   0  0  0  0  0  0  0  0  0  0  0  0
  -92.0235   25.3479   -3.5943 O   0  0  0  0  0  0  0  0  0  0  0  0
  -93.1747   26.0689   -1.6890 N   0  0  0  0  0  0  0  0  0  0  0  0
  -93.2806   26.0970   -0.6556 H   0  0  0  0  0  0  0  0  0  0  0  0
  -94.1578   26.7906   -2.4705 C   0  0  0  0  0  0  0  0  0  0  0  0
  -93.9791   28.2473   -2.4563 C   0  0  0  0  0  0  0  0  0  0  0  0
  -94.9069   29.1876   -1.9541 N   0  0  0  0  0  0  0  0  0  0  0  0
  -92.8971   28.7436   -2.9357 O   0  0  0  0  0  0  0  0  0  0  0  0
  -94.6225   29.8945   -1.2182 H   0  0  0  0  0  0  0  0  0  0  0  0
  -95.8798   29.1698   -2.3265 H   0  0  0  0  0  0  0  0  0  0  0  0
  -95.5526   26.4527   -1.9353 C   0  0  0  0  0  0  0  0  0  0  0  0
  -95.8940   25.0309   -2.0336 C   0  0  0  0  0  0  0  0  0  0  0  0
  -96.4334   24.2974   -1.0141 C   0  0  0  0  0  0  0  0  0  0  0  0
  -96.7388   22.9420   -1.1816 C   0  0  0  0  0  0  0  0  0  0  0  0
  -96.4930   22.3357   -2.3913 C   0  0  0  0  0  0  0  0  0  0  0  0
  -95.9560   23.0596   -3.4117 C   0  0  0  0  0  0  0  0  0  0  0  0
  -95.6556   24.3924   -3.2467 C   0  0  0  0  0  0  0  0  0  0  0  0
  -91.6293   24.3951   -0.0793 C   0  0  0  0  0  0  0  0  0  0  0  0
  -91.2377   22.5425    1.6072 C   0  0  0  0  0  0  0  0  0  0  0  0
  -91.8680   23.0015    0.3410 C   0  0  0  0  0  0  0  0  0  0  0  0
  -93.3926   22.8752    0.5415 C   0  0  0  0  0  0  0  0  0  0  0  0
  -87.4721   26.6940    0.2378 C   0  0  0  0  0  0  0  0  0  0  0  0
  -88.2371   26.7123    1.4939 C   0  0  0  0  0  0  0  0  0  0  0  0
  -88.8033   25.5217    1.9734 C   0  0  0  0  0  0  0  0  0  0  0  0
  -89.5559   25.4122    3.0923 C   0  0  0  0  0  0  0  0  0  0  0  0
  -89.8023   26.5522    3.8441 C   0  0  0  0  0  0  0  0  0  0  0  0
  -89.2672   27.7506    3.4163 C   0  0  0  0  0  0  0  0  0  0  0  0
  -88.5009   27.8209    2.2630 C   0  0  0  0  0  0  0  0  0  0  0  0
 51 52  1  0  0  0
 52 53  1  0  0  0
 52 50  1  0  0  0
 50 32  1  0  0  0
 32 28  1  0  0  0
 28 29  1  0  0  0
 29 30  2  0  0  0
 29  1  1  0  0  0
  1 54  1  0  0  0
 54 55  1  0  0  0
 55 56  2  0  0  0
 56 57  1  0  0  0
 57 58  2  0  0  0
 58 59  1  0  0  0
 59 60  2  0  0  0
  1  2  1  0  0  0
  2  3  1  0  0  0
  3  4  2  0  0  0
  3  6  1  0  0  0
  6  7  1  0  0  0
  7  8  1  0  0  0
  8  9  1  0  0  0
  9 10  1  0  0  0
 10 11  1  0  0  0
 11 12  2  0  0  0
 11 13  1  0  0  0
 13 14  1  0  0  0
 13 17  1  0  0  0
 17 18  1  0  0  0
 18 19  2  0  0  0
 19 20  1  0  0  0
 20 21  1  0  0  0
 21 22  2  0  0  0
 22 23  1  0  0  0
 23 24  2  0  0  0
 24 25  1  0  0  0
 25 26  2  0  0  0
 32 33  1  0  0  0
 33 34  2  0  0  0
 33 35  1  0  0  0
 35 37  1  0  0  0
 37 43  1  0  0  0
 43 44  1  0  0  0
 44 45  2  0  0  0
 45 46  1  0  0  0
 46 47  2  0  0  0
 47 48  1  0  0  0
 48 49  2  0  0  0
 37 38  1  0  0  0
 38 39  1  0  0  0
 38 40  2  0  0  0
 60 55  1  0  0  0
 10  6  1  0  0  0
 26 18  1  0  0  0
 49 44  1  0  0  0
 26 21  1  0  0  0
 28 31  1  0  0  0
  2  5  1  0  0  0
 14 15  1  0  0  0
 14 16  1  0  0  0
 20 27  1  0  0  0
 35 36  1  0  0  0
 39 41  1  0  0  0
 39 42  1  0  0  0
M  END
> <minimizedAffinity>
-8.41976

> <CNNscore>
0.1353998035

> <CNNaffinity>
7.2218742371

> <CNN_VS>
0.9778403640

> <CNNaffinity_variance>
0.7219709158

$$$$
[H]c1c([H])c([H])c(C([H])([H])[C@@]([H])(C(=O)N([H])[H])N([H])C(=O)[C@@]([H])(N([H])C(=O)[C@@]([H])(N([H])C(=O)[C@@]2([H])N(C(=O)[C@@]([H])(N([H])[H])C([H])([H])c3c([H])n([H])c4c([H])c([H])c([H])c([H])c34)C([H])([H])C([H])([H])C2([H])[H])C([H])([H])c2c([H])c([H])c([H])c([H])c2[H])C([H])([H])C([H])(C([H])([H])[H])C([H])([H])[H])c([H])c1[H]


 60 64  0  0  0  0  0  0  0  0999 V2000
  -91.4246   26.8331    0.4245 C   0  0  0  0  0  0  0  0  0  0  0  0
  -92.4225   26.2614   -0.4494 N   0  0  0  0  0  0  0  0  0  0  0  0
  -92.5986   24.8412   -0.5773 C   0  0  0  0  0  0  0  0  0  0  0  0
  -91.8053   24.0811    0.0774 O   0  0  0  0  0  0  0  0  0  0  0  0
  -93.0515   26.8588   -1.0182 H   0  0  0  0  0  0  0  0  0  0  0  0
  -93.6148   24.2100   -1.3853 C   0  0  0  0  0  0  0  0  0  0  0  0
  -93.2365   22.7761   -1.7706 C   0  0  0  0  0  0  0  0  0  0  0  0
  -92.2904   22.9894   -2.9258 C   0  0  0  0  0  0  0  0  0  0  0  0
  -92.6242   24.3907   -3.4644 C   0  0  0  0  0  0  0  0  0  0  0  0
  -93.7672   24.7804   -2.6828 N   0  0  0  0  0  0  0  0  0  0  0  0
  -94.8608   25.5540   -3.1157 C   0  0  0  0  0  0  0  0  0  0  0  0
  -95.8086   25.8069   -2.2866 O   0  0  0  0  0  0  0  0  0  0  0  0
  -95.0469   26.1238   -4.4723 C   0  0  0  0  0  0  0  0  0  0  0  0
  -96.0079   25.3833   -5.2305 N   0  0  0  0  0  0  0  0  0  0  0  0
  -96.6841   24.8709   -4.5937 H   0  0  0  0  0  0  0  0  0  0  0  0
  -95.6053   24.7467   -5.9448 H   0  0  0  0  0  0  0  0  0  0  0  0
  -95.4300   27.5832   -4.4499 C   0  0  0  0  0  0  0  0  0  0  0  0
  -94.2881   28.3899   -4.9302 C   0  0  0  0  0  0  0  0  0  0  0  0
  -93.8505   28.4494   -6.2511 C   0  0  0  0  0  0  0  0  0  0  0  0
  -92.8319   29.3199   -6.3357 N   0  0  0  0  0  0  0  0  0  0  0  0
  -92.5664   29.8487   -5.1202 C   0  0  0  0  0  0  0  0  0  0  0  0
  -91.6237   30.7662   -4.6914 C   0  0  0  0  0  0  0  0  0  0  0  0
  -91.5449   31.1381   -3.3872 C   0  0  0  0  0  0  0  0  0  0  0  0
  -92.4377   30.5700   -2.4951 C   0  0  0  0  0  0  0  0  0  0  0  0
  -93.3741   29.6567   -2.9312 C   0  0  0  0  0  0  0  0  0  0  0  0
  -93.4799   29.2629   -4.2420 C   0  0  0  0  0  0  0  0  0  0  0  0
  -92.2815   29.5959   -7.1771 H   0  0  0  0  0  0  0  0  0  0  0  0
  -89.8590   28.7873   -0.1516 N   0  0  0  0  0  0  0  0  0  0  0  0
  -90.3579   27.4908   -0.4182 C   0  0  0  0  0  0  0  0  0  0  0  0
  -89.9030   26.8230   -1.4105 O   0  0  0  0  0  0  0  0  0  0  0  0
  -90.2542   29.3220    0.6488 H   0  0  0  0  0  0  0  0  0  0  0  0
  -88.8186   29.3444   -0.9879 C   0  0  0  0  0  0  0  0  0  0  0  0
  -87.4610   28.8816   -0.6358 C   0  0  0  0  0  0  0  0  0  0  0  0
  -86.6463   28.4555   -1.5283 O   0  0  0  0  0  0  0  0  0  0  0  0
  -87.0673   28.9202    0.7261 N   0  0  0  0  0  0  0  0  0  0  0  0
  -87.7033   29.2625    1.4732 H   0  0  0  0  0  0  0  0  0  0  0  0
  -85.7504   28.4774    1.1356 C   0  0  0  0  0  0  0  0  0  0  0  0
  -85.7495   27.2058    1.8687 C   0  0  0  0  0  0  0  0  0  0  0  0
  -86.8629   26.3531    2.0430 N   0  0  0  0  0  0  0  0  0  0  0  0
  -84.6585   26.8047    2.4123 O   0  0  0  0  0  0  0  0  0  0  0  0
  -86.8174   25.3328    1.7614 H   0  0  0  0  0  0  0  0  0  0  0  0
  -87.7316   26.7524    2.4569 H   0  0  0  0  0  0  0  0  0  0  0  0
  -85.1207   29.5619    2.0149 C   0  0  0  0  0  0  0  0  0  0  0  0
  -84.3864   30.5810    1.2601 C   0  0  0  0  0  0  0  0  0  0  0  0
  -83.0259   30.6104    1.1304 C   0  0  0  0  0  0  0  0  0  0  0  0
  -82.3919   31.6136    0.3888 C   0  0  0  0  0  0  0  0  0  0  0  0
  -83.1482   32.5874   -0.2206 C   0  0  0  0  0  0  0  0  0  0  0  0
  -84.5037   32.5649   -0.0963 C   0  0  0  0  0  0  0  0  0  0  0  0
  -85.1270   31.5783    0.6331 C   0  0  0  0  0  0  0  0  0  0  0  0
  -88.9303   30.8186   -1.1528 C   0  0  0  0  0  0  0  0  0  0  0  0
  -87.8685   31.4978   -3.3531 C   0  0  0  0  0  0  0  0  0  0  0  0
  -87.8545   31.5321   -1.8665 C   0  0  0  0  0  0  0  0  0  0  0  0
  -87.9902   33.0151   -1.4629 C   0  0  0  0  0  0  0  0  0  0  0  0
  -90.7710   25.8560    1.3638 C   0  0  0  0  0  0  0  0  0  0  0  0
  -90.4867   26.3601    2.7159 C   0  0  0  0  0  0  0  0  0  0  0  0
  -90.0925   25.4609    3.7178 C   0  0  0  0  0  0  0  0  0  0  0  0
  -89.8373   25.7912    5.0048 C   0  0  0  0  0  0  0  0  0  0  0  0
  -89.9675   27.1176    5.3908 C   0  0  0  0  0  0  0  0  0  0  0  0
  -90.3525   28.0439    4.4426 C   0  0  0  0  0  0  0  0  0  0  0  0
  -90.6052   27.6647    3.1332 C   0  0  0  0  0  0  0  0  0  0  0  0
 51 52  1  0  0  0
 52 53  1  0  0  0
 52 50  1  0  0  0
 50 32  1  0  0  0
 32 28  1  0  0  0
 28 29  1  0  0  0
 29 30  2  0  0  0
 29  1  1  0  0  0
  1 54  1  0  0  0
 54 55  1  0  0  0
 55 56  2  0  0  0
 56 57  1  0  0  0
 57 58  2  0  0  0
 58 59  1  0  0  0
 59 60  2  0  0  0
  1  2  1  0  0  0
  2  3  1  0  0  0
  3  4  2  0  0  0
  3  6  1  0  0  0
  6  7  1  0  0  0
  7  8  1  0  0  0
  8  9  1  0  0  0
  9 10  1  0  0  0
 10 11  1  0  0  0
 11 12  2  0  0  0
 11 13  1  0  0  0
 13 14  1  0  0  0
 13 17  1  0  0  0
 17 18  1  0  0  0
 18 19  2  0  0  0
 19 20  1  0  0  0
 20 21  1  0  0  0
 21 22  2  0  0  0
 22 23  1  0  0  0
 23 24  2  0  0  0
 24 25  1  0  0  0
 25 26  2  0  0  0
 32 33  1  0  0  0
 33 34  2  0  0  0
 33 35  1  0  0  0
 35 37  1  0  0  0
 37 43  1  0  0  0
 43 44  1  0  0  0
 44 45  2  0  0  0
 45 46  1  0  0  0
 46 47  2  0  0  0
 47 48  1  0  0  0
 48 49  2  0  0  0
 37 38  1  0  0  0
 38 39  1  0  0  0
 38 40  2  0  0  0
 60 55  1  0  0  0
 10  6  1  0  0  0
 26 18  1  0  0  0
 49 44  1  0  0  0
 26 21  1  0  0  0
 28 31  1  0  0  0
  2  5  1  0  0  0
 14 15  1  0  0  0
 14 16  1  0  0  0
 20 27  1  0  0  0
 35 36  1  0  0  0
 39 41  1  0  0  0
 39 42  1  0  0  0
M  END
> <minimizedAffinity>
-9.51174

> <CNNscore>
0.1326834857

> <CNNaffinity>
7.3608503342

> <CNN_VS>
0.9766632915

> <CNNaffinity_variance>
0.4398363233

$$$$
[H]c1c([H])c([H])c(C([H])([H])[C@@]([H])(C(=O)N([H])[H])N([H])C(=O)[C@@]([H])(N([H])C(=O)[C@@]([H])(N([H])C(=O)[C@@]2([H])N(C(=O)[C@@]([H])(N([H])[H])C([H])([H])c3c([H])n([H])c4c([H])c([H])c([H])c([H])c34)C([H])([H])C([H])([H])C2([H])[H])C([H])([H])c2c([H])c([H])c([H])c([H])c2[H])C([H])([H])C([H])(C([H])([H])[H])C([H])([H])[H])c([H])c1[H]


 60 64  0  0  0  0  0  0  0  0999 V2000
  -87.8850   28.4450   -0.4969 C   0  0  0  0  0  0  0  0  0  0  0  0
  -88.2570   29.7475   -0.9982 N   0  0  0  0  0  0  0  0  0  0  0  0
  -88.8897   29.9187   -2.2767 C   0  0  0  0  0  0  0  0  0  0  0  0
  -89.0766   28.8761   -2.9935 O   0  0  0  0  0  0  0  0  0  0  0  0
  -88.0805   30.6103   -0.4499 H   0  0  0  0  0  0  0  0  0  0  0  0
  -89.3392   31.1841   -2.8067 C   0  0  0  0  0  0  0  0  0  0  0  0
  -89.8542   31.0566   -4.2442 C   0  0  0  0  0  0  0  0  0  0  0  0
  -88.5770   31.0457   -5.0466 C   0  0  0  0  0  0  0  0  0  0  0  0
  -87.5279   31.7110   -4.1401 C   0  0  0  0  0  0  0  0  0  0  0  0
  -88.2984   32.1381   -3.0029 N   0  0  0  0  0  0  0  0  0  0  0  0
  -88.0955   33.3006   -2.2352 C   0  0  0  0  0  0  0  0  0  0  0  0
  -88.8841   33.5387   -1.2498 O   0  0  0  0  0  0  0  0  0  0  0  0
  -87.0376   34.3176   -2.4507 C   0  0  0  0  0  0  0  0  0  0  0  0
  -85.7301   33.7720   -2.2519 N   0  0  0  0  0  0  0  0  0  0  0  0
  -85.7265   32.7226   -2.4069 H   0  0  0  0  0  0  0  0  0  0  0  0
  -85.2843   34.0221   -1.3484 H   0  0  0  0  0  0  0  0  0  0  0  0
  -87.1167   34.9701   -3.8090 C   0  0  0  0  0  0  0  0  0  0  0  0
  -88.1222   36.0530   -3.7670 C   0  0  0  0  0  0  0  0  0  0  0  0
  -87.8542   37.3808   -3.4431 C   0  0  0  0  0  0  0  0  0  0  0  0
  -88.9842   38.0962   -3.5601 N   0  0  0  0  0  0  0  0  0  0  0  0
  -90.0041   37.2993   -3.9502 C   0  0  0  0  0  0  0  0  0  0  0  0
  -91.3416   37.5545   -4.1961 C   0  0  0  0  0  0  0  0  0  0  0  0
  -92.1901   36.5630   -4.5735 C   0  0  0  0  0  0  0  0  0  0  0  0
  -91.6769   35.2843   -4.7048 C   0  0  0  0  0  0  0  0  0  0  0  0
  -90.3427   35.0391   -4.4581 C   0  0  0  0  0  0  0  0  0  0  0  0
  -89.4606   36.0198   -4.0777 C   0  0  0  0  0  0  0  0  0  0  0  0
  -89.1283   39.1152   -3.3920 H   0  0  0  0  0  0  0  0  0  0  0  0
  -89.2267   26.4687   -1.4436 N   0  0  0  0  0  0  0  0  0  0  0  0
  -89.0965   27.5442   -0.5339 C   0  0  0  0  0  0  0  0  0  0  0  0
  -90.0310   27.7871    0.3059 O   0  0  0  0  0  0  0  0  0  0  0  0
  -88.4644   26.2983   -2.1310 H   0  0  0  0  0  0  0  0  0  0  0  0
  -90.4060   25.6322   -1.4051 C   0  0  0  0  0  0  0  0  0  0  0  0
  -90.2464   24.4168   -0.5813 C   0  0  0  0  0  0  0  0  0  0  0  0
  -89.7240   23.3485   -1.0582 O   0  0  0  0  0  0  0  0  0  0  0  0
  -90.6843   24.4537    0.7671 N   0  0  0  0  0  0  0  0  0  0  0  0
  -91.1095   25.3051    1.1845 H   0  0  0  0  0  0  0  0  0  0  0  0
  -90.5579   23.2937    1.6253 C   0  0  0  0  0  0  0  0  0  0  0  0
  -91.4369   22.1783    1.2545 C   0  0  0  0  0  0  0  0  0  0  0  0
  -91.0178   20.9430    0.7109 N   0  0  0  0  0  0  0  0  0  0  0  0
  -92.7026   22.3037    1.4248 O   0  0  0  0  0  0  0  0  0  0  0  0
  -91.2887   20.0264    1.1679 H   0  0  0  0  0  0  0  0  0  0  0  0
  -90.4353   20.9549   -0.1527 H   0  0  0  0  0  0  0  0  0  0  0  0
  -90.8648   23.7146    3.0656 C   0  0  0  0  0  0  0  0  0  0  0  0
  -90.3336   25.0334    3.4210 C   0  0  0  0  0  0  0  0  0  0  0  0
  -89.1442   25.5312    2.9669 C   0  0  0  0  0  0  0  0  0  0  0  0
  -88.7014   26.8036    3.3454 C   0  0  0  0  0  0  0  0  0  0  0  0
  -89.4742   27.5680    4.1880 C   0  0  0  0  0  0  0  0  0  0  0  0
  -90.6601   27.0794    4.6444 C   0  0  0  0  0  0  0  0  0  0  0  0
  -91.0953   25.8280    4.2722 C   0  0  0  0  0  0  0  0  0  0  0  0
  -90.9838   25.3772   -2.7520 C   0  0  0  0  0  0  0  0  0  0  0  0
  -93.0444   25.8010   -4.1677 C   0  0  0  0  0  0  0  0  0  0  0  0
  -91.9692   26.3341   -3.2897 C   0  0  0  0  0  0  0  0  0  0  0  0
  -92.6731   26.9508   -2.0629 C   0  0  0  0  0  0  0  0  0  0  0  0
  -87.3167   28.4415    0.8964 C   0  0  0  0  0  0  0  0  0  0  0  0
  -85.9411   28.9451    1.0280 C   0  0  0  0  0  0  0  0  0  0  0  0
  -85.1100   28.4253    2.0315 C   0  0  0  0  0  0  0  0  0  0  0  0
  -83.8420   28.8272    2.2788 C   0  0  0  0  0  0  0  0  0  0  0  0
  -83.2957   29.8312    1.4920 C   0  0  0  0  0  0  0  0  0  0  0  0
  -84.0717   30.3768    0.4892 C   0  0  0  0  0  0  0  0  0  0  0  0
  -85.3677   29.9370    0.2680 C   0  0  0  0  0  0  0  0  0  0  0  0
 51 52  1  0  0  0
 52 53  1  0  0  0
 52 50  1  0  0  0
 50 32  1  0  0  0
 32 28  1  0  0  0
 28 29  1  0  0  0
 29 30  2  0  0  0
 29  1  1  0  0  0
  1 54  1  0  0  0
 54 55  1  0  0  0
 55 56  2  0  0  0
 56 57  1  0  0  0
 57 58  2  0  0  0
 58 59  1  0  0  0
 59 60  2  0  0  0
  1  2  1  0  0  0
  2  3  1  0  0  0
  3  4  2  0  0  0
  3  6  1  0  0  0
  6  7  1  0  0  0
  7  8  1  0  0  0
  8  9  1  0  0  0
  9 10  1  0  0  0
 10 11  1  0  0  0
 11 12  2  0  0  0
 11 13  1  0  0  0
 13 14  1  0  0  0
 13 17  1  0  0  0
 17 18  1  0  0  0
 18 19  2  0  0  0
 19 20  1  0  0  0
 20 21  1  0  0  0
 21 22  2  0  0  0
 22 23  1  0  0  0
 23 24  2  0  0  0
 24 25  1  0  0  0
 25 26  2  0  0  0
 32 33  1  0  0  0
 33 34  2  0  0  0
 33 35  1  0  0  0
 35 37  1  0  0  0
 37 43  1  0  0  0
 43 44  1  0  0  0
 44 45  2  0  0  0
 45 46  1  0  0  0
 46 47  2  0  0  0
 47 48  1  0  0  0
 48 49  2  0  0  0
 37 38  1  0  0  0
 38 39  1  0  0  0
 38 40  2  0  0  0
 60 55  1  0  0  0
 10  6  1  0  0  0
 26 18  1  0  0  0
 49 44  1  0  0  0
 26 21  1  0  0  0
 28 31  1  0  0  0
  2  5  1  0  0  0
 14 15  1  0  0  0
 14 16  1  0  0  0
 20 27  1  0  0  0
 35 36  1  0  0  0
 39 41  1  0  0  0
 39 42  1  0  0  0
M  END
> <minimizedAffinity>
-9.22131

> <CNNscore>
0.1321083009

> <CNNaffinity>
7.1303491592

> <CNN_VS>
0.9419783354

> <CNNaffinity_variance>
0.8912206888

$$$$
[H]c1c([H])c([H])c(C([H])([H])[C@@]([H])(C(=O)N([H])[H])N([H])C(=O)[C@@]([H])(N([H])C(=O)[C@@]([H])(N([H])C(=O)[C@@]2([H])N(C(=O)[C@@]([H])(N([H])[H])C([H])([H])c3c([H])n([H])c4c([H])c([H])c([H])c([H])c34)C([H])([H])C([H])([H])C2([H])[H])C([H])([H])c2c([H])c([H])c([H])c([H])c2[H])C([H])([H])C([H])(C([H])([H])[H])C([H])([H])[H])c([H])c1[H]


 60 64  0  0  0  0  0  0  0  0999 V2000
  -91.7315   28.5325   -2.9795 C   0  0  0  0  0  0  0  0  0  0  0  0
  -91.1680   29.7591   -3.4936 N   0  0  0  0  0  0  0  0  0  0  0  0
  -90.5874   30.7504   -2.6308 C   0  0  0  0  0  0  0  0  0  0  0  0
  -90.6241   30.5382   -1.3701 O   0  0  0  0  0  0  0  0  0  0  0  0
  -91.1616   29.9689   -4.5096 H   0  0  0  0  0  0  0  0  0  0  0  0
  -89.9558   31.9659   -3.0863 C   0  0  0  0  0  0  0  0  0  0  0  0
  -90.0427   32.1255   -4.6077 C   0  0  0  0  0  0  0  0  0  0  0  0
  -88.9285   31.2314   -5.0918 C   0  0  0  0  0  0  0  0  0  0  0  0
  -87.9745   31.0943   -3.8933 C   0  0  0  0  0  0  0  0  0  0  0  0
  -88.5405   31.9874   -2.9180 N   0  0  0  0  0  0  0  0  0  0  0  0
  -87.8370   32.7721   -1.9845 C   0  0  0  0  0  0  0  0  0  0  0  0
  -88.4998   33.5263   -1.1836 O   0  0  0  0  0  0  0  0  0  0  0  0
  -86.3637   32.8286   -1.8229 C   0  0  0  0  0  0  0  0  0  0  0  0
  -85.7541   33.6621   -2.8131 N   0  0  0  0  0  0  0  0  0  0  0  0
  -86.4405   34.3821   -3.1817 H   0  0  0  0  0  0  0  0  0  0  0  0
  -85.2888   33.1520   -3.5882 H   0  0  0  0  0  0  0  0  0  0  0  0
  -85.9397   33.2786   -0.4464 C   0  0  0  0  0  0  0  0  0  0  0  0
  -84.6630   32.6213   -0.0953 C   0  0  0  0  0  0  0  0  0  0  0  0
  -83.3991   33.0925   -0.4422 C   0  0  0  0  0  0  0  0  0  0  0  0
  -82.4694   32.2817    0.0876 N   0  0  0  0  0  0  0  0  0  0  0  0
  -83.0602   31.2809    0.7781 C   0  0  0  0  0  0  0  0  0  0  0  0
  -82.5450   30.2079    1.4836 C   0  0  0  0  0  0  0  0  0  0  0  0
  -83.3606   29.3101    2.0953 C   0  0  0  0  0  0  0  0  0  0  0  0
  -84.7278   29.4994    1.9918 C   0  0  0  0  0  0  0  0  0  0  0  0
  -85.2325   30.5716    1.2871 C   0  0  0  0  0  0  0  0  0  0  0  0
  -84.4345   31.4963    0.6604 C   0  0  0  0  0  0  0  0  0  0  0  0
  -81.4313   32.3512    0.0184 H   0  0  0  0  0  0  0  0  0  0  0  0
  -90.7780   27.5503   -0.8051 N   0  0  0  0  0  0  0  0  0  0  0  0
  -90.6701   27.8006   -2.1931 C   0  0  0  0  0  0  0  0  0  0  0  0
  -89.6387   27.4001   -2.8361 O   0  0  0  0  0  0  0  0  0  0  0  0
  -91.6155   27.8997   -0.2961 H   0  0  0  0  0  0  0  0  0  0  0  0
  -89.7323   26.8210   -0.1217 C   0  0  0  0  0  0  0  0  0  0  0  0
  -90.1007   25.4317    0.2179 C   0  0  0  0  0  0  0  0  0  0  0  0
  -89.2628   24.4694    0.1016 O   0  0  0  0  0  0  0  0  0  0  0  0
  -91.4154   25.1775    0.6849 N   0  0  0  0  0  0  0  0  0  0  0  0
  -92.1173   25.9362    0.7929 H   0  0  0  0  0  0  0  0  0  0  0  0
  -91.8385   23.8363    1.0316 C   0  0  0  0  0  0  0  0  0  0  0  0
  -91.2250   23.3154    2.2591 C   0  0  0  0  0  0  0  0  0  0  0  0
  -90.0798   22.4899    2.3230 N   0  0  0  0  0  0  0  0  0  0  0  0
  -91.7507   23.6161    3.3904 O   0  0  0  0  0  0  0  0  0  0  0  0
  -89.2416   22.7650    2.9097 H   0  0  0  0  0  0  0  0  0  0  0  0
  -90.0795   21.6016    1.7788 H   0  0  0  0  0  0  0  0  0  0  0  0
  -91.5005   22.9000   -0.1325 C   0  0  0  0  0  0  0  0  0  0  0  0
  -92.4389   22.9907   -1.2544 C   0  0  0  0  0  0  0  0  0  0  0  0
  -93.7698   22.6902   -1.1699 C   0  0  0  0  0  0  0  0  0  0  0  0
  -94.6088   22.8045   -2.2840 C   0  0  0  0  0  0  0  0  0  0  0  0
  -94.0881   23.2263   -3.4851 C   0  0  0  0  0  0  0  0  0  0  0  0
  -92.7637   23.5278   -3.5772 C   0  0  0  0  0  0  0  0  0  0  0  0
  -91.9387   23.4151   -2.4815 C   0  0  0  0  0  0  0  0  0  0  0  0
  -89.1350   27.5811    1.0089 C   0  0  0  0  0  0  0  0  0  0  0  0
  -86.9389   26.5694    1.7727 C   0  0  0  0  0  0  0  0  0  0  0  0
  -87.6656   27.6767    1.0966 C   0  0  0  0  0  0  0  0  0  0  0  0
  -87.1560   27.7084   -0.3594 C   0  0  0  0  0  0  0  0  0  0  0  0
  -92.2906   27.6057   -4.0247 C   0  0  0  0  0  0  0  0  0  0  0  0
  -93.6685   27.1432   -3.7992 C   0  0  0  0  0  0  0  0  0  0  0  0
  -94.0904   26.8444   -2.4952 C   0  0  0  0  0  0  0  0  0  0  0  0
  -95.3156   26.3786   -2.1601 C   0  0  0  0  0  0  0  0  0  0  0  0
  -96.2481   26.1716   -3.1667 C   0  0  0  0  0  0  0  0  0  0  0  0
  -95.8838   26.4510   -4.4685 C   0  0  0  0  0  0  0  0  0  0  0  0
  -94.6172   26.9270   -4.7705 C   0  0  0  0  0  0  0  0  0  0  0  0
 51 52  1  0  0  0
 52 53  1  0  0  0
 52 50  1  0  0  0
 50 32  1  0  0  0
 32 28  1  0  0  0
 28 29  1  0  0  0
 29 30  2  0  0  0
 29  1  1  0  0  0
  1 54  1  0  0  0
 54 55  1  0  0  0
 55 56  2  0  0  0
 56 57  1  0  0  0
 57 58  2  0  0  0
 58 59  1  0  0  0
 59 60  2  0  0  0
  1  2  1  0  0  0
  2  3  1  0  0  0
  3  4  2  0  0  0
  3  6  1  0  0  0
  6  7  1  0  0  0
  7  8  1  0  0  0
  8  9  1  0  0  0
  9 10  1  0  0  0
 10 11  1  0  0  0
 11 12  2  0  0  0
 11 13  1  0  0  0
 13 14  1  0  0  0
 13 17  1  0  0  0
 17 18  1  0  0  0
 18 19  2  0  0  0
 19 20  1  0  0  0
 20 21  1  0  0  0
 21 22  2  0  0  0
 22 23  1  0  0  0
 23 24  2  0  0  0
 24 25  1  0  0  0
 25 26  2  0  0  0
 32 33  1  0  0  0
 33 34  2  0  0  0
 33 35  1  0  0  0
 35 37  1  0  0  0
 37 43  1  0  0  0
 43 44  1  0  0  0
 44 45  2  0  0  0
 45 46  1  0  0  0
 46 47  2  0  0  0
 47 48  1  0  0  0
 48 49  2  0  0  0
 37 38  1  0  0  0
 38 39  1  0  0  0
 38 40  2  0  0  0
 60 55  1  0  0  0
 10  6  1  0  0  0
 26 18  1  0  0  0
 49 44  1  0  0  0
 26 21  1  0  0  0
 28 31  1  0  0  0
  2  5  1  0  0  0
 14 15  1  0  0  0
 14 16  1  0  0  0
 20 27  1  0  0  0
 35 36  1  0  0  0
 39 41  1  0  0  0
 39 42  1  0  0  0
M  END
> <minimizedAffinity>
-9.35945

> <CNNscore>
0.1238480583

> <CNNaffinity>
6.9781122208

> <CNN_VS>
0.8642256260

> <CNNaffinity_variance>
1.0689895153

$$$$
[H]c1c([H])c([H])c(C([H])([H])[C@@]([H])(C(=O)N([H])[H])N([H])C(=O)[C@@]([H])(N([H])C(=O)[C@@]([H])(N([H])C(=O)[C@@]2([H])N(C(=O)[C@@]([H])(N([H])[H])C([H])([H])c3c([H])n([H])c4c([H])c([H])c([H])c([H])c34)C([H])([H])C([H])([H])C2([H])[H])C([H])([H])c2c([H])c([H])c([H])c([H])c2[H])C([H])([H])C([H])(C([H])([H])[H])C([H])([H])[H])c([H])c1[H]


 60 64  0  0  0  0  0  0  0  0999 V2000
  -90.8583   28.5096   -1.2074 C   0  0  0  0  0  0  0  0  0  0  0  0
  -90.3400   29.8390   -1.4315 N   0  0  0  0  0  0  0  0  0  0  0  0
  -90.1976   30.3879   -2.7517 C   0  0  0  0  0  0  0  0  0  0  0  0
  -90.5022   29.6404   -3.7438 O   0  0  0  0  0  0  0  0  0  0  0  0
  -90.0515   30.4486   -0.6433 H   0  0  0  0  0  0  0  0  0  0  0  0
  -89.7440   31.7280   -3.0384 C   0  0  0  0  0  0  0  0  0  0  0  0
  -89.9334   32.0974   -4.5134 C   0  0  0  0  0  0  0  0  0  0  0  0
  -88.7476   31.4345   -5.1687 C   0  0  0  0  0  0  0  0  0  0  0  0
  -87.7194   31.2456   -4.0407 C   0  0  0  0  0  0  0  0  0  0  0  0
  -88.3346   31.9055   -2.9203 N   0  0  0  0  0  0  0  0  0  0  0  0
  -87.6809   32.6277   -1.9039 C   0  0  0  0  0  0  0  0  0  0  0  0
  -88.3849   33.1646   -0.9735 O   0  0  0  0  0  0  0  0  0  0  0  0
  -86.2187   32.8480   -1.7892 C   0  0  0  0  0  0  0  0  0  0  0  0
  -85.7483   33.7936   -2.7543 N   0  0  0  0  0  0  0  0  0  0  0  0
  -86.5269   34.4454   -3.0614 H   0  0  0  0  0  0  0  0  0  0  0  0
  -85.2585   33.3791   -3.5703 H   0  0  0  0  0  0  0  0  0  0  0  0
  -85.7952   33.2776   -0.4060 C   0  0  0  0  0  0  0  0  0  0  0  0
  -84.5892   32.5186   -0.0125 C   0  0  0  0  0  0  0  0  0  0  0  0
  -83.2792   32.8925   -0.3022 C   0  0  0  0  0  0  0  0  0  0  0  0
  -82.4382   32.0059    0.2539 N   0  0  0  0  0  0  0  0  0  0  0  0
  -83.1332   31.0479    0.9071 C   0  0  0  0  0  0  0  0  0  0  0  0
  -82.7328   29.9309    1.6186 C   0  0  0  0  0  0  0  0  0  0  0  0
  -83.6405   29.0940    2.1855 C   0  0  0  0  0  0  0  0  0  0  0  0
  -84.9833   29.3912    2.0296 C   0  0  0  0  0  0  0  0  0  0  0  0
  -85.3733   30.5066    1.3191 C   0  0  0  0  0  0  0  0  0  0  0  0
  -84.4805   31.3717    0.7371 C   0  0  0  0  0  0  0  0  0  0  0  0
  -81.3959   31.9944    0.2274 H   0  0  0  0  0  0  0  0  0  0  0  0
  -92.7623   27.4701   -2.5844 N   0  0  0  0  0  0  0  0  0  0  0  0
  -92.2889   28.4566   -1.6879 C   0  0  0  0  0  0  0  0  0  0  0  0
  -93.0864   29.3558   -1.2485 O   0  0  0  0  0  0  0  0  0  0  0  0
  -92.0946   26.7583   -2.9450 H   0  0  0  0  0  0  0  0  0  0  0  0
  -94.1528   27.4671   -2.9827 C   0  0  0  0  0  0  0  0  0  0  0  0
  -94.8108   26.1532   -2.8352 C   0  0  0  0  0  0  0  0  0  0  0  0
  -95.3841   25.8104   -1.7418 O   0  0  0  0  0  0  0  0  0  0  0  0
  -94.8001   25.2655   -3.9412 N   0  0  0  0  0  0  0  0  0  0  0  0
  -94.3461   25.5146   -4.8423 H   0  0  0  0  0  0  0  0  0  0  0  0
  -95.4255   23.9617   -3.8585 C   0  0  0  0  0  0  0  0  0  0  0  0
  -94.5529   22.8542   -4.2664 C   0  0  0  0  0  0  0  0  0  0  0  0
  -94.8988   21.8185   -5.1634 N   0  0  0  0  0  0  0  0  0  0  0  0
  -93.3656   22.7906   -3.7835 O   0  0  0  0  0  0  0  0  0  0  0  0
  -94.3050   21.6155   -6.0169 H   0  0  0  0  0  0  0  0  0  0  0  0
  -95.7535   21.2569   -4.9645 H   0  0  0  0  0  0  0  0  0  0  0  0
  -96.6777   23.9625   -4.7405 C   0  0  0  0  0  0  0  0  0  0  0  0
  -96.7665   25.1174   -5.6383 C   0  0  0  0  0  0  0  0  0  0  0  0
  -96.1334   25.2023   -6.8468 C   0  0  0  0  0  0  0  0  0  0  0  0
  -96.2676   26.3368   -7.6550 C   0  0  0  0  0  0  0  0  0  0  0  0
  -97.0491   27.3850   -7.2285 C   0  0  0  0  0  0  0  0  0  0  0  0
  -97.6831   27.3079   -6.0262 C   0  0  0  0  0  0  0  0  0  0  0  0
  -97.5508   26.1922   -5.2314 C   0  0  0  0  0  0  0  0  0  0  0  0
  -94.3821   28.1126   -4.3032 C   0  0  0  0  0  0  0  0  0  0  0  0
  -93.0934   27.3688   -6.3565 C   0  0  0  0  0  0  0  0  0  0  0  0
  -93.2308   28.3008   -5.2059 C   0  0  0  0  0  0  0  0  0  0  0  0
  -93.3895   29.7137   -5.8052 C   0  0  0  0  0  0  0  0  0  0  0  0
  -90.8059   28.0424    0.2220 C   0  0  0  0  0  0  0  0  0  0  0  0
  -89.5042   27.5360    0.6828 C   0  0  0  0  0  0  0  0  0  0  0  0
  -88.6427   26.9149   -0.2336 C   0  0  0  0  0  0  0  0  0  0  0  0
  -87.4386   26.3777    0.0697 C   0  0  0  0  0  0  0  0  0  0  0  0
  -86.9963   26.4324    1.3838 C   0  0  0  0  0  0  0  0  0  0  0  0
  -87.8062   27.0341    2.3259 C   0  0  0  0  0  0  0  0  0  0  0  0
  -89.0343   27.5728    1.9743 C   0  0  0  0  0  0  0  0  0  0  0  0
 51 52  1  0  0  0
 52 53  1  0  0  0
 52 50  1  0  0  0
 50 32  1  0  0  0
 32 28  1  0  0  0
 28 29  1  0  0  0
 29 30  2  0  0  0
 29  1  1  0  0  0
  1 54  1  0  0  0
 54 55  1  0  0  0
 55 56  2  0  0  0
 56 57  1  0  0  0
 57 58  2  0  0  0
 58 59  1  0  0  0
 59 60  2  0  0  0
  1  2  1  0  0  0
  2  3  1  0  0  0
  3  4  2  0  0  0
  3  6  1  0  0  0
  6  7  1  0  0  0
  7  8  1  0  0  0
  8  9  1  0  0  0
  9 10  1  0  0  0
 10 11  1  0  0  0
 11 12  2  0  0  0
 11 13  1  0  0  0
 13 14  1  0  0  0
 13 17  1  0  0  0
 17 18  1  0  0  0
 18 19  2  0  0  0
 19 20  1  0  0  0
 20 21  1  0  0  0
 21 22  2  0  0  0
 22 23  1  0  0  0
 23 24  2  0  0  0
 24 25  1  0  0  0
 25 26  2  0  0  0
 32 33  1  0  0  0
 33 34  2  0  0  0
 33 35  1  0  0  0
 35 37  1  0  0  0
 37 43  1  0  0  0
 43 44  1  0  0  0
 44 45  2  0  0  0
 45 46  1  0  0  0
 46 47  2  0  0  0
 47 48  1  0  0  0
 48 49  2  0  0  0
 37 38  1  0  0  0
 38 39  1  0  0  0
 38 40  2  0  0  0
 60 55  1  0  0  0
 10  6  1  0  0  0
 26 18  1  0  0  0
 49 44  1  0  0  0
 26 21  1  0  0  0
 28 31  1  0  0  0
  2  5  1  0  0  0
 14 15  1  0  0  0
 14 16  1  0  0  0
 20 27  1  0  0  0
 35 36  1  0  0  0
 39 41  1  0  0  0
 39 42  1  0  0  0
M  END
> <minimizedAffinity>
-8.73365

> <CNNscore>
0.1200976595

> <CNNaffinity>
6.5278177261

> <CNN_VS>
0.7839756012

> <CNNaffinity_variance>
1.0651608706

$$$$
[H]c1c([H])c([H])c(C([H])([H])[C@@]([H])(C(=O)N([H])[H])N([H])C(=O)[C@@]([H])(N([H])C(=O)[C@@]([H])(N([H])C(=O)[C@@]2([H])N(C(=O)[C@@]([H])(N([H])[H])C([H])([H])c3c([H])n([H])c4c([H])c([H])c([H])c([H])c34)C([H])([H])C([H])([H])C2([H])[H])C([H])([H])c2c([H])c([H])c([H])c([H])c2[H])C([H])([H])C([H])(C([H])([H])[H])C([H])([H])[H])c([H])c1[H]


 60 64  0  0  0  0  0  0  0  0999 V2000
  -90.9668   28.5448   -1.1998 C   0  0  0  0  0  0  0  0  0  0  0  0
  -90.4612   29.8814   -1.4098 N   0  0  0  0  0  0  0  0  0  0  0  0
  -90.1794   30.3910   -2.7233 C   0  0  0  0  0  0  0  0  0  0  0  0
  -90.3456   29.6026   -3.7166 O   0  0  0  0  0  0  0  0  0  0  0  0
  -90.2833   30.5249   -0.6158 H   0  0  0  0  0  0  0  0  0  0  0  0
  -89.7309   31.7342   -3.0034 C   0  0  0  0  0  0  0  0  0  0  0  0
  -89.9373   32.1162   -4.4728 C   0  0  0  0  0  0  0  0  0  0  0  0
  -88.7579   31.4608   -5.1471 C   0  0  0  0  0  0  0  0  0  0  0  0
  -87.7169   31.2636   -4.0324 C   0  0  0  0  0  0  0  0  0  0  0  0
  -88.3205   31.9128   -2.8995 N   0  0  0  0  0  0  0  0  0  0  0  0
  -87.6565   32.6270   -1.8841 C   0  0  0  0  0  0  0  0  0  0  0  0
  -88.3508   33.1548   -0.9412 O   0  0  0  0  0  0  0  0  0  0  0  0
  -86.1934   32.8485   -1.7838 C   0  0  0  0  0  0  0  0  0  0  0  0
  -85.7319   33.7879   -2.7592 N   0  0  0  0  0  0  0  0  0  0  0  0
  -86.5134   34.4375   -3.0636 H   0  0  0  0  0  0  0  0  0  0  0  0
  -85.2492   33.3683   -3.5767 H   0  0  0  0  0  0  0  0  0  0  0  0
  -85.7578   33.2872   -0.4073 C   0  0  0  0  0  0  0  0  0  0  0  0
  -84.5702   32.5047   -0.0041 C   0  0  0  0  0  0  0  0  0  0  0  0
  -83.2512   32.8480   -0.2912 C   0  0  0  0  0  0  0  0  0  0  0  0
  -82.4318   31.9471    0.2739 N   0  0  0  0  0  0  0  0  0  0  0  0
  -83.1500   31.0088    0.9306 C   0  0  0  0  0  0  0  0  0  0  0  0
  -82.7767   29.8881    1.6511 C   0  0  0  0  0  0  0  0  0  0  0  0
  -83.7045   29.0750    2.2199 C   0  0  0  0  0  0  0  0  0  0  0  0
  -85.0399   29.4003    2.0569 C   0  0  0  0  0  0  0  0  0  0  0  0
  -85.4029   30.5192    1.3376 C   0  0  0  0  0  0  0  0  0  0  0  0
  -84.4892   31.3608    0.7534 C   0  0  0  0  0  0  0  0  0  0  0  0
  -81.3899   31.9126    0.2514 H   0  0  0  0  0  0  0  0  0  0  0  0
  -92.7721   27.4441   -2.6597 N   0  0  0  0  0  0  0  0  0  0  0  0
  -92.3658   28.4589   -1.7619 C   0  0  0  0  0  0  0  0  0  0  0  0
  -93.1999   29.3565   -1.3926 O   0  0  0  0  0  0  0  0  0  0  0  0
  -92.0747   26.7338   -2.9625 H   0  0  0  0  0  0  0  0  0  0  0  0
  -94.1365   27.4107   -3.1386 C   0  0  0  0  0  0  0  0  0  0  0  0
  -94.9069   26.2457   -2.6586 C   0  0  0  0  0  0  0  0  0  0  0  0
  -96.0934   26.0078   -3.0799 O   0  0  0  0  0  0  0  0  0  0  0  0
  -94.3015   25.3802   -1.7121 N   0  0  0  0  0  0  0  0  0  0  0  0
  -93.3402   25.5440   -1.3528 H   0  0  0  0  0  0  0  0  0  0  0  0
  -95.0062   24.2227   -1.2007 C   0  0  0  0  0  0  0  0  0  0  0  0
  -95.6484   24.4419    0.1008 C   0  0  0  0  0  0  0  0  0  0  0  0
  -96.4114   25.5745    0.4641 N   0  0  0  0  0  0  0  0  0  0  0  0
  -95.5245   23.5463    1.0115 O   0  0  0  0  0  0  0  0  0  0  0  0
  -97.3993   25.4709    0.8324 H   0  0  0  0  0  0  0  0  0  0  0  0
  -95.9781   26.5163    0.3618 H   0  0  0  0  0  0  0  0  0  0  0  0
  -94.0160   23.0604   -1.0803 C   0  0  0  0  0  0  0  0  0  0  0  0
  -92.6158   23.4845   -0.9949 C   0  0  0  0  0  0  0  0  0  0  0  0
  -91.8257   23.7512   -2.0781 C   0  0  0  0  0  0  0  0  0  0  0  0
  -90.4958   24.1569   -1.9204 C   0  0  0  0  0  0  0  0  0  0  0  0
  -89.9726   24.2903   -0.6554 C   0  0  0  0  0  0  0  0  0  0  0  0
  -90.7532   24.0268    0.4284 C   0  0  0  0  0  0  0  0  0  0  0  0
  -92.0610   23.6277    0.2731 C   0  0  0  0  0  0  0  0  0  0  0  0
  -94.2458   27.6449   -4.6036 C   0  0  0  0  0  0  0  0  0  0  0  0
  -92.7705   27.3640   -6.6468 C   0  0  0  0  0  0  0  0  0  0  0  0
  -93.0341   28.0376   -5.3475 C   0  0  0  0  0  0  0  0  0  0  0  0
  -93.1977   29.5397   -5.6600 C   0  0  0  0  0  0  0  0  0  0  0  0
  -90.9892   28.0948    0.2359 C   0  0  0  0  0  0  0  0  0  0  0  0
  -89.7277   27.5440    0.7540 C   0  0  0  0  0  0  0  0  0  0  0  0
  -89.6519   27.1388    2.0948 C   0  0  0  0  0  0  0  0  0  0  0  0
  -88.5444   26.6511    2.7000 C   0  0  0  0  0  0  0  0  0  0  0  0
  -87.3777   26.5311    1.9583 C   0  0  0  0  0  0  0  0  0  0  0  0
  -87.3985   26.9154    0.6327 C   0  0  0  0  0  0  0  0  0  0  0  0
  -88.5546   27.4110    0.0495 C   0  0  0  0  0  0  0  0  0  0  0  0
 51 52  1  0  0  0
 52 53  1  0  0  0
 52 50  1  0  0  0
 50 32  1  0  0  0
 32 28  1  0  0  0
 28 29  1  0  0  0
 29 30  2  0  0  0
 29  1  1  0  0  0
  1 54  1  0  0  0
 54 55  1  0  0  0
 55 56  2  0  0  0
 56 57  1  0  0  0
 57 58  2  0  0  0
 58 59  1  0  0  0
 59 60  2  0  0  0
  1  2  1  0  0  0
  2  3  1  0  0  0
  3  4  2  0  0  0
  3  6  1  0  0  0
  6  7  1  0  0  0
  7  8  1  0  0  0
  8  9  1  0  0  0
  9 10  1  0  0  0
 10 11  1  0  0  0
 11 12  2  0  0  0
 11 13  1  0  0  0
 13 14  1  0  0  0
 13 17  1  0  0  0
 17 18  1  0  0  0
 18 19  2  0  0  0
 19 20  1  0  0  0
 20 21  1  0  0  0
 21 22  2  0  0  0
 22 23  1  0  0  0
 23 24  2  0  0  0
 24 25  1  0  0  0
 25 26  2  0  0  0
 32 33  1  0  0  0
 33 34  2  0  0  0
 33 35  1  0  0  0
 35 37  1  0  0  0
 37 43  1  0  0  0
 43 44  1  0  0  0
 44 45  2  0  0  0
 45 46  1  0  0  0
 46 47  2  0  0  0
 47 48  1  0  0  0
 48 49  2  0  0  0
 37 38  1  0  0  0
 38 39  1  0  0  0
 38 40  2  0  0  0
 60 55  1  0  0  0
 10  6  1  0  0  0
 26 18  1  0  0  0
 49 44  1  0  0  0
 26 21  1  0  0  0
 28 31  1  0  0  0
  2  5  1  0  0  0
 14 15  1  0  0  0
 14 16  1  0  0  0
 20 27  1  0  0  0
 35 36  1  0  0  0
 39 41  1  0  0  0
 39 42  1  0  0  0
M  END
> <minimizedAffinity>
-9.37392

> <CNNscore>
0.1197662801

> <CNNaffinity>
6.7367615700

> <CNN_VS>
0.8068368435

> <CNNaffinity_variance>
1.7977256775

$$$$
[H]c1c([H])c(Cl)c([H])c(N2C([H])([H])N([H])C(=O)C23C([H])([H])C([H])([H])N(C(=O)c2c([H])c([H])c(-c4c([H])c([H])c(F)c([H])c4[H])c([H])c2[H])C([H])([H])C3([H])[H])c1[H]


 34 38  0  0  0  0  0  0  0  0999 V2000
  -90.6200   29.5736   -2.7733 C   0  0  0  0  0  0  0  0  0  0  0  0
  -90.7761   28.6775   -3.7136 O   0  0  0  0  0  0  0  0  0  0  0  0
  -90.7094   30.8920   -3.2113 N   0  0  0  0  0  0  0  0  0  0  0  0
  -90.6707   32.1359   -2.5252 C   0  0  0  0  0  0  0  0  0  0  0  0
  -89.4204   32.9150   -2.8178 C   0  0  0  0  0  0  0  0  0  0  0  0
  -89.0890   32.7998   -4.3067 C   0  0  0  0  0  0  0  0  0  0  0  0
  -90.2642   32.4133   -5.0967 C   0  0  0  0  0  0  0  0  0  0  0  0
  -90.8090   31.0641   -4.7017 C   0  0  0  0  0  0  0  0  0  0  0  0
  -88.4043   34.0108   -4.7043 N   0  0  0  0  0  0  0  0  0  0  0  0
  -87.2406   34.0291   -3.7876 C   0  0  0  0  0  0  0  0  0  0  0  0
  -86.8641   32.6043   -3.8129 N   0  0  0  0  0  0  0  0  0  0  0  0
  -87.9355   31.8481   -4.3721 C   0  0  0  0  0  0  0  0  0  0  0  0
  -87.8364   30.6833   -4.7879 O   0  0  0  0  0  0  0  0  0  0  0  0
  -85.9328   32.2727   -3.4566 H   0  0  0  0  0  0  0  0  0  0  0  0
  -88.5993   35.0055   -5.6609 C   0  0  0  0  0  0  0  0  0  0  0  0
  -87.5439   35.9104   -5.8699 C   0  0  0  0  0  0  0  0  0  0  0  0
  -87.6276   36.9143   -6.8088 C   0  0  0  0  0  0  0  0  0  0  0  0
  -88.7596   37.0707   -7.5856 C   0  0  0  0  0  0  0  0  0  0  0  0
  -89.7910   36.1857   -7.3813 C   0  0  0  0  0  0  0  0  0  0  0  0
  -91.2402   36.3799   -8.3704 Cl  0  0  0  0  0  0  0  0  0  0  0  0
  -89.7196   35.1629   -6.4331 C   0  0  0  0  0  0  0  0  0  0  0  0
  -90.1073   27.8879    1.0842 C   0  0  0  0  0  0  0  0  0  0  0  0
  -90.9635   28.9400    0.8782 C   0  0  0  0  0  0  0  0  0  0  0  0
  -91.0955   29.4803   -0.3915 C   0  0  0  0  0  0  0  0  0  0  0  0
  -90.3892   28.9978   -1.4837 C   0  0  0  0  0  0  0  0  0  0  0  0
  -89.5455   27.9572   -1.2760 C   0  0  0  0  0  0  0  0  0  0  0  0
  -89.4122   27.4121    0.0079 C   0  0  0  0  0  0  0  0  0  0  0  0
  -89.4030   25.5409    6.0937 F   0  0  0  0  0  0  0  0  0  0  0  0
  -89.5913   26.1365    4.8804 C   0  0  0  0  0  0  0  0  0  0  0  0
  -90.3227   27.2945    4.7429 C   0  0  0  0  0  0  0  0  0  0  0  0
  -90.4923   27.8684    3.5032 C   0  0  0  0  0  0  0  0  0  0  0  0
  -89.9317   27.2890    2.3881 C   0  0  0  0  0  0  0  0  0  0  0  0
  -89.1946   26.1229    2.5230 C   0  0  0  0  0  0  0  0  0  0  0  0
  -89.0317   25.5565    3.7742 C   0  0  0  0  0  0  0  0  0  0  0  0
 28 29  1  0  0  0
 29 30  2  0  0  0
 30 31  1  0  0  0
 31 32  2  0  0  0
 32 33  1  0  0  0
 33 34  2  0  0  0
 32 22  1  0  0  0
 22 23  2  0  0  0
 23 24  1  0  0  0
 24 25  2  0  0  0
 25 26  1  0  0  0
 26 27  2  0  0  0
 25  1  1  0  0  0
  1  2  2  0  0  0
  1  3  1  0  0  0
  3  4  1  0  0  0
  4  5  1  0  0  0
  5  6  1  0  0  0
  6  7  1  0  0  0
  7  8  1  0  0  0
  6  9  1  0  0  0
  9 10  1  0  0  0
 10 11  1  0  0  0
 11 12  1  0  0  0
 12 13  2  0  0  0
  9 15  1  0  0  0
 15 16  2  0  0  0
 16 17  1  0  0  0
 17 18  2  0  0  0
 18 19  1  0  0  0
 19 20  1  0  0  0
 19 21  2  0  0  0
 34 29  1  0  0  0
 27 22  1  0  0  0
  8  3  1  0  0  0
 21 15  1  0  0  0
 12  6  1  0  0  0
 11 14  1  0  0  0
M  END
> <minimizedAffinity>
-9.17778

> <CNNscore>
0.4278150201

> <CNNaffinity>
6.4284601212

> <CNN_VS>
2.7501916885

> <CNNaffinity_variance>
0.1674359590

$$$$
[H]c1c([H])c(Cl)c([H])c(N2C([H])([H])N([H])C(=O)C23C([H])([H])C([H])([H])N(C(=O)c2c([H])c([H])c(-c4c([H])c([H])c(F)c([H])c4[H])c([H])c2[H])C([H])([H])C3([H])[H])c1[H]


 34 38  0  0  0  0  0  0  0  0999 V2000
  -94.9790   28.7426   -3.7714 C   0  0  0  0  0  0  0  0  0  0  0  0
  -95.4917   28.6813   -4.9734 O   0  0  0  0  0  0  0  0  0  0  0  0
  -94.4076   29.9705   -3.4492 N   0  0  0  0  0  0  0  0  0  0  0  0
  -93.8190   30.4719   -2.2568 C   0  0  0  0  0  0  0  0  0  0  0  0
  -92.3351   30.6650   -2.3854 C   0  0  0  0  0  0  0  0  0  0  0  0
  -92.0193   31.2615   -3.7582 C   0  0  0  0  0  0  0  0  0  0  0  0
  -93.1930   31.9151   -4.3496 C   0  0  0  0  0  0  0  0  0  0  0  0
  -94.3337   30.9570   -4.5816 C   0  0  0  0  0  0  0  0  0  0  0  0
  -90.8213   32.0624   -3.6295 N   0  0  0  0  0  0  0  0  0  0  0  0
  -89.8395   31.0789   -3.1162 C   0  0  0  0  0  0  0  0  0  0  0  0
  -90.1846   29.9080   -3.9423 N   0  0  0  0  0  0  0  0  0  0  0  0
  -91.4551   30.1246   -4.5517 C   0  0  0  0  0  0  0  0  0  0  0  0
  -91.8994   29.4732   -5.5096 O   0  0  0  0  0  0  0  0  0  0  0  0
  -89.5433   29.0793   -4.0211 H   0  0  0  0  0  0  0  0  0  0  0  0
  -90.4689   33.3875   -3.8796 C   0  0  0  0  0  0  0  0  0  0  0  0
  -89.4644   33.9478   -3.0712 C   0  0  0  0  0  0  0  0  0  0  0  0
  -89.0275   35.2410   -3.2530 C   0  0  0  0  0  0  0  0  0  0  0  0
  -89.5638   36.0415   -4.2434 C   0  0  0  0  0  0  0  0  0  0  0  0
  -90.5454   35.4935   -5.0338 C   0  0  0  0  0  0  0  0  0  0  0  0
  -91.2348   36.5107   -6.3011 Cl  0  0  0  0  0  0  0  0  0  0  0  0
  -90.9977   34.1835   -4.8609 C   0  0  0  0  0  0  0  0  0  0  0  0
  -95.2247   25.1368   -1.5529 C   0  0  0  0  0  0  0  0  0  0  0  0
  -94.0889   25.4649   -2.2491 C   0  0  0  0  0  0  0  0  0  0  0  0
  -94.0464   26.6425   -2.9792 C   0  0  0  0  0  0  0  0  0  0  0  0
  -95.1186   27.5208   -3.0398 C   0  0  0  0  0  0  0  0  0  0  0  0
  -96.2383   27.1934   -2.3491 C   0  0  0  0  0  0  0  0  0  0  0  0
  -96.2806   26.0025   -1.6120 C   0  0  0  0  0  0  0  0  0  0  0  0
  -95.5611   20.4258    1.4124 F   0  0  0  0  0  0  0  0  0  0  0  0
  -95.5010   21.5898    0.7026 C   0  0  0  0  0  0  0  0  0  0  0  0
  -96.3494   22.6432    0.9576 C   0  0  0  0  0  0  0  0  0  0  0  0
  -96.2606   23.8032    0.2217 C   0  0  0  0  0  0  0  0  0  0  0  0
  -95.3216   23.9207   -0.7774 C   0  0  0  0  0  0  0  0  0  0  0  0
  -94.4658   22.8617   -1.0367 C   0  0  0  0  0  0  0  0  0  0  0  0
  -94.5653   21.7018   -0.2900 C   0  0  0  0  0  0  0  0  0  0  0  0
 28 29  1  0  0  0
 29 30  2  0  0  0
 30 31  1  0  0  0
 31 32  2  0  0  0
 32 33  1  0  0  0
 33 34  2  0  0  0
 32 22  1  0  0  0
 22 23  2  0  0  0
 23 24  1  0  0  0
 24 25  2  0  0  0
 25 26  1  0  0  0
 26 27  2  0  0  0
 25  1  1  0  0  0
  1  2  2  0  0  0
  1  3  1  0  0  0
  3  4  1  0  0  0
  4  5  1  0  0  0
  5  6  1  0  0  0
  6  7  1  0  0  0
  7  8  1  0  0  0
  6  9  1  0  0  0
  9 10  1  0  0  0
 10 11  1  0  0  0
 11 12  1  0  0  0
 12 13  2  0  0  0
  9 15  1  0  0  0
 15 16  2  0  0  0
 16 17  1  0  0  0
 17 18  2  0  0  0
 18 19  1  0  0  0
 19 20  1  0  0  0
 19 21  2  0  0  0
 34 29  1  0  0  0
 27 22  1  0  0  0
  8  3  1  0  0  0
 21 15  1  0  0  0
 12  6  1  0  0  0
 11 14  1  0  0  0
M  END
> <minimizedAffinity>
-4.61537

> <CNNscore>
0.3944582343

> <CNNaffinity>
5.3600864410

> <CNN_VS>
2.1143302917

> <CNNaffinity_variance>
0.8942097425

$$$$
[H]c1c([H])c(Cl)c([H])c(N2C([H])([H])N([H])C(=O)C23C([H])([H])C([H])([H])N(C(=O)c2c([H])c([H])c(-c4c([H])c([H])c(F)c([H])c4[H])c([H])c2[H])C([H])([H])C3([H])[H])c1[H]


 34 38  0  0  0  0  0  0  0  0999 V2000
  -89.6953   25.7204   -1.5676 C   0  0  0  0  0  0  0  0  0  0  0  0
  -89.8949   24.6816   -2.3374 O   0  0  0  0  0  0  0  0  0  0  0  0
  -89.0134   25.4414   -0.3864 N   0  0  0  0  0  0  0  0  0  0  0  0
  -88.5419   26.2692    0.6681 C   0  0  0  0  0  0  0  0  0  0  0  0
  -89.3064   26.0651    1.9446 C   0  0  0  0  0  0  0  0  0  0  0  0
  -89.5709   24.5716    2.1430 C   0  0  0  0  0  0  0  0  0  0  0  0
  -88.6414   23.7467    1.3619 C   0  0  0  0  0  0  0  0  0  0  0  0
  -88.7652   23.9822   -0.1221 C   0  0  0  0  0  0  0  0  0  0  0  0
  -89.6329   24.3166    3.5659 N   0  0  0  0  0  0  0  0  0  0  0  0
  -90.7203   25.2240    4.0005 C   0  0  0  0  0  0  0  0  0  0  0  0
  -91.6805   25.0291    2.8994 N   0  0  0  0  0  0  0  0  0  0  0  0
  -91.0189   24.3893    1.8107 C   0  0  0  0  0  0  0  0  0  0  0  0
  -91.5945   23.8386    0.8595 O   0  0  0  0  0  0  0  0  0  0  0  0
  -92.6813   25.3397    2.9778 H   0  0  0  0  0  0  0  0  0  0  0  0
  -88.9688   23.4849    4.4658 C   0  0  0  0  0  0  0  0  0  0  0  0
  -88.2079   24.1058    5.4718 C   0  0  0  0  0  0  0  0  0  0  0  0
  -87.5337   23.3740    6.4238 C   0  0  0  0  0  0  0  0  0  0  0  0
  -87.5802   21.9931    6.4258 C   0  0  0  0  0  0  0  0  0  0  0  0
  -88.3244   21.3864    5.4425 C   0  0  0  0  0  0  0  0  0  0  0  0
  -88.3881   19.6223    5.4392 Cl  0  0  0  0  0  0  0  0  0  0  0  0
  -89.0133   22.1159    4.4712 C   0  0  0  0  0  0  0  0  0  0  0  0
  -91.2630   29.3823   -3.0226 C   0  0  0  0  0  0  0  0  0  0  0  0
  -91.6253   28.8950   -1.7922 C   0  0  0  0  0  0  0  0  0  0  0  0
  -91.1089   27.6860   -1.3527 C   0  0  0  0  0  0  0  0  0  0  0  0
  -90.2267   26.9320   -2.1129 C   0  0  0  0  0  0  0  0  0  0  0  0
  -89.8702   27.4181   -3.3272 C   0  0  0  0  0  0  0  0  0  0  0  0
  -90.3933   28.6400   -3.7710 C   0  0  0  0  0  0  0  0  0  0  0  0
  -93.2782   34.2026   -4.9730 F   0  0  0  0  0  0  0  0  0  0  0  0
  -92.7578   33.0342   -4.4971 C   0  0  0  0  0  0  0  0  0  0  0  0
  -91.4062   32.8662   -4.2981 C   0  0  0  0  0  0  0  0  0  0  0  0
  -90.9158   31.6736   -3.8163 C   0  0  0  0  0  0  0  0  0  0  0  0
  -91.7734   30.6366   -3.5286 C   0  0  0  0  0  0  0  0  0  0  0  0
  -93.1350   30.8025   -3.7278 C   0  0  0  0  0  0  0  0  0  0  0  0
  -93.6148   32.0058   -4.2123 C   0  0  0  0  0  0  0  0  0  0  0  0
 28 29  1  0  0  0
 29 30  2  0  0  0
 30 31  1  0  0  0
 31 32  2  0  0  0
 32 33  1  0  0  0
 33 34  2  0  0  0
 32 22  1  0  0  0
 22 23  2  0  0  0
 23 24  1  0  0  0
 24 25  2  0  0  0
 25 26  1  0  0  0
 26 27  2  0  0  0
 25  1  1  0  0  0
  1  2  2  0  0  0
  1  3  1  0  0  0
  3  4  1  0  0  0
  4  5  1  0  0  0
  5  6  1  0  0  0
  6  7  1  0  0  0
  7  8  1  0  0  0
  6  9  1  0  0  0
  9 10  1  0  0  0
 10 11  1  0  0  0
 11 12  1  0  0  0
 12 13  2  0  0  0
  9 15  1  0  0  0
 15 16  2  0  0  0
 16 17  1  0  0  0
 17 18  2  0  0  0
 18 19  1  0  0  0
 19 20  1  0  0  0
 19 21  2  0  0  0
 34 29  1  0  0  0
 27 22  1  0  0  0
  8  3  1  0  0  0
 21 15  1  0  0  0
 12  6  1  0  0  0
 11 14  1  0  0  0
M  END
> <minimizedAffinity>
-1.50308

> <CNNscore>
0.3735751808

> <CNNaffinity>
5.6348066330

> <CNN_VS>
2.1050238609

> <CNNaffinity_variance>
1.1626058817

$$$$
[H]c1c([H])c(Cl)c([H])c(N2C([H])([H])N([H])C(=O)C23C([H])([H])C([H])([H])N(C(=O)c2c([H])c([H])c(-c4c([H])c([H])c(F)c([H])c4[H])c([H])c2[H])C([H])([H])C3([H])[H])c1[H]


 34 38  0  0  0  0  0  0  0  0999 V2000
  -93.2617   27.3007   -4.7059 C   0  0  0  0  0  0  0  0  0  0  0  0
  -94.4695   26.9377   -5.0539 O   0  0  0  0  0  0  0  0  0  0  0  0
  -92.4834   26.2785   -4.1698 N   0  0  0  0  0  0  0  0  0  0  0  0
  -91.1296   26.2273   -3.7407 C   0  0  0  0  0  0  0  0  0  0  0  0
  -91.0038   26.0836   -2.2511 C   0  0  0  0  0  0  0  0  0  0  0  0
  -92.0516   25.0891   -1.7481 C   0  0  0  0  0  0  0  0  0  0  0  0
  -92.5325   24.2153   -2.8251 C   0  0  0  0  0  0  0  0  0  0  0  0
  -93.2069   24.9816   -3.9347 C   0  0  0  0  0  0  0  0  0  0  0  0
  -91.5189   24.4404   -0.5697 N   0  0  0  0  0  0  0  0  0  0  0  0
  -91.2440   25.5894    0.3241 C   0  0  0  0  0  0  0  0  0  0  0  0
  -92.4470   26.4053    0.0803 N   0  0  0  0  0  0  0  0  0  0  0  0
  -93.1013   25.9328   -1.0949 C   0  0  0  0  0  0  0  0  0  0  0  0
  -94.2678   26.2101   -1.4139 O   0  0  0  0  0  0  0  0  0  0  0  0
  -92.7166   27.1962    0.7176 H   0  0  0  0  0  0  0  0  0  0  0  0
  -91.2706   23.1275   -0.1730 C   0  0  0  0  0  0  0  0  0  0  0  0
  -89.9259   22.7260   -0.0893 C   0  0  0  0  0  0  0  0  0  0  0  0
  -89.5740   21.4577    0.3158 C   0  0  0  0  0  0  0  0  0  0  0  0
  -90.5359   20.5265    0.6574 C   0  0  0  0  0  0  0  0  0  0  0  0
  -91.8503   20.9194    0.5760 C   0  0  0  0  0  0  0  0  0  0  0  0
  -93.0842   19.7344    1.0111 Cl  0  0  0  0  0  0  0  0  0  0  0  0
  -92.2214   22.2021    0.1672 C   0  0  0  0  0  0  0  0  0  0  0  0
  -92.6560   31.4270   -5.4744 C   0  0  0  0  0  0  0  0  0  0  0  0
  -93.5648   30.6970   -6.1980 C   0  0  0  0  0  0  0  0  0  0  0  0
  -93.7268   29.3458   -5.9344 C   0  0  0  0  0  0  0  0  0  0  0  0
  -92.9993   28.6852   -4.9551 C   0  0  0  0  0  0  0  0  0  0  0  0
  -92.1036   29.4107   -4.2415 C   0  0  0  0  0  0  0  0  0  0  0  0
  -91.9400   30.7764   -4.5091 C   0  0  0  0  0  0  0  0  0  0  0  0
  -91.8666   36.8642   -6.4305 F   0  0  0  0  0  0  0  0  0  0  0  0
  -92.0507   35.5375   -6.1688 C   0  0  0  0  0  0  0  0  0  0  0  0
  -91.7879   34.9959   -4.9310 C   0  0  0  0  0  0  0  0  0  0  0  0
  -91.9852   33.6528   -4.7021 C   0  0  0  0  0  0  0  0  0  0  0  0
  -92.4475   32.8380   -5.7100 C   0  0  0  0  0  0  0  0  0  0  0  0
  -92.7131   33.3802   -6.9576 C   0  0  0  0  0  0  0  0  0  0  0  0
  -92.5107   34.7312   -7.1745 C   0  0  0  0  0  0  0  0  0  0  0  0
 28 29  1  0  0  0
 29 30  2  0  0  0
 30 31  1  0  0  0
 31 32  2  0  0  0
 32 33  1  0  0  0
 33 34  2  0  0  0
 32 22  1  0  0  0
 22 23  2  0  0  0
 23 24  1  0  0  0
 24 25  2  0  0  0
 25 26  1  0  0  0
 26 27  2  0  0  0
 25  1  1  0  0  0
  1  2  2  0  0  0
  1  3  1  0  0  0
  3  4  1  0  0  0
  4  5  1  0  0  0
  5  6  1  0  0  0
  6  7  1  0  0  0
  7  8  1  0  0  0
  6  9  1  0  0  0
  9 10  1  0  0  0
 10 11  1  0  0  0
 11 12  1  0  0  0
 12 13  2  0  0  0
  9 15  1  0  0  0
 15 16  2  0  0  0
 16 17  1  0  0  0
 17 18  2  0  0  0
 18 19  1  0  0  0
 19 20  1  0  0  0
 19 21  2  0  0  0
 34 29  1  0  0  0
 27 22  1  0  0  0
  8  3  1  0  0  0
 21 15  1  0  0  0
 12  6  1  0  0  0
 11 14  1  0  0  0
M  END
> <minimizedAffinity>
-5.55181

> <CNNscore>
0.3115371168

> <CNNaffinity>
5.1151833534

> <CNN_VS>
1.5935695171

> <CNNaffinity_variance>
0.5756247044

$$$$
[H]c1c([H])c(Cl)c([H])c(N2C([H])([H])N([H])C(=O)C23C([H])([H])C([H])([H])N(C(=O)c2c([H])c([H])c(-c4c([H])c([H])c(F)c([H])c4[H])c([H])c2[H])C([H])([H])C3([H])[H])c1[H]


 34 38  0  0  0  0  0  0  0  0999 V2000
  -90.3894   25.7141   -1.9704 C   0  0  0  0  0  0  0  0  0  0  0  0
  -89.9831   24.9530   -2.9538 O   0  0  0  0  0  0  0  0  0  0  0  0
  -89.8647   25.3783   -0.7254 N   0  0  0  0  0  0  0  0  0  0  0  0
  -89.9869   25.9727    0.5596 C   0  0  0  0  0  0  0  0  0  0  0  0
  -90.7896   25.1299    1.5088 C   0  0  0  0  0  0  0  0  0  0  0  0
  -90.4063   23.6600    1.3288 C   0  0  0  0  0  0  0  0  0  0  0  0
  -89.0931   23.5153    0.6892 C   0  0  0  0  0  0  0  0  0  0  0  0
  -89.0542   24.1122   -0.6947 C   0  0  0  0  0  0  0  0  0  0  0  0
  -90.5906   22.9940    2.5999 N   0  0  0  0  0  0  0  0  0  0  0  0
  -92.0208   23.2535    2.8861 C   0  0  0  0  0  0  0  0  0  0  0  0
  -92.5986   23.0448    1.5463 N   0  0  0  0  0  0  0  0  0  0  0  0
  -91.5508   23.0523    0.5796 C   0  0  0  0  0  0  0  0  0  0  0  0
  -91.6589   22.6317   -0.5826 O   0  0  0  0  0  0  0  0  0  0  0  0
  -93.6320   22.9176    1.4042 H   0  0  0  0  0  0  0  0  0  0  0  0
  -89.7933   22.2487    3.4669 C   0  0  0  0  0  0  0  0  0  0  0  0
  -89.6668   20.8742    3.2003 C   0  0  0  0  0  0  0  0  0  0  0  0
  -88.8832   20.0552    3.9825 C   0  0  0  0  0  0  0  0  0  0  0  0
  -88.1876   20.5573    5.0656 C   0  0  0  0  0  0  0  0  0  0  0  0
  -88.3112   21.9011    5.3258 C   0  0  0  0  0  0  0  0  0  0  0  0
  -87.4252   22.5491    6.7082 Cl  0  0  0  0  0  0  0  0  0  0  0  0
  -89.1018   22.7432    4.5408 C   0  0  0  0  0  0  0  0  0  0  0  0
  -92.9341   28.8524   -3.2587 C   0  0  0  0  0  0  0  0  0  0  0  0
  -91.7782   29.1152   -2.5679 C   0  0  0  0  0  0  0  0  0  0  0  0
  -90.9767   28.0662   -2.1450 C   0  0  0  0  0  0  0  0  0  0  0  0
  -91.2949   26.7387   -2.3923 C   0  0  0  0  0  0  0  0  0  0  0  0
  -92.4371   26.4837   -3.0766 C   0  0  0  0  0  0  0  0  0  0  0  0
  -93.2470   27.5447   -3.5031 C   0  0  0  0  0  0  0  0  0  0  0  0
  -96.3031   32.9436   -4.9944 F   0  0  0  0  0  0  0  0  0  0  0  0
  -95.4750   31.9340   -4.5976 C   0  0  0  0  0  0  0  0  0  0  0  0
  -94.8934   31.0719   -5.4994 C   0  0  0  0  0  0  0  0  0  0  0  0
  -94.0627   30.0642   -5.0638 C   0  0  0  0  0  0  0  0  0  0  0  0
  -93.8056   29.9091   -3.7208 C   0  0  0  0  0  0  0  0  0  0  0  0
  -94.3896   30.7756   -2.8102 C   0  0  0  0  0  0  0  0  0  0  0  0
  -95.2223   31.7838   -3.2609 C   0  0  0  0  0  0  0  0  0  0  0  0
 28 29  1  0  0  0
 29 30  2  0  0  0
 30 31  1  0  0  0
 31 32  2  0  0  0
 32 33  1  0  0  0
 33 34  2  0  0  0
 32 22  1  0  0  0
 22 23  2  0  0  0
 23 24  1  0  0  0
 24 25  2  0  0  0
 25 26  1  0  0  0
 26 27  2  0  0  0
 25  1  1  0  0  0
  1  2  2  0  0  0
  1  3  1  0  0  0
  3  4  1  0  0  0
  4  5  1  0  0  0
  5  6  1  0  0  0
  6  7  1  0  0  0
  7  8  1  0  0  0
  6  9  1  0  0  0
  9 10  1  0  0  0
 10 11  1  0  0  0
 11 12  1  0  0  0
 12 13  2  0  0  0
  9 15  1  0  0  0
 15 16  2  0  0  0
 16 17  1  0  0  0
 17 18  2  0  0  0
 18 19  1  0  0  0
 19 20  1  0  0  0
 19 21  2  0  0  0
 34 29  1  0  0  0
 27 22  1  0  0  0
  8  3  1  0  0  0
 21 15  1  0  0  0
 12  6  1  0  0  0
 11 14  1  0  0  0
M  END
> <minimizedAffinity>
-4.38134

> <CNNscore>
0.2450484186

> <CNNaffinity>
5.4117927551

> <CNN_VS>
1.3261512518

> <CNNaffinity_variance>
0.8104623556

$$$$
[H]c1c([H])c(Cl)c([H])c(N2C([H])([H])N([H])C(=O)C23C([H])([H])C([H])([H])N(C(=O)c2c([H])c([H])c(-c4c([H])c([H])c(F)c([H])c4[H])c([H])c2[H])C([H])([H])C3([H])[H])c1[H]


 34 38  0  0  0  0  0  0  0  0999 V2000
  -88.6271   32.8870   -4.8156 C   0  0  0  0  0  0  0  0  0  0  0  0
  -87.6970   33.2831   -5.6460 O   0  0  0  0  0  0  0  0  0  0  0  0
  -89.9277   33.1489   -5.2376 N   0  0  0  0  0  0  0  0  0  0  0  0
  -91.1981   32.8310   -4.6857 C   0  0  0  0  0  0  0  0  0  0  0  0
  -91.9222   34.0432   -4.1743 C   0  0  0  0  0  0  0  0  0  0  0  0
  -91.7322   35.1991   -5.1581 C   0  0  0  0  0  0  0  0  0  0  0  0
  -91.3508   34.7200   -6.4921 C   0  0  0  0  0  0  0  0  0  0  0  0
  -90.0386   33.9776   -6.4873 C   0  0  0  0  0  0  0  0  0  0  0  0
  -92.9017   36.0471   -5.0783 N   0  0  0  0  0  0  0  0  0  0  0  0
  -92.9213   36.4213   -3.6451 C   0  0  0  0  0  0  0  0  0  0  0  0
  -91.4851   36.6618   -3.4170 N   0  0  0  0  0  0  0  0  0  0  0  0
  -90.7411   36.1068   -4.4991 C   0  0  0  0  0  0  0  0  0  0  0  0
  -89.5569   36.3757   -4.7535 O   0  0  0  0  0  0  0  0  0  0  0  0
  -91.1387   37.1708   -2.5654 H   0  0  0  0  0  0  0  0  0  0  0  0
  -93.8602   36.5208   -5.9726 C   0  0  0  0  0  0  0  0  0  0  0  0
  -94.9559   35.6823   -6.2423 C   0  0  0  0  0  0  0  0  0  0  0  0
  -95.9687   36.0671   -7.0923 C   0  0  0  0  0  0  0  0  0  0  0  0
  -95.9455   37.2999   -7.7160 C   0  0  0  0  0  0  0  0  0  0  0  0
  -94.8745   38.1195   -7.4518 C   0  0  0  0  0  0  0  0  0  0  0  0
  -94.8387   39.6960   -8.2453 Cl  0  0  0  0  0  0  0  0  0  0  0  0
  -93.8408   37.7424   -6.5918 C   0  0  0  0  0  0  0  0  0  0  0  0
  -87.1597   31.1500   -1.2361 C   0  0  0  0  0  0  0  0  0  0  0  0
  -87.3547   32.5042   -1.3389 C   0  0  0  0  0  0  0  0  0  0  0  0
  -87.8188   33.0433   -2.5287 C   0  0  0  0  0  0  0  0  0  0  0  0
  -88.1003   32.2629   -3.6407 C   0  0  0  0  0  0  0  0  0  0  0  0
  -87.9076   30.9252   -3.5341 C   0  0  0  0  0  0  0  0  0  0  0  0
  -87.4378   30.3812   -2.3312 C   0  0  0  0  0  0  0  0  0  0  0  0
  -85.3248   28.7477    3.4504 F   0  0  0  0  0  0  0  0  0  0  0  0
  -85.7563   29.3586    2.3089 C   0  0  0  0  0  0  0  0  0  0  0  0
  -85.2852   30.5921    1.9200 C   0  0  0  0  0  0  0  0  0  0  0  0
  -85.7426   31.1791    0.7618 C   0  0  0  0  0  0  0  0  0  0  0  0
  -86.6764   30.5374   -0.0191 C   0  0  0  0  0  0  0  0  0  0  0  0
  -87.1527   29.2952    0.3696 C   0  0  0  0  0  0  0  0  0  0  0  0
  -86.6850   28.7163    1.5355 C   0  0  0  0  0  0  0  0  0  0  0  0
 28 29  1  0  0  0
 29 30  2  0  0  0
 30 31  1  0  0  0
 31 32  2  0  0  0
 32 33  1  0  0  0
 33 34  2  0  0  0
 32 22  1  0  0  0
 22 23  2  0  0  0
 23 24  1  0  0  0
 24 25  2  0  0  0
 25 26  1  0  0  0
 26 27  2  0  0  0
 25  1  1  0  0  0
  1  2  2  0  0  0
  1  3  1  0  0  0
  3  4  1  0  0  0
  4  5  1  0  0  0
  5  6  1  0  0  0
  6  7  1  0  0  0
  7  8  1  0  0  0
  6  9  1  0  0  0
  9 10  1  0  0  0
 10 11  1  0  0  0
 11 12  1  0  0  0
 12 13  2  0  0  0
  9 15  1  0  0  0
 15 16  2  0  0  0
 16 17  1  0  0  0
 17 18  2  0  0  0
 18 19  1  0  0  0
 19 20  1  0  0  0
 19 21  2  0  0  0
 34 29  1  0  0  0
 27 22  1  0  0  0
  8  3  1  0  0  0
 21 15  1  0  0  0
 12  6  1  0  0  0
 11 14  1  0  0  0
M  END
> <minimizedAffinity>
-5.20095

> <CNNscore>
0.2114948630

> <CNNaffinity>
5.7651801109

> <CNN_VS>
1.2193059921

> <CNNaffinity_variance>
0.6725453734

$$$$
[H]c1c([H])c(Cl)c([H])c(N2C([H])([H])N([H])C(=O)C23C([H])([H])C([H])([H])N(C(=O)c2c([H])c([H])c(-c4c([H])c([H])c(F)c([H])c4[H])c([H])c2[H])C([H])([H])C3([H])[H])c1[H]


 34 38  0  0  0  0  0  0  0  0999 V2000
  -91.2675   29.7285   -3.5760 C   0  0  0  0  0  0  0  0  0  0  0  0
  -91.8029   29.4718   -4.7417 O   0  0  0  0  0  0  0  0  0  0  0  0
  -90.9774   31.0724   -3.3571 N   0  0  0  0  0  0  0  0  0  0  0  0
  -90.4688   31.7732   -2.2303 C   0  0  0  0  0  0  0  0  0  0  0  0
  -89.0744   32.2850   -2.4531 C   0  0  0  0  0  0  0  0  0  0  0  0
  -88.9604   32.8419   -3.8732 C   0  0  0  0  0  0  0  0  0  0  0  0
  -90.2757   33.1736   -4.4340 C   0  0  0  0  0  0  0  0  0  0  0  0
  -91.1774   31.9705   -4.5463 C   0  0  0  0  0  0  0  0  0  0  0  0
  -87.9717   33.8980   -3.8582 N   0  0  0  0  0  0  0  0  0  0  0  0
  -86.7713   33.1972   -3.3457 C   0  0  0  0  0  0  0  0  0  0  0  0
  -86.8754   31.9251   -4.0828 N   0  0  0  0  0  0  0  0  0  0  0  0
  -88.1862   31.8090   -4.6311 C   0  0  0  0  0  0  0  0  0  0  0  0
  -88.5105   31.0106   -5.5237 O   0  0  0  0  0  0  0  0  0  0  0  0
  -86.0663   31.2579   -4.1502 H   0  0  0  0  0  0  0  0  0  0  0  0
  -87.9406   35.2481   -4.2030 C   0  0  0  0  0  0  0  0  0  0  0  0
  -87.8672   35.5591   -5.5720 C   0  0  0  0  0  0  0  0  0  0  0  0
  -87.8555   36.8621   -6.0177 C   0  0  0  0  0  0  0  0  0  0  0  0
  -87.9159   37.9192   -5.1301 C   0  0  0  0  0  0  0  0  0  0  0  0
  -87.9882   37.6149   -3.7919 C   0  0  0  0  0  0  0  0  0  0  0  0
  -88.0657   38.9609   -2.6524 Cl  0  0  0  0  0  0  0  0  0  0  0  0
  -88.0012   36.2985   -3.3259 C   0  0  0  0  0  0  0  0  0  0  0  0
  -90.8934   26.1909   -1.2674 C   0  0  0  0  0  0  0  0  0  0  0  0
  -92.1260   26.6916   -1.6029 C   0  0  0  0  0  0  0  0  0  0  0  0
  -92.2148   27.8599   -2.3435 C   0  0  0  0  0  0  0  0  0  0  0  0
  -91.0949   28.5594   -2.7691 C   0  0  0  0  0  0  0  0  0  0  0  0
  -89.8790   28.0602   -2.4368 C   0  0  0  0  0  0  0  0  0  0  0  0
  -89.7902   26.8795   -1.6875 C   0  0  0  0  0  0  0  0  0  0  0  0
  -90.2986   21.4886    1.6711 F   0  0  0  0  0  0  0  0  0  0  0  0
  -90.4580   22.6515    0.9749 C   0  0  0  0  0  0  0  0  0  0  0  0
  -91.0909   23.7458    1.5196 C   0  0  0  0  0  0  0  0  0  0  0  0
  -91.2340   24.9033    0.7885 C   0  0  0  0  0  0  0  0  0  0  0  0
  -90.7453   24.9775   -0.4957 C   0  0  0  0  0  0  0  0  0  0  0  0
  -90.1075   23.8774   -1.0473 C   0  0  0  0  0  0  0  0  0  0  0  0
  -89.9701   22.7204   -0.3020 C   0  0  0  0  0  0  0  0  0  0  0  0
 28 29  1  0  0  0
 29 30  2  0  0  0
 30 31  1  0  0  0
 31 32  2  0  0  0
 32 33  1  0  0  0
 33 34  2  0  0  0
 32 22  1  0  0  0
 22 23  2  0  0  0
 23 24  1  0  0  0
 24 25  2  0  0  0
 25 26  1  0  0  0
 26 27  2  0  0  0
 25  1  1  0  0  0
  1  2  2  0  0  0
  1  3  1  0  0  0
  3  4  1  0  0  0
  4  5  1  0  0  0
  5  6  1  0  0  0
  6  7  1  0  0  0
  7  8  1  0  0  0
  6  9  1  0  0  0
  9 10  1  0  0  0
 10 11  1  0  0  0
 11 12  1  0  0  0
 12 13  2  0  0  0
  9 15  1  0  0  0
 15 16  2  0  0  0
 16 17  1  0  0  0
 17 18  2  0  0  0
 18 19  1  0  0  0
 19 20  1  0  0  0
 19 21  2  0  0  0
 34 29  1  0  0  0
 27 22  1  0  0  0
  8  3  1  0  0  0
 21 15  1  0  0  0
 12  6  1  0  0  0
 11 14  1  0  0  0
M  END
> <minimizedAffinity>
-8.17663

> <CNNscore>
0.2029797435

> <CNNaffinity>
5.7207798958

> <CNN_VS>
1.1612024307

> <CNNaffinity_variance>
0.1979767978

$$$$
[H]c1c([H])c(Cl)c([H])c(N2C([H])([H])N([H])C(=O)C23C([H])([H])C([H])([H])N(C(=O)c2c([H])c([H])c(-c4c([H])c([H])c(F)c([H])c4[H])c([H])c2[H])C([H])([H])C3([H])[H])c1[H]


 34 38  0  0  0  0  0  0  0  0999 V2000
  -89.1520   28.5941   -1.3764 C   0  0  0  0  0  0  0  0  0  0  0  0
  -88.9293   28.7507   -0.0968 O   0  0  0  0  0  0  0  0  0  0  0  0
  -88.6279   29.6018   -2.1813 N   0  0  0  0  0  0  0  0  0  0  0  0
  -88.5833   29.7787   -3.5907 C   0  0  0  0  0  0  0  0  0  0  0  0
  -89.4660   30.9006   -4.0574 C   0  0  0  0  0  0  0  0  0  0  0  0
  -89.3433   32.0779   -3.0884 C   0  0  0  0  0  0  0  0  0  0  0  0
  -88.1071   32.0064   -2.3003 C   0  0  0  0  0  0  0  0  0  0  0  0
  -88.0398   30.7701   -1.4398 C   0  0  0  0  0  0  0  0  0  0  0  0
  -89.5711   33.2949   -3.8370 N   0  0  0  0  0  0  0  0  0  0  0  0
  -90.9213   33.0677   -4.4026 C   0  0  0  0  0  0  0  0  0  0  0  0
  -91.5935   32.4589   -3.2407 N   0  0  0  0  0  0  0  0  0  0  0  0
  -90.6100   32.0544   -2.2912 C   0  0  0  0  0  0  0  0  0  0  0  0
  -90.8460   31.7716   -1.1065 O   0  0  0  0  0  0  0  0  0  0  0  0
  -92.6396   32.3712   -3.1912 H   0  0  0  0  0  0  0  0  0  0  0  0
  -88.8663   34.4738   -4.0737 C   0  0  0  0  0  0  0  0  0  0  0  0
  -87.8853   34.4437   -5.0803 C   0  0  0  0  0  0  0  0  0  0  0  0
  -87.1507   35.5616   -5.4074 C   0  0  0  0  0  0  0  0  0  0  0  0
  -87.3518   36.7625   -4.7543 C   0  0  0  0  0  0  0  0  0  0  0  0
  -88.3111   36.7918   -3.7707 C   0  0  0  0  0  0  0  0  0  0  0  0
  -88.5732   38.3229   -2.9323 Cl  0  0  0  0  0  0  0  0  0  0  0  0
  -89.0636   35.6660   -3.4288 C   0  0  0  0  0  0  0  0  0  0  0  0
  -91.3963   25.0675   -2.0906 C   0  0  0  0  0  0  0  0  0  0  0  0
  -90.6662   25.2223   -0.9393 C   0  0  0  0  0  0  0  0  0  0  0  0
  -89.9288   26.3796   -0.7435 C   0  0  0  0  0  0  0  0  0  0  0  0
  -89.8939   27.4074   -1.6747 C   0  0  0  0  0  0  0  0  0  0  0  0
  -90.6180   27.2509   -2.8101 C   0  0  0  0  0  0  0  0  0  0  0  0
  -91.3625   26.0804   -3.0075 C   0  0  0  0  0  0  0  0  0  0  0  0
  -94.4134   20.4712   -3.0241 F   0  0  0  0  0  0  0  0  0  0  0  0
  -93.6809   21.6050   -2.8231 C   0  0  0  0  0  0  0  0  0  0  0  0
  -93.5313   22.5591   -3.8038 C   0  0  0  0  0  0  0  0  0  0  0  0
  -92.7852   23.6914   -3.5664 C   0  0  0  0  0  0  0  0  0  0  0  0
  -92.1809   23.8802   -2.3446 C   0  0  0  0  0  0  0  0  0  0  0  0
  -92.3295   22.9213   -1.3548 C   0  0  0  0  0  0  0  0  0  0  0  0
  -93.0819   21.7883   -1.6062 C   0  0  0  0  0  0  0  0  0  0  0  0
 28 29  1  0  0  0
 29 30  2  0  0  0
 30 31  1  0  0  0
 31 32  2  0  0  0
 32 33  1  0  0  0
 33 34  2  0  0  0
 32 22  1  0  0  0
 22 23  2  0  0  0
 23 24  1  0  0  0
 24 25  2  0  0  0
 25 26  1  0  0  0
 26 27  2  0  0  0
 25  1  1  0  0  0
  1  2  2  0  0  0
  1  3  1  0  0  0
  3  4  1  0  0  0
  4  5  1  0  0  0
  5  6  1  0  0  0
  6  7  1  0  0  0
  7  8  1  0  0  0
  6  9  1  0  0  0
  9 10  1  0  0  0
 10 11  1  0  0  0
 11 12  1  0  0  0
 12 13  2  0  0  0
  9 15  1  0  0  0
 15 16  2  0  0  0
 16 17  1  0  0  0
 17 18  2  0  0  0
 18 19  1  0  0  0
 19 20  1  0  0  0
 19 21  2  0  0  0
 34 29  1  0  0  0
 27 22  1  0  0  0
  8  3  1  0  0  0
 21 15  1  0  0  0
 12  6  1  0  0  0
 11 14  1  0  0  0
M  END
> <minimizedAffinity>
-5.70193

> <CNNscore>
0.1855851710

> <CNNaffinity>
5.6306924820

> <CNN_VS>
1.0449730158

> <CNNaffinity_variance>
0.2738608122

$$$$
[H]c1c([H])c(Cl)c([H])c(N2C([H])([H])N([H])C(=O)C23C([H])([H])C([H])([H])N(C(=O)c2c([H])c([H])c(-c4c([H])c([H])c(F)c([H])c4[H])c([H])c2[H])C([H])([H])C3([H])[H])c1[H]


 34 38  0  0  0  0  0  0  0  0999 V2000
  -90.6619   28.4056   -2.4979 C   0  0  0  0  0  0  0  0  0  0  0  0
  -90.4928   28.9821   -3.6600 O   0  0  0  0  0  0  0  0  0  0  0  0
  -90.0271   29.0464   -1.4375 N   0  0  0  0  0  0  0  0  0  0  0  0
  -90.0115   28.8000   -0.0380 C   0  0  0  0  0  0  0  0  0  0  0  0
  -88.6768   28.3084    0.4442 C   0  0  0  0  0  0  0  0  0  0  0  0
  -87.5655   29.0953   -0.2527 C   0  0  0  0  0  0  0  0  0  0  0  0
  -88.0559   30.3719   -0.7858 C   0  0  0  0  0  0  0  0  0  0  0  0
  -89.1315   30.1898   -1.8265 C   0  0  0  0  0  0  0  0  0  0  0  0
  -86.4328   29.1546    0.6455 N   0  0  0  0  0  0  0  0  0  0  0  0
  -86.1487   27.7209    0.8878 C   0  0  0  0  0  0  0  0  0  0  0  0
  -86.3282   27.1842   -0.4731 N   0  0  0  0  0  0  0  0  0  0  0  0
  -87.0058   28.1518   -1.2711 C   0  0  0  0  0  0  0  0  0  0  0  0
  -87.0614   28.1316   -2.5104 O   0  0  0  0  0  0  0  0  0  0  0  0
  -85.9834   26.2279   -0.7396 H   0  0  0  0  0  0  0  0  0  0  0  0
  -85.6631   30.1622    1.2241 C   0  0  0  0  0  0  0  0  0  0  0  0
  -85.6977   30.2714    2.6253 C   0  0  0  0  0  0  0  0  0  0  0  0
  -84.9547   31.2178    3.2952 C   0  0  0  0  0  0  0  0  0  0  0  0
  -84.1422   32.1012    2.6107 C   0  0  0  0  0  0  0  0  0  0  0  0
  -84.1083   31.9940    1.2410 C   0  0  0  0  0  0  0  0  0  0  0  0
  -83.0723   33.1196    0.3602 Cl  0  0  0  0  0  0  0  0  0  0  0  0
  -84.8560   31.0390    0.5488 C   0  0  0  0  0  0  0  0  0  0  0  0
  -93.1591   24.9947   -2.8353 C   0  0  0  0  0  0  0  0  0  0  0  0
  -93.6729   26.2626   -2.9389 C   0  0  0  0  0  0  0  0  0  0  0  0
  -92.8331   27.3575   -2.8062 C   0  0  0  0  0  0  0  0  0  0  0  0
  -91.4723   27.2284   -2.5693 C   0  0  0  0  0  0  0  0  0  0  0  0
  -90.9686   25.9737   -2.4693 C   0  0  0  0  0  0  0  0  0  0  0  0
  -91.8184   24.8676   -2.6028 C   0  0  0  0  0  0  0  0  0  0  0  0
  -96.3286   20.4342   -3.3423 F   0  0  0  0  0  0  0  0  0  0  0  0
  -95.5772   21.5661   -3.2129 C   0  0  0  0  0  0  0  0  0  0  0  0
  -96.1440   22.7887   -2.9326 C   0  0  0  0  0  0  0  0  0  0  0  0
  -95.3554   23.9103   -2.8088 C   0  0  0  0  0  0  0  0  0  0  0  0
  -93.9911   23.8196   -2.9643 C   0  0  0  0  0  0  0  0  0  0  0  0
  -93.4172   22.5900   -3.2466 C   0  0  0  0  0  0  0  0  0  0  0  0
  -94.2207   21.4708   -3.3684 C   0  0  0  0  0  0  0  0  0  0  0  0
 28 29  1  0  0  0
 29 30  2  0  0  0
 30 31  1  0  0  0
 31 32  2  0  0  0
 32 33  1  0  0  0
 33 34  2  0  0  0
 32 22  1  0  0  0
 22 23  2  0  0  0
 23 24  1  0  0  0
 24 25  2  0  0  0
 25 26  1  0  0  0
 26 27  2  0  0  0
 25  1  1  0  0  0
  1  2  2  0  0  0
  1  3  1  0  0  0
  3  4  1  0  0  0
  4  5  1  0  0  0
  5  6  1  0  0  0
  6  7  1  0  0  0
  7  8  1  0  0  0
  6  9  1  0  0  0
  9 10  1  0  0  0
 10 11  1  0  0  0
 11 12  1  0  0  0
 12 13  2  0  0  0
  9 15  1  0  0  0
 15 16  2  0  0  0
 16 17  1  0  0  0
 17 18  2  0  0  0
 18 19  1  0  0  0
 19 20  1  0  0  0
 19 21  2  0  0  0
 34 29  1  0  0  0
 27 22  1  0  0  0
  8  3  1  0  0  0
 21 15  1  0  0  0
 12  6  1  0  0  0
 11 14  1  0  0  0
M  END
> <minimizedAffinity>
-6.36268

> <CNNscore>
0.1818320602

> <CNNaffinity>
5.9039788246

> <CNN_VS>
1.0735325813

> <CNNaffinity_variance>
0.4013952315

$$$$
[H]c1nc2c([H])c(OC([H])([H])C([H])([H])C([H])([H])N3C([H])([H])C([H])([H])N(C([H])([H])[H])C([H])([H])C3([H])[H])c(OC([H])([H])[H])c([H])c2c(N([H])c2c([H])c(OC([H])([H])[H])c(Cl)c([H])c2Cl)c1C#N


 37 40  0  0  0  0  0  0  0  0999 V2000
  -85.3706   29.7243    1.2180 C   0  0  0  0  0  0  0  0  0  0  0  0
  -84.0889   29.3589    1.5800 C   0  0  0  0  0  0  0  0  0  0  0  0
  -83.0593   30.2029    1.1605 C   0  0  0  0  0  0  0  0  0  0  0  0
  -83.3076   31.3122    0.4418 N   0  0  0  0  0  0  0  0  0  0  0  0
  -84.5649   31.6483    0.1004 C   0  0  0  0  0  0  0  0  0  0  0  0
  -84.8578   32.7922   -0.6446 C   0  0  0  0  0  0  0  0  0  0  0  0
  -86.1508   33.1292   -0.9904 C   0  0  0  0  0  0  0  0  0  0  0  0
  -87.2027   32.3243   -0.5975 C   0  0  0  0  0  0  0  0  0  0  0  0
  -86.9388   31.1788    0.1456 C   0  0  0  0  0  0  0  0  0  0  0  0
  -85.6366   30.8659    0.4771 C   0  0  0  0  0  0  0  0  0  0  0  0
  -86.4263   28.8895    1.6291 N   0  0  0  0  0  0  0  0  0  0  0  0
  -86.6955   28.8326    2.6347 H   0  0  0  0  0  0  0  0  0  0  0  0
  -88.0622   27.7377   -1.5439 C   0  0  0  0  0  0  0  0  0  0  0  0
  -87.3595   28.4612   -0.6135 C   0  0  0  0  0  0  0  0  0  0  0  0
  -87.1759   28.0848    0.6991 C   0  0  0  0  0  0  0  0  0  0  0  0
  -87.7482   26.8913    1.0839 C   0  0  0  0  0  0  0  0  0  0  0  0
  -87.5912   26.3003    2.7141 Cl  0  0  0  0  0  0  0  0  0  0  0  0
  -88.4716   26.1156    0.1844 C   0  0  0  0  0  0  0  0  0  0  0  0
  -88.6262   26.5358   -1.1158 C   0  0  0  0  0  0  0  0  0  0  0  0
  -89.5221   25.6156   -2.3047 Cl  0  0  0  0  0  0  0  0  0  0  0  0
  -87.9396   29.5158   -3.1494 C   0  0  0  0  0  0  0  0  0  0  0  0
  -88.2264   28.1540   -2.8682 O   0  0  0  0  0  0  0  0  0  0  0  0
  -88.4713   32.6978   -0.9633 O   0  0  0  0  0  0  0  0  0  0  0  0
  -89.6150   31.8862   -0.7921 C   0  0  0  0  0  0  0  0  0  0  0  0
  -83.8214   28.1680    2.3517 C   0  0  0  0  0  0  0  0  0  0  0  0
  -83.6246   27.2058    2.9697 N   0  0  0  0  0  0  0  0  0  0  0  0
  -86.4143   34.2816   -1.7378 O   0  0  0  0  0  0  0  0  0  0  0  0
  -86.8181   34.2308   -3.0835 C   0  0  0  0  0  0  0  0  0  0  0  0
  -87.8697   35.3027   -3.2797 C   0  0  0  0  0  0  0  0  0  0  0  0
  -89.1118   34.6319   -3.8173 C   0  0  0  0  0  0  0  0  0  0  0  0
  -89.9147   35.4907   -4.6232 N   0  0  0  0  0  0  0  0  0  0  0  0
  -90.0340   35.0754   -6.0004 C   0  0  0  0  0  0  0  0  0  0  0  0
  -89.4654   36.1010   -6.9553 C   0  0  0  0  0  0  0  0  0  0  0  0
  -90.1165   37.3861   -6.8167 N   0  0  0  0  0  0  0  0  0  0  0  0
  -89.1298   38.4095   -7.1425 C   0  0  0  0  0  0  0  0  0  0  0  0
  -90.5418   37.6401   -5.4558 C   0  0  0  0  0  0  0  0  0  0  0  0
  -89.6607   36.8855   -4.4662 C   0  0  0  0  0  0  0  0  0  0  0  0
 21 22  1  0  0  0
 22 13  1  0  0  0
 13 14  2  0  0  0
 14 15  1  0  0  0
 15 11  1  0  0  0
 11  1  1  0  0  0
  1  2  2  0  0  0
  2  3  1  0  0  0
  3  4  2  0  0  0
  4  5  1  0  0  0
  5  6  2  0  0  0
  6  7  1  0  0  0
  7 27  1  0  0  0
 27 28  1  0  0  0
 28 29  1  0  0  0
 29 30  1  0  0  0
 30 31  1  0  0  0
 31 32  1  0  0  0
 32 33  1  0  0  0
 33 34  1  0  0  0
 34 35  1  0  0  0
 34 36  1  0  0  0
 36 37  1  0  0  0
  7  8  2  0  0  0
  8 23  1  0  0  0
 23 24  1  0  0  0
  8  9  1  0  0  0
  9 10  2  0  0  0
  2 25  1  0  0  0
 25 26  3  0  0  0
 15 16  2  0  0  0
 16 17  1  0  0  0
 16 18  1  0  0  0
 18 19  2  0  0  0
 19 20  1  0  0  0
 19 13  1  0  0  0
 10  1  1  0  0  0
 10  5  1  0  0  0
 37 31  1  0  0  0
 11 12  1  0  0  0
M  END
> <minimizedAffinity>
-8.05243

> <CNNscore>
0.5404723287

> <CNNaffinity>
7.5098562241

> <CNN_VS>
4.0588693619

> <CNNaffinity_variance>
0.1123461723

$$$$
[H]c1nc2c([H])c(OC([H])([H])C([H])([H])C([H])([H])N3C([H])([H])C([H])([H])N(C([H])([H])[H])C([H])([H])C3([H])[H])c(OC([H])([H])[H])c([H])c2c(N([H])c2c([H])c(OC([H])([H])[H])c(Cl)c([H])c2Cl)c1C#N


 37 40  0  0  0  0  0  0  0  0999 V2000
  -85.5258   29.2662    0.7971 C   0  0  0  0  0  0  0  0  0  0  0  0
  -84.6108   29.4107    1.8213 C   0  0  0  0  0  0  0  0  0  0  0  0
  -84.2474   30.7173    2.1514 C   0  0  0  0  0  0  0  0  0  0  0  0
  -84.7638   31.7764    1.5030 N   0  0  0  0  0  0  0  0  0  0  0  0
  -85.6541   31.6114    0.5078 C   0  0  0  0  0  0  0  0  0  0  0  0
  -86.2096   32.6883   -0.1858 C   0  0  0  0  0  0  0  0  0  0  0  0
  -87.1222   32.5096   -1.2056 C   0  0  0  0  0  0  0  0  0  0  0  0
  -87.5123   31.2347   -1.5676 C   0  0  0  0  0  0  0  0  0  0  0  0
  -86.9744   30.1441   -0.8928 C   0  0  0  0  0  0  0  0  0  0  0  0
  -86.0638   30.3519    0.1226 C   0  0  0  0  0  0  0  0  0  0  0  0
  -85.9085   27.9585    0.4455 N   0  0  0  0  0  0  0  0  0  0  0  0
  -85.2748   27.3559   -0.1223 H   0  0  0  0  0  0  0  0  0  0  0  0
  -88.7773   26.8590    2.5976 C   0  0  0  0  0  0  0  0  0  0  0  0
  -87.5867   27.3808    2.1581 C   0  0  0  0  0  0  0  0  0  0  0  0
  -87.1725   27.3947    0.8442 C   0  0  0  0  0  0  0  0  0  0  0  0
  -88.0320   26.8391   -0.0791 C   0  0  0  0  0  0  0  0  0  0  0  0
  -87.6292   26.7929   -1.7723 Cl  0  0  0  0  0  0  0  0  0  0  0  0
  -89.2521   26.2952    0.3079 C   0  0  0  0  0  0  0  0  0  0  0  0
  -89.6196   26.3058    1.6330 C   0  0  0  0  0  0  0  0  0  0  0  0
  -91.1371   25.6409    2.1967 Cl  0  0  0  0  0  0  0  0  0  0  0  0
  -89.9180   27.9809    4.3850 C   0  0  0  0  0  0  0  0  0  0  0  0
  -89.1622   26.8637    3.9414 O   0  0  0  0  0  0  0  0  0  0  0  0
  -88.4219   31.1042   -2.5866 O   0  0  0  0  0  0  0  0  0  0  0  0
  -88.1105   30.5842   -3.8628 C   0  0  0  0  0  0  0  0  0  0  0  0
  -84.0556   28.2741    2.5180 C   0  0  0  0  0  0  0  0  0  0  0  0
  -83.6197   27.3492    3.0667 N   0  0  0  0  0  0  0  0  0  0  0  0
  -87.6621   33.6076   -1.8831 O   0  0  0  0  0  0  0  0  0  0  0  0
  -86.9551   34.2979   -2.8832 C   0  0  0  0  0  0  0  0  0  0  0  0
  -87.8318   34.3262   -4.1177 C   0  0  0  0  0  0  0  0  0  0  0  0
  -88.8859   35.3873   -3.9057 C   0  0  0  0  0  0  0  0  0  0  0  0
  -88.7956   36.4671   -4.8318 N   0  0  0  0  0  0  0  0  0  0  0  0
  -88.5319   36.0644   -6.1925 C   0  0  0  0  0  0  0  0  0  0  0  0
  -87.2226   36.6198   -6.7066 C   0  0  0  0  0  0  0  0  0  0  0  0
  -87.1920   38.0658   -6.6532 N   0  0  0  0  0  0  0  0  0  0  0  0
  -85.8061   38.4624   -6.4328 C   0  0  0  0  0  0  0  0  0  0  0  0
  -87.9541   38.5883   -5.5379 C   0  0  0  0  0  0  0  0  0  0  0  0
  -88.0076   37.5748   -4.3999 C   0  0  0  0  0  0  0  0  0  0  0  0
 21 22  1  0  0  0
 22 13  1  0  0  0
 13 14  2  0  0  0
 14 15  1  0  0  0
 15 11  1  0  0  0
 11  1  1  0  0  0
  1  2  2  0  0  0
  2  3  1  0  0  0
  3  4  2  0  0  0
  4  5  1  0  0  0
  5  6  2  0  0  0
  6  7  1  0  0  0
  7 27  1  0  0  0
 27 28  1  0  0  0
 28 29  1  0  0  0
 29 30  1  0  0  0
 30 31  1  0  0  0
 31 32  1  0  0  0
 32 33  1  0  0  0
 33 34  1  0  0  0
 34 35  1  0  0  0
 34 36  1  0  0  0
 36 37  1  0  0  0
  7  8  2  0  0  0
  8 23  1  0  0  0
 23 24  1  0  0  0
  8  9  1  0  0  0
  9 10  2  0  0  0
  2 25  1  0  0  0
 25 26  3  0  0  0
 15 16  2  0  0  0
 16 17  1  0  0  0
 16 18  1  0  0  0
 18 19  2  0  0  0
 19 20  1  0  0  0
 19 13  1  0  0  0
 10  1  1  0  0  0
 10  5  1  0  0  0
 37 31  1  0  0  0
 11 12  1  0  0  0
M  END
> <minimizedAffinity>
-7.65273

> <CNNscore>
0.2751460671

> <CNNaffinity>
7.2198028564

> <CNN_VS>
1.9865003824

> <CNNaffinity_variance>
0.0746348724

$$$$
[H]c1nc2c([H])c(OC([H])([H])C([H])([H])C([H])([H])N3C([H])([H])C([H])([H])N(C([H])([H])[H])C([H])([H])C3([H])[H])c(OC([H])([H])[H])c([H])c2c(N([H])c2c([H])c(OC([H])([H])[H])c(Cl)c([H])c2Cl)c1C#N


 37 40  0  0  0  0  0  0  0  0999 V2000
  -85.5505   29.1090    0.7111 C   0  0  0  0  0  0  0  0  0  0  0  0
  -84.6274   29.2431    1.7295 C   0  0  0  0  0  0  0  0  0  0  0  0
  -84.2529   30.5460    2.0623 C   0  0  0  0  0  0  0  0  0  0  0  0
  -84.7667   31.6111    1.4218 N   0  0  0  0  0  0  0  0  0  0  0  0
  -85.6649   31.4562    0.4321 C   0  0  0  0  0  0  0  0  0  0  0  0
  -86.2179   32.5396   -0.2533 C   0  0  0  0  0  0  0  0  0  0  0  0
  -87.1388   32.3712   -1.2674 C   0  0  0  0  0  0  0  0  0  0  0  0
  -87.5400   31.1004   -1.6318 C   0  0  0  0  0  0  0  0  0  0  0  0
  -87.0048   30.0035   -0.9651 C   0  0  0  0  0  0  0  0  0  0  0  0
  -86.0858   30.2010    0.0448 C   0  0  0  0  0  0  0  0  0  0  0  0
  -85.9444   27.8053    0.3570 N   0  0  0  0  0  0  0  0  0  0  0  0
  -85.2348   27.0969    0.0714 H   0  0  0  0  0  0  0  0  0  0  0  0
  -89.2347   26.4057   -0.7770 C   0  0  0  0  0  0  0  0  0  0  0  0
  -87.9276   26.8209   -0.7298 C   0  0  0  0  0  0  0  0  0  0  0  0
  -87.3233   27.3894    0.3701 C   0  0  0  0  0  0  0  0  0  0  0  0
  -88.1069   27.5425    1.4937 C   0  0  0  0  0  0  0  0  0  0  0  0
  -87.4655   28.2467    2.9511 Cl  0  0  0  0  0  0  0  0  0  0  0  0
  -89.4382   27.1401    1.5045 C   0  0  0  0  0  0  0  0  0  0  0  0
  -89.9949   26.5777    0.3799 C   0  0  0  0  0  0  0  0  0  0  0  0
  -91.6615   26.0475    0.3164 Cl  0  0  0  0  0  0  0  0  0  0  0  0
  -90.2813   26.7275   -2.9114 C   0  0  0  0  0  0  0  0  0  0  0  0
  -89.8122   25.8327   -1.9137 O   0  0  0  0  0  0  0  0  0  0  0  0
  -88.4575   30.9801   -2.6449 O   0  0  0  0  0  0  0  0  0  0  0  0
  -89.7458   30.4231   -2.4831 C   0  0  0  0  0  0  0  0  0  0  0  0
  -84.0751   28.1001    2.4178 C   0  0  0  0  0  0  0  0  0  0  0  0
  -83.6487   27.1775    2.9779 N   0  0  0  0  0  0  0  0  0  0  0  0
  -87.6760   33.4755   -1.9367 O   0  0  0  0  0  0  0  0  0  0  0  0
  -86.9568   34.1884   -2.9120 C   0  0  0  0  0  0  0  0  0  0  0  0
  -87.8356   35.3317   -3.3746 C   0  0  0  0  0  0  0  0  0  0  0  0
  -87.1700   35.9636   -4.5744 C   0  0  0  0  0  0  0  0  0  0  0  0
  -87.8878   35.7644   -5.7897 N   0  0  0  0  0  0  0  0  0  0  0  0
  -87.4309   36.5772   -6.8914 C   0  0  0  0  0  0  0  0  0  0  0  0
  -88.5072   37.5144   -7.3917 C   0  0  0  0  0  0  0  0  0  0  0  0
  -89.6884   36.7978   -7.8231 N   0  0  0  0  0  0  0  0  0  0  0  0
  -90.8355   37.6634   -7.5748 C   0  0  0  0  0  0  0  0  0  0  0  0
  -89.9072   35.5904   -7.0538 C   0  0  0  0  0  0  0  0  0  0  0  0
  -89.3076   35.7245   -5.6582 C   0  0  0  0  0  0  0  0  0  0  0  0
 21 22  1  0  0  0
 22 13  1  0  0  0
 13 14  2  0  0  0
 14 15  1  0  0  0
 15 11  1  0  0  0
 11  1  1  0  0  0
  1  2  2  0  0  0
  2  3  1  0  0  0
  3  4  2  0  0  0
  4  5  1  0  0  0
  5  6  2  0  0  0
  6  7  1  0  0  0
  7 27  1  0  0  0
 27 28  1  0  0  0
 28 29  1  0  0  0
 29 30  1  0  0  0
 30 31  1  0  0  0
 31 32  1  0  0  0
 32 33  1  0  0  0
 33 34  1  0  0  0
 34 35  1  0  0  0
 34 36  1  0  0  0
 36 37  1  0  0  0
  7  8  2  0  0  0
  8 23  1  0  0  0
 23 24  1  0  0  0
  8  9  1  0  0  0
  9 10  2  0  0  0
  2 25  1  0  0  0
 25 26  3  0  0  0
 15 16  2  0  0  0
 16 17  1  0  0  0
 16 18  1  0  0  0
 18 19  2  0  0  0
 19 20  1  0  0  0
 19 13  1  0  0  0
 10  1  1  0  0  0
 10  5  1  0  0  0
 37 31  1  0  0  0
 11 12  1  0  0  0
M  END
> <minimizedAffinity>
-7.62455

> <CNNscore>
0.2447904050

> <CNNaffinity>
7.0563821793

> <CNN_VS>
1.7273346186

> <CNNaffinity_variance>
0.1907161176

$$$$
[H]c1nc2c([H])c(OC([H])([H])C([H])([H])C([H])([H])N3C([H])([H])C([H])([H])N(C([H])([H])[H])C([H])([H])C3([H])[H])c(OC([H])([H])[H])c([H])c2c(N([H])c2c([H])c(OC([H])([H])[H])c(Cl)c([H])c2Cl)c1C#N


 37 40  0  0  0  0  0  0  0  0999 V2000
  -85.5294   29.1814    0.8176 C   0  0  0  0  0  0  0  0  0  0  0  0
  -84.6067   29.3159    1.8363 C   0  0  0  0  0  0  0  0  0  0  0  0
  -84.2455   30.6195    2.1806 C   0  0  0  0  0  0  0  0  0  0  0  0
  -84.7712   31.6850    1.5504 N   0  0  0  0  0  0  0  0  0  0  0  0
  -85.6689   31.5297    0.5603 C   0  0  0  0  0  0  0  0  0  0  0  0
  -86.2340   32.6135   -0.1145 C   0  0  0  0  0  0  0  0  0  0  0  0
  -87.1543   32.4446   -1.1292 C   0  0  0  0  0  0  0  0  0  0  0  0
  -87.5425   31.1731   -1.5048 C   0  0  0  0  0  0  0  0  0  0  0  0
  -86.9950   30.0758   -0.8488 C   0  0  0  0  0  0  0  0  0  0  0  0
  -86.0770   30.2737    0.1619 C   0  0  0  0  0  0  0  0  0  0  0  0
  -85.9100   27.8769    0.4519 N   0  0  0  0  0  0  0  0  0  0  0  0
  -85.2878   27.2918   -0.1460 H   0  0  0  0  0  0  0  0  0  0  0  0
  -88.7562   26.8084    2.6492 C   0  0  0  0  0  0  0  0  0  0  0  0
  -87.5814   27.3453    2.1860 C   0  0  0  0  0  0  0  0  0  0  0  0
  -87.1562   27.2929    0.8765 C   0  0  0  0  0  0  0  0  0  0  0  0
  -87.9869   26.6501   -0.0161 C   0  0  0  0  0  0  0  0  0  0  0  0
  -87.5677   26.5140   -1.7004 Cl  0  0  0  0  0  0  0  0  0  0  0  0
  -89.1900   26.0869    0.3959 C   0  0  0  0  0  0  0  0  0  0  0  0
  -89.5693   26.1661    1.7153 C   0  0  0  0  0  0  0  0  0  0  0  0
  -91.0668   25.4821    2.3091 Cl  0  0  0  0  0  0  0  0  0  0  0  0
  -89.9370   28.0059    4.3598 C   0  0  0  0  0  0  0  0  0  0  0  0
  -89.1530   26.8822    3.9875 O   0  0  0  0  0  0  0  0  0  0  0  0
  -88.4599   31.0524   -2.5180 O   0  0  0  0  0  0  0  0  0  0  0  0
  -88.1278   30.7169   -3.8496 C   0  0  0  0  0  0  0  0  0  0  0  0
  -84.0415   28.1725    2.5134 C   0  0  0  0  0  0  0  0  0  0  0  0
  -83.5891   27.2435    3.0414 N   0  0  0  0  0  0  0  0  0  0  0  0
  -87.7039   33.5494   -1.7877 O   0  0  0  0  0  0  0  0  0  0  0  0
  -86.9703   34.3206   -2.7062 C   0  0  0  0  0  0  0  0  0  0  0  0
  -87.9678   35.0798   -3.5559 C   0  0  0  0  0  0  0  0  0  0  0  0
  -88.0374   34.3954   -4.9008 C   0  0  0  0  0  0  0  0  0  0  0  0
  -89.3688   34.2238   -5.3799 N   0  0  0  0  0  0  0  0  0  0  0  0
  -89.7814   35.2034   -6.3563 C   0  0  0  0  0  0  0  0  0  0  0  0
  -90.9568   36.0251   -5.8762 C   0  0  0  0  0  0  0  0  0  0  0  0
  -92.1011   35.1968   -5.5612 N   0  0  0  0  0  0  0  0  0  0  0  0
  -92.8346   35.8601   -4.4893 C   0  0  0  0  0  0  0  0  0  0  0  0
  -91.7126   33.8971   -5.0538 C   0  0  0  0  0  0  0  0  0  0  0  0
  -90.3489   33.9691   -4.3753 C   0  0  0  0  0  0  0  0  0  0  0  0
 21 22  1  0  0  0
 22 13  1  0  0  0
 13 14  2  0  0  0
 14 15  1  0  0  0
 15 11  1  0  0  0
 11  1  1  0  0  0
  1  2  2  0  0  0
  2  3  1  0  0  0
  3  4  2  0  0  0
  4  5  1  0  0  0
  5  6  2  0  0  0
  6  7  1  0  0  0
  7 27  1  0  0  0
 27 28  1  0  0  0
 28 29  1  0  0  0
 29 30  1  0  0  0
 30 31  1  0  0  0
 31 32  1  0  0  0
 32 33  1  0  0  0
 33 34  1  0  0  0
 34 35  1  0  0  0
 34 36  1  0  0  0
 36 37  1  0  0  0
  7  8  2  0  0  0
  8 23  1  0  0  0
 23 24  1  0  0  0
  8  9  1  0  0  0
  9 10  2  0  0  0
  2 25  1  0  0  0
 25 26  3  0  0  0
 15 16  2  0  0  0
 16 17  1  0  0  0
 16 18  1  0  0  0
 18 19  2  0  0  0
 19 20  1  0  0  0
 19 13  1  0  0  0
 10  1  1  0  0  0
 10  5  1  0  0  0
 37 31  1  0  0  0
 11 12  1  0  0  0
M  END
> <minimizedAffinity>
-7.55285

> <CNNscore>
0.2198302746

> <CNNaffinity>
7.2069106102

> <CNN_VS>
1.5842971802

> <CNNaffinity_variance>
0.1136806756

$$$$
[H]c1nc2c([H])c(OC([H])([H])C([H])([H])C([H])([H])N3C([H])([H])C([H])([H])N(C([H])([H])[H])C([H])([H])C3([H])[H])c(OC([H])([H])[H])c([H])c2c(N([H])c2c([H])c(OC([H])([H])[H])c(Cl)c([H])c2Cl)c1C#N


 37 40  0  0  0  0  0  0  0  0999 V2000
  -85.5805   30.2882   -0.0186 C   0  0  0  0  0  0  0  0  0  0  0  0
  -84.5036   30.8579    0.6316 C   0  0  0  0  0  0  0  0  0  0  0  0
  -84.4271   32.2514    0.6055 C   0  0  0  0  0  0  0  0  0  0  0  0
  -85.3558   32.9954   -0.0213 N   0  0  0  0  0  0  0  0  0  0  0  0
  -86.3968   32.4182   -0.6485 C   0  0  0  0  0  0  0  0  0  0  0  0
  -87.3781   33.1603   -1.3085 C   0  0  0  0  0  0  0  0  0  0  0  0
  -88.4426   32.5595   -1.9494 C   0  0  0  0  0  0  0  0  0  0  0  0
  -88.5605   31.1830   -1.9503 C   0  0  0  0  0  0  0  0  0  0  0  0
  -87.5967   30.4198   -1.3001 C   0  0  0  0  0  0  0  0  0  0  0  0
  -86.5430   31.0467   -0.6676 C   0  0  0  0  0  0  0  0  0  0  0  0
  -85.6801   28.8845   -0.0065 N   0  0  0  0  0  0  0  0  0  0  0  0
  -84.9045   28.2954   -0.3787 H   0  0  0  0  0  0  0  0  0  0  0  0
  -88.8764   26.9255    0.1208 C   0  0  0  0  0  0  0  0  0  0  0  0
  -87.7571   27.5902   -0.3131 C   0  0  0  0  0  0  0  0  0  0  0  0
  -86.8375   28.2011    0.5111 C   0  0  0  0  0  0  0  0  0  0  0  0
  -87.0788   28.1267    1.8662 C   0  0  0  0  0  0  0  0  0  0  0  0
  -85.9945   28.8563    3.0165 Cl  0  0  0  0  0  0  0  0  0  0  0  0
  -88.1970   27.4662    2.3640 C   0  0  0  0  0  0  0  0  0  0  0  0
  -89.0857   26.8722    1.4989 C   0  0  0  0  0  0  0  0  0  0  0  0
  -90.5143   26.0240    2.0491 Cl  0  0  0  0  0  0  0  0  0  0  0  0
  -89.3826   25.0935   -1.3428 C   0  0  0  0  0  0  0  0  0  0  0  0
  -89.7872   26.3178   -0.7482 O   0  0  0  0  0  0  0  0  0  0  0  0
  -89.6348   30.6288   -2.5996 O   0  0  0  0  0  0  0  0  0  0  0  0
  -90.5138   29.6899   -2.0149 C   0  0  0  0  0  0  0  0  0  0  0  0
  -83.5059   30.0599    1.3047 C   0  0  0  0  0  0  0  0  0  0  0  0
  -82.7117   29.4029    1.8379 N   0  0  0  0  0  0  0  0  0  0  0  0
  -89.4110   33.3286   -2.6028 O   0  0  0  0  0  0  0  0  0  0  0  0
  -89.1513   33.9995   -3.8106 C   0  0  0  0  0  0  0  0  0  0  0  0
  -90.4833   34.4541   -4.3696 C   0  0  0  0  0  0  0  0  0  0  0  0
  -90.9184   33.4375   -5.3987 C   0  0  0  0  0  0  0  0  0  0  0  0
  -92.2721   33.0193   -5.2436 N   0  0  0  0  0  0  0  0  0  0  0  0
  -92.4926   32.1106   -4.1441 C   0  0  0  0  0  0  0  0  0  0  0  0
  -93.0136   30.7695   -4.6100 C   0  0  0  0  0  0  0  0  0  0  0  0
  -94.2560   30.8981   -5.3412 N   0  0  0  0  0  0  0  0  0  0  0  0
  -94.2941   29.8215   -6.3242 C   0  0  0  0  0  0  0  0  0  0  0  0
  -94.3277   32.1393   -6.0842 C   0  0  0  0  0  0  0  0  0  0  0  0
  -92.9309   32.6311   -6.4477 C   0  0  0  0  0  0  0  0  0  0  0  0
 21 22  1  0  0  0
 22 13  1  0  0  0
 13 14  2  0  0  0
 14 15  1  0  0  0
 15 11  1  0  0  0
 11  1  1  0  0  0
  1  2  2  0  0  0
  2  3  1  0  0  0
  3  4  2  0  0  0
  4  5  1  0  0  0
  5  6  2  0  0  0
  6  7  1  0  0  0
  7 27  1  0  0  0
 27 28  1  0  0  0
 28 29  1  0  0  0
 29 30  1  0  0  0
 30 31  1  0  0  0
 31 32  1  0  0  0
 32 33  1  0  0  0
 33 34  1  0  0  0
 34 35  1  0  0  0
 34 36  1  0  0  0
 36 37  1  0  0  0
  7  8  2  0  0  0
  8 23  1  0  0  0
 23 24  1  0  0  0
  8  9  1  0  0  0
  9 10  2  0  0  0
  2 25  1  0  0  0
 25 26  3  0  0  0
 15 16  2  0  0  0
 16 17  1  0  0  0
 16 18  1  0  0  0
 18 19  2  0  0  0
 19 20  1  0  0  0
 19 13  1  0  0  0
 10  1  1  0  0  0
 10  5  1  0  0  0
 37 31  1  0  0  0
 11 12  1  0  0  0
M  END
> <minimizedAffinity>
-7.01134

> <CNNscore>
0.1980145276

> <CNNaffinity>
6.9525871277

> <CNN_VS>
1.3767132759

> <CNNaffinity_variance>
0.3185741603

$$$$
[H]c1nc2c([H])c(OC([H])([H])C([H])([H])C([H])([H])N3C([H])([H])C([H])([H])N(C([H])([H])[H])C([H])([H])C3([H])[H])c(OC([H])([H])[H])c([H])c2c(N([H])c2c([H])c(OC([H])([H])[H])c(Cl)c([H])c2Cl)c1C#N


 37 40  0  0  0  0  0  0  0  0999 V2000
  -88.5746   31.2714   -1.9001 C   0  0  0  0  0  0  0  0  0  0  0  0
  -88.0870   31.7805   -3.0876 C   0  0  0  0  0  0  0  0  0  0  0  0
  -88.6321   31.2553   -4.2603 C   0  0  0  0  0  0  0  0  0  0  0  0
  -89.5820   30.3037   -4.2300 N   0  0  0  0  0  0  0  0  0  0  0  0
  -90.0421   29.8224   -3.0608 C   0  0  0  0  0  0  0  0  0  0  0  0
  -91.0269   28.8351   -2.9933 C   0  0  0  0  0  0  0  0  0  0  0  0
  -91.4929   28.3472   -1.7893 C   0  0  0  0  0  0  0  0  0  0  0  0
  -90.9832   28.8368   -0.6022 C   0  0  0  0  0  0  0  0  0  0  0  0
  -90.0012   29.8209   -0.6409 C   0  0  0  0  0  0  0  0  0  0  0  0
  -89.5538   30.2903   -1.8586 C   0  0  0  0  0  0  0  0  0  0  0  0
  -88.0409   31.7848   -0.7036 N   0  0  0  0  0  0  0  0  0  0  0  0
  -88.5052   32.5804   -0.2151 H   0  0  0  0  0  0  0  0  0  0  0  0
  -85.6061   29.3419    0.7710 C   0  0  0  0  0  0  0  0  0  0  0  0
  -86.7165   29.9102    0.1992 C   0  0  0  0  0  0  0  0  0  0  0  0
  -86.8471   31.2481   -0.1025 C   0  0  0  0  0  0  0  0  0  0  0  0
  -85.7722   32.0562    0.2004 C   0  0  0  0  0  0  0  0  0  0  0  0
  -85.8076   33.7652   -0.1301 Cl  0  0  0  0  0  0  0  0  0  0  0  0
  -84.6203   31.5360    0.7807 C   0  0  0  0  0  0  0  0  0  0  0  0
  -84.5396   30.1925    1.0625 C   0  0  0  0  0  0  0  0  0  0  0  0
  -83.1250   29.4647    1.7920 Cl  0  0  0  0  0  0  0  0  0  0  0  0
  -86.5480   27.4222    1.8582 C   0  0  0  0  0  0  0  0  0  0  0  0
  -85.5118   27.9780    1.0624 O   0  0  0  0  0  0  0  0  0  0  0  0
  -91.4757   28.3231    0.5710 O   0  0  0  0  0  0  0  0  0  0  0  0
  -90.7597   28.3055    1.7888 C   0  0  0  0  0  0  0  0  0  0  0  0
  -87.0670   32.8022   -3.1212 C   0  0  0  0  0  0  0  0  0  0  0  0
  -86.2595   33.6348   -3.1573 N   0  0  0  0  0  0  0  0  0  0  0  0
  -92.4804   27.3575   -1.7523 O   0  0  0  0  0  0  0  0  0  0  0  0
  -93.8117   27.6072   -2.1290 C   0  0  0  0  0  0  0  0  0  0  0  0
  -93.7914   28.7409   -3.1329 C   0  0  0  0  0  0  0  0  0  0  0  0
  -94.5980   29.8792   -2.5537 C   0  0  0  0  0  0  0  0  0  0  0  0
  -94.0944   31.1655   -2.9051 N   0  0  0  0  0  0  0  0  0  0  0  0
  -94.9793   32.2597   -2.5844 C   0  0  0  0  0  0  0  0  0  0  0  0
  -95.4130   33.0208   -3.8170 C   0  0  0  0  0  0  0  0  0  0  0  0
  -94.2829   33.5571   -4.5451 N   0  0  0  0  0  0  0  0  0  0  0  0
  -94.6508   33.5872   -5.9560 C   0  0  0  0  0  0  0  0  0  0  0  0
  -93.1129   32.7098   -4.4408 C   0  0  0  0  0  0  0  0  0  0  0  0
  -93.5178   31.2585   -4.2065 C   0  0  0  0  0  0  0  0  0  0  0  0
 21 22  1  0  0  0
 22 13  1  0  0  0
 13 14  2  0  0  0
 14 15  1  0  0  0
 15 11  1  0  0  0
 11  1  1  0  0  0
  1  2  2  0  0  0
  2  3  1  0  0  0
  3  4  2  0  0  0
  4  5  1  0  0  0
  5  6  2  0  0  0
  6  7  1  0  0  0
  7 27  1  0  0  0
 27 28  1  0  0  0
 28 29  1  0  0  0
 29 30  1  0  0  0
 30 31  1  0  0  0
 31 32  1  0  0  0
 32 33  1  0  0  0
 33 34  1  0  0  0
 34 35  1  0  0  0
 34 36  1  0  0  0
 36 37  1  0  0  0
  7  8  2  0  0  0
  8 23  1  0  0  0
 23 24  1  0  0  0
  8  9  1  0  0  0
  9 10  2  0  0  0
  2 25  1  0  0  0
 25 26  3  0  0  0
 15 16  2  0  0  0
 16 17  1  0  0  0
 16 18  1  0  0  0
 18 19  2  0  0  0
 19 20  1  0  0  0
 19 13  1  0  0  0
 10  1  1  0  0  0
 10  5  1  0  0  0
 37 31  1  0  0  0
 11 12  1  0  0  0
M  END
> <minimizedAffinity>
-6.60930

> <CNNscore>
0.1899999678

> <CNNaffinity>
6.7031059265

> <CNN_VS>
1.2735899687

> <CNNaffinity_variance>
0.2956580222

$$$$
[H]c1nc2c([H])c(OC([H])([H])C([H])([H])C([H])([H])N3C([H])([H])C([H])([H])N(C([H])([H])[H])C([H])([H])C3([H])[H])c(OC([H])([H])[H])c([H])c2c(N([H])c2c([H])c(OC([H])([H])[H])c(Cl)c([H])c2Cl)c1C#N


 37 40  0  0  0  0  0  0  0  0999 V2000
  -85.6343   30.1849    0.0324 C   0  0  0  0  0  0  0  0  0  0  0  0
  -84.5469   30.8142    0.6057 C   0  0  0  0  0  0  0  0  0  0  0  0
  -84.5088   32.2059    0.5046 C   0  0  0  0  0  0  0  0  0  0  0  0
  -85.4821   32.8929   -0.1193 N   0  0  0  0  0  0  0  0  0  0  0  0
  -86.5324   32.2583   -0.6709 C   0  0  0  0  0  0  0  0  0  0  0  0
  -87.5597   32.9404   -1.3257 C   0  0  0  0  0  0  0  0  0  0  0  0
  -88.6334   32.2809   -1.8887 C   0  0  0  0  0  0  0  0  0  0  0  0
  -88.7146   30.9038   -1.8137 C   0  0  0  0  0  0  0  0  0  0  0  0
  -87.7047   30.1997   -1.1668 C   0  0  0  0  0  0  0  0  0  0  0  0
  -86.6427   30.8845   -0.6131 C   0  0  0  0  0  0  0  0  0  0  0  0
  -85.6959   28.7818    0.1210 N   0  0  0  0  0  0  0  0  0  0  0  0
  -84.9334   28.1921   -0.2763 H   0  0  0  0  0  0  0  0  0  0  0  0
  -88.7696   26.6817    0.5822 C   0  0  0  0  0  0  0  0  0  0  0  0
  -87.7043   27.3526    0.0364 C   0  0  0  0  0  0  0  0  0  0  0  0
  -86.7956   28.0997    0.7535 C   0  0  0  0  0  0  0  0  0  0  0  0
  -86.9897   28.1643    2.1166 C   0  0  0  0  0  0  0  0  0  0  0  0
  -85.9133   29.0744    3.1385 Cl  0  0  0  0  0  0  0  0  0  0  0  0
  -88.0521   27.5048    2.7255 C   0  0  0  0  0  0  0  0  0  0  0  0
  -88.9321   26.7715    1.9648 C   0  0  0  0  0  0  0  0  0  0  0  0
  -90.2920   25.9151    2.6578 Cl  0  0  0  0  0  0  0  0  0  0  0  0
  -89.1794   25.3859   -1.3945 C   0  0  0  0  0  0  0  0  0  0  0  0
  -89.6710   25.9332   -0.1801 O   0  0  0  0  0  0  0  0  0  0  0  0
  -89.7996   30.2901   -2.3871 O   0  0  0  0  0  0  0  0  0  0  0  0
  -89.9303   28.8912   -2.5348 C   0  0  0  0  0  0  0  0  0  0  0  0
  -83.5013   30.0773    1.2758 C   0  0  0  0  0  0  0  0  0  0  0  0
  -82.6738   29.4716    1.8188 N   0  0  0  0  0  0  0  0  0  0  0  0
  -89.6481   32.9908   -2.5389 O   0  0  0  0  0  0  0  0  0  0  0  0
  -89.6542   33.1922   -3.9303 C   0  0  0  0  0  0  0  0  0  0  0  0
  -89.5201   34.6813   -4.1711 C   0  0  0  0  0  0  0  0  0  0  0  0
  -88.4410   34.8813   -5.2090 C   0  0  0  0  0  0  0  0  0  0  0  0
  -87.4293   35.7998   -4.8034 N   0  0  0  0  0  0  0  0  0  0  0  0
  -87.6485   36.3926   -3.5058 C   0  0  0  0  0  0  0  0  0  0  0  0
  -87.8008   37.8951   -3.5850 C   0  0  0  0  0  0  0  0  0  0  0  0
  -86.6385   38.5246   -4.1748 N   0  0  0  0  0  0  0  0  0  0  0  0
  -87.0994   39.7201   -4.8713 C   0  0  0  0  0  0  0  0  0  0  0  0
  -86.0069   37.6835   -5.1704 C   0  0  0  0  0  0  0  0  0  0  0  0
  -87.0233   36.7368   -5.7993 C   0  0  0  0  0  0  0  0  0  0  0  0
 21 22  1  0  0  0
 22 13  1  0  0  0
 13 14  2  0  0  0
 14 15  1  0  0  0
 15 11  1  0  0  0
 11  1  1  0  0  0
  1  2  2  0  0  0
  2  3  1  0  0  0
  3  4  2  0  0  0
  4  5  1  0  0  0
  5  6  2  0  0  0
  6  7  1  0  0  0
  7 27  1  0  0  0
 27 28  1  0  0  0
 28 29  1  0  0  0
 29 30  1  0  0  0
 30 31  1  0  0  0
 31 32  1  0  0  0
 32 33  1  0  0  0
 33 34  1  0  0  0
 34 35  1  0  0  0
 34 36  1  0  0  0
 36 37  1  0  0  0
  7  8  2  0  0  0
  8 23  1  0  0  0
 23 24  1  0  0  0
  8  9  1  0  0  0
  9 10  2  0  0  0
  2 25  1  0  0  0
 25 26  3  0  0  0
 15 16  2  0  0  0
 16 17  1  0  0  0
 16 18  1  0  0  0
 18 19  2  0  0  0
 19 20  1  0  0  0
 19 13  1  0  0  0
 10  1  1  0  0  0
 10  5  1  0  0  0
 37 31  1  0  0  0
 11 12  1  0  0  0
M  END
> <minimizedAffinity>
-7.54776

> <CNNscore>
0.1871628761

> <CNNaffinity>
7.0627493858

> <CNN_VS>
1.3218845129

> <CNNaffinity_variance>
0.3518877327

$$$$
[H]c1nc2c([H])c(OC([H])([H])C([H])([H])C([H])([H])N3C([H])([H])C([H])([H])N(C([H])([H])[H])C([H])([H])C3([H])[H])c(OC([H])([H])[H])c([H])c2c(N([H])c2c([H])c(OC([H])([H])[H])c(Cl)c([H])c2Cl)c1C#N


 37 40  0  0  0  0  0  0  0  0999 V2000
  -88.4787   31.1879   -1.7975 C   0  0  0  0  0  0  0  0  0  0  0  0
  -88.2243   31.7455   -3.0351 C   0  0  0  0  0  0  0  0  0  0  0  0
  -88.8273   31.1276   -4.1318 C   0  0  0  0  0  0  0  0  0  0  0  0
  -89.6137   30.0464   -3.9857 N   0  0  0  0  0  0  0  0  0  0  0  0
  -89.8475   29.5202   -2.7697 C   0  0  0  0  0  0  0  0  0  0  0  0
  -90.6583   28.3991   -2.5825 C   0  0  0  0  0  0  0  0  0  0  0  0
  -90.8925   27.8660   -1.3311 C   0  0  0  0  0  0  0  0  0  0  0  0
  -90.3172   28.4436   -0.2158 C   0  0  0  0  0  0  0  0  0  0  0  0
  -89.5051   29.5615   -0.3741 C   0  0  0  0  0  0  0  0  0  0  0  0
  -89.2881   30.0734   -1.6367 C   0  0  0  0  0  0  0  0  0  0  0  0
  -87.8822   31.7929   -0.6757 N   0  0  0  0  0  0  0  0  0  0  0  0
  -88.3370   32.6064   -0.2084 H   0  0  0  0  0  0  0  0  0  0  0  0
  -85.2632   29.5067    0.7333 C   0  0  0  0  0  0  0  0  0  0  0  0
  -86.4272   30.0074    0.2064 C   0  0  0  0  0  0  0  0  0  0  0  0
  -86.6350   31.3284   -0.1249 C   0  0  0  0  0  0  0  0  0  0  0  0
  -85.5842   32.1924    0.0972 C   0  0  0  0  0  0  0  0  0  0  0  0
  -85.7158   33.8874   -0.2783 Cl  0  0  0  0  0  0  0  0  0  0  0  0
  -84.3807   31.7419    0.6290 C   0  0  0  0  0  0  0  0  0  0  0  0
  -84.2234   30.4125    0.9433 C   0  0  0  0  0  0  0  0  0  0  0  0
  -82.7404   29.7710    1.6158 Cl  0  0  0  0  0  0  0  0  0  0  0  0
  -86.0942   27.5624    1.8661 C   0  0  0  0  0  0  0  0  0  0  0  0
  -85.0909   28.1578    1.0569 O   0  0  0  0  0  0  0  0  0  0  0  0
  -90.5775   27.8806    1.0081 O   0  0  0  0  0  0  0  0  0  0  0  0
  -89.6882   27.9268    2.1050 C   0  0  0  0  0  0  0  0  0  0  0  0
  -87.3800   32.9063   -3.1929 C   0  0  0  0  0  0  0  0  0  0  0  0
  -86.6873   33.8298   -3.3110 N   0  0  0  0  0  0  0  0  0  0  0  0
  -91.7094   26.7417   -1.1738 O   0  0  0  0  0  0  0  0  0  0  0  0
  -92.9056   26.5730   -1.8929 C   0  0  0  0  0  0  0  0  0  0  0  0
  -93.0837   25.0880   -2.1303 C   0  0  0  0  0  0  0  0  0  0  0  0
  -93.6980   24.9142   -3.4994 C   0  0  0  0  0  0  0  0  0  0  0  0
  -93.9289   23.5512   -3.8468 N   0  0  0  0  0  0  0  0  0  0  0  0
  -95.2934   23.1146   -3.6710 C   0  0  0  0  0  0  0  0  0  0  0  0
  -95.4077   21.9994   -2.6561 C   0  0  0  0  0  0  0  0  0  0  0  0
  -94.6132   20.8482   -3.0280 N   0  0  0  0  0  0  0  0  0  0  0  0
  -94.1791   20.2038   -1.7939 C   0  0  0  0  0  0  0  0  0  0  0  0
  -93.4112   21.2214   -3.7446 C   0  0  0  0  0  0  0  0  0  0  0  0
  -92.9636   22.6251   -3.3518 C   0  0  0  0  0  0  0  0  0  0  0  0
 21 22  1  0  0  0
 22 13  1  0  0  0
 13 14  2  0  0  0
 14 15  1  0  0  0
 15 11  1  0  0  0
 11  1  1  0  0  0
  1  2  2  0  0  0
  2  3  1  0  0  0
  3  4  2  0  0  0
  4  5  1  0  0  0
  5  6  2  0  0  0
  6  7  1  0  0  0
  7 27  1  0  0  0
 27 28  1  0  0  0
 28 29  1  0  0  0
 29 30  1  0  0  0
 30 31  1  0  0  0
 31 32  1  0  0  0
 32 33  1  0  0  0
 33 34  1  0  0  0
 34 35  1  0  0  0
 34 36  1  0  0  0
 36 37  1  0  0  0
  7  8  2  0  0  0
  8 23  1  0  0  0
 23 24  1  0  0  0
  8  9  1  0  0  0
  9 10  2  0  0  0
  2 25  1  0  0  0
 25 26  3  0  0  0
 15 16  2  0  0  0
 16 17  1  0  0  0
 16 18  1  0  0  0
 18 19  2  0  0  0
 19 20  1  0  0  0
 19 13  1  0  0  0
 10  1  1  0  0  0
 10  5  1  0  0  0
 37 31  1  0  0  0
 11 12  1  0  0  0
M  END
> <minimizedAffinity>
-6.80446

> <CNNscore>
0.1759864092

> <CNNaffinity>
6.5197930336

> <CNN_VS>
1.1473950148

> <CNNaffinity_variance>
0.2167457342

$$$$
[H]c1nc2c([H])c(OC([H])([H])C([H])([H])C([H])([H])N3C([H])([H])C([H])([H])N(C([H])([H])[H])C([H])([H])C3([H])[H])c(OC([H])([H])[H])c([H])c2c(N([H])c2c([H])c(OC([H])([H])[H])c(Cl)c([H])c2Cl)c1C#N


 37 40  0  0  0  0  0  0  0  0999 V2000
  -88.3936   31.1542   -1.7236 C   0  0  0  0  0  0  0  0  0  0  0  0
  -88.1281   31.7048   -2.9619 C   0  0  0  0  0  0  0  0  0  0  0  0
  -88.7353   31.0912   -4.0588 C   0  0  0  0  0  0  0  0  0  0  0  0
  -89.5359   30.0206   -3.9121 N   0  0  0  0  0  0  0  0  0  0  0  0
  -89.7803   29.5010   -2.6953 C   0  0  0  0  0  0  0  0  0  0  0  0
  -90.6059   28.3909   -2.5075 C   0  0  0  0  0  0  0  0  0  0  0  0
  -90.8509   27.8646   -1.2553 C   0  0  0  0  0  0  0  0  0  0  0  0
  -90.2719   28.4382   -0.1398 C   0  0  0  0  0  0  0  0  0  0  0  0
  -89.4453   29.5452   -0.2987 C   0  0  0  0  0  0  0  0  0  0  0  0
  -89.2176   30.0505   -1.5622 C   0  0  0  0  0  0  0  0  0  0  0  0
  -87.7931   31.7549   -0.6016 N   0  0  0  0  0  0  0  0  0  0  0  0
  -88.2332   32.5826   -0.1451 H   0  0  0  0  0  0  0  0  0  0  0  0
  -85.2494   29.4276    0.8761 C   0  0  0  0  0  0  0  0  0  0  0  0
  -86.3965   29.9498    0.3334 C   0  0  0  0  0  0  0  0  0  0  0  0
  -86.5618   31.2668   -0.0359 C   0  0  0  0  0  0  0  0  0  0  0  0
  -85.4840   32.1028    0.1628 C   0  0  0  0  0  0  0  0  0  0  0  0
  -85.5610   33.7896   -0.2613 Cl  0  0  0  0  0  0  0  0  0  0  0  0
  -84.2957   31.6295    0.7091 C   0  0  0  0  0  0  0  0  0  0  0  0
  -84.1812   30.3053    1.0616 C   0  0  0  0  0  0  0  0  0  0  0  0
  -82.7199   29.6362    1.7543 Cl  0  0  0  0  0  0  0  0  0  0  0  0
  -86.2482   27.4772    1.8522 C   0  0  0  0  0  0  0  0  0  0  0  0
  -85.1206   28.0837    1.2386 O   0  0  0  0  0  0  0  0  0  0  0  0
  -90.5434   27.8823    1.0849 O   0  0  0  0  0  0  0  0  0  0  0  0
  -91.1260   28.5872    2.1618 C   0  0  0  0  0  0  0  0  0  0  0  0
  -87.2685   32.8543   -3.1204 C   0  0  0  0  0  0  0  0  0  0  0  0
  -86.5632   33.7678   -3.2409 N   0  0  0  0  0  0  0  0  0  0  0  0
  -91.6825   26.7512   -1.0974 O   0  0  0  0  0  0  0  0  0  0  0  0
  -91.7845   25.7428   -2.0717 C   0  0  0  0  0  0  0  0  0  0  0  0
  -90.6500   24.7684   -1.8329 C   0  0  0  0  0  0  0  0  0  0  0  0
  -91.1289   23.3979   -2.2502 C   0  0  0  0  0  0  0  0  0  0  0  0
  -91.1871   22.4668   -1.1726 N   0  0  0  0  0  0  0  0  0  0  0  0
  -92.4438   22.4553   -0.4626 C   0  0  0  0  0  0  0  0  0  0  0  0
  -92.2803   22.8437    0.9897 C   0  0  0  0  0  0  0  0  0  0  0  0
  -91.3653   21.9630    1.6838 N   0  0  0  0  0  0  0  0  0  0  0  0
  -90.7106   22.7494    2.7229 C   0  0  0  0  0  0  0  0  0  0  0  0
  -90.3162   21.4696    0.8157 C   0  0  0  0  0  0  0  0  0  0  0  0
  -90.0462   22.4545   -0.3167 C   0  0  0  0  0  0  0  0  0  0  0  0
 21 22  1  0  0  0
 22 13  1  0  0  0
 13 14  2  0  0  0
 14 15  1  0  0  0
 15 11  1  0  0  0
 11  1  1  0  0  0
  1  2  2  0  0  0
  2  3  1  0  0  0
  3  4  2  0  0  0
  4  5  1  0  0  0
  5  6  2  0  0  0
  6  7  1  0  0  0
  7 27  1  0  0  0
 27 28  1  0  0  0
 28 29  1  0  0  0
 29 30  1  0  0  0
 30 31  1  0  0  0
 31 32  1  0  0  0
 32 33  1  0  0  0
 33 34  1  0  0  0
 34 35  1  0  0  0
 34 36  1  0  0  0
 36 37  1  0  0  0
  7  8  2  0  0  0
  8 23  1  0  0  0
 23 24  1  0  0  0
  8  9  1  0  0  0
  9 10  2  0  0  0
  2 25  1  0  0  0
 25 26  3  0  0  0
 15 16  2  0  0  0
 16 17  1  0  0  0
 16 18  1  0  0  0
 18 19  2  0  0  0
 19 20  1  0  0  0
 19 13  1  0  0  0
 10  1  1  0  0  0
 10  5  1  0  0  0
 37 31  1  0  0  0
 11 12  1  0  0  0
M  END
> <minimizedAffinity>
-8.02098

> <CNNscore>
0.1526952684

> <CNNaffinity>
6.4126219749

> <CNN_VS>
0.9791770577

> <CNNaffinity_variance>
0.9474897385

$$$$
[H]c1nc2c([H])c([H])c([H])c([H])n2c1-c1c([H])c(N([H])C(=O)c2c([H])c([H])c(C([H])([H])N3C([H])([H])C([H])([H])N(C([H])([H])[H])C([H])([H])C3([H])[H])c(C(F)(F)F)c2[H])c([H])c([H])c1C([H])([H])[H]


 38 42  0  0  0  0  0  0  0  0999 V2000
  -88.9409   28.2239    0.4468 C   0  0  0  0  0  0  0  0  0  0  0  0
  -87.8476   28.2954    1.0723 O   0  0  0  0  0  0  0  0  0  0  0  0
  -89.4735   29.1939   -0.4133 N   0  0  0  0  0  0  0  0  0  0  0  0
  -90.4205   28.9437   -0.8413 H   0  0  0  0  0  0  0  0  0  0  0  0
  -88.8916   30.4440   -0.7519 C   0  0  0  0  0  0  0  0  0  0  0  0
  -89.7269   31.4504   -1.2811 C   0  0  0  0  0  0  0  0  0  0  0  0
  -89.2348   32.6776   -1.6278 C   0  0  0  0  0  0  0  0  0  0  0  0
  -87.8801   32.9977   -1.4757 C   0  0  0  0  0  0  0  0  0  0  0  0
  -87.4354   34.3223   -2.0407 C   0  0  0  0  0  0  0  0  0  0  0  0
  -87.0549   32.0582   -0.9666 C   0  0  0  0  0  0  0  0  0  0  0  0
  -87.5825   30.7832   -0.6124 C   0  0  0  0  0  0  0  0  0  0  0  0
  -85.6636   32.2626   -0.5934 C   0  0  0  0  0  0  0  0  0  0  0  0
  -84.9214   33.3523   -1.1080 C   0  0  0  0  0  0  0  0  0  0  0  0
  -83.6892   33.2108   -0.6690 N   0  0  0  0  0  0  0  0  0  0  0  0
  -83.6284   32.0833    0.0917 C   0  0  0  0  0  0  0  0  0  0  0  0
  -82.4867   31.5843    0.6959 C   0  0  0  0  0  0  0  0  0  0  0  0
  -82.5873   30.4052    1.3887 C   0  0  0  0  0  0  0  0  0  0  0  0
  -83.8266   29.8283    1.4134 C   0  0  0  0  0  0  0  0  0  0  0  0
  -84.9419   30.3465    0.8055 C   0  0  0  0  0  0  0  0  0  0  0  0
  -84.8455   31.5134    0.1254 N   0  0  0  0  0  0  0  0  0  0  0  0
  -91.0716   24.5815    1.1121 C   0  0  0  0  0  0  0  0  0  0  0  0
  -90.9574   25.0925   -0.1634 C   0  0  0  0  0  0  0  0  0  0  0  0
  -90.2611   26.2688   -0.3403 C   0  0  0  0  0  0  0  0  0  0  0  0
  -89.6751   26.9526    0.7039 C   0  0  0  0  0  0  0  0  0  0  0  0
  -89.8117   26.4121    1.9458 C   0  0  0  0  0  0  0  0  0  0  0  0
  -90.5018   25.2264    2.2017 C   0  0  0  0  0  0  0  0  0  0  0  0
  -90.5975   24.7123    3.5880 C   0  0  0  0  0  0  0  0  0  0  0  0
  -91.6417   23.8659    3.8042 F   0  0  0  0  0  0  0  0  0  0  0  0
  -90.7543   25.8009    4.4475 F   0  0  0  0  0  0  0  0  0  0  0  0
  -89.3813   24.1371    3.9513 F   0  0  0  0  0  0  0  0  0  0  0  0
  -91.7807   23.3066    1.3656 C   0  0  0  0  0  0  0  0  0  0  0  0
  -91.0345   19.0985    3.1261 C   0  0  0  0  0  0  0  0  0  0  0  0
  -91.4589   20.3095    2.4200 N   0  0  0  0  0  0  0  0  0  0  0  0
  -90.3192   21.2121    2.3430 C   0  0  0  0  0  0  0  0  0  0  0  0
  -90.1687   21.6924    0.9325 C   0  0  0  0  0  0  0  0  0  0  0  0
  -91.4065   22.2612    0.4061 N   0  0  0  0  0  0  0  0  0  0  0  0
  -92.4426   21.2195    0.4320 C   0  0  0  0  0  0  0  0  0  0  0  0
  -91.9341   19.9741    1.0894 C   0  0  0  0  0  0  0  0  0  0  0  0
 32 33  1  0  0  0
 33 34  1  0  0  0
 34 35  1  0  0  0
 35 36  1  0  0  0
 36 31  1  0  0  0
 31 21  1  0  0  0
 21 22  2  0  0  0
 22 23  1  0  0  0
 23 24  2  0  0  0
 24 25  1  0  0  0
 25 26  2  0  0  0
 26 27  1  0  0  0
 27 28  1  0  0  0
 27 29  1  0  0  0
 27 30  1  0  0  0
 24  1  1  0  0  0
  1  2  2  0  0  0
  1  3  1  0  0  0
  3  5  1  0  0  0
  5  6  2  0  0  0
  6  7  1  0  0  0
  7  8  2  0  0  0
  8  9  1  0  0  0
  8 10  1  0  0  0
 10 11  2  0  0  0
 10 12  1  0  0  0
 12 13  2  0  0  0
 13 14  1  0  0  0
 14 15  2  0  0  0
 15 16  1  0  0  0
 16 17  2  0  0  0
 17 18  1  0  0  0
 18 19  2  0  0  0
 19 20  1  0  0  0
 36 37  1  0  0  0
 37 38  1  0  0  0
 38 33  1  0  0  0
 26 21  1  0  0  0
 11  5  1  0  0  0
 20 12  1  0  0  0
 20 15  1  0  0  0
  3  4  1  0  0  0
M  END
> <minimizedAffinity>
-10.43781

> <CNNscore>
0.2997070849

> <CNNaffinity>
6.8383073807

> <CNN_VS>
2.0494892597

> <CNNaffinity_variance>
0.1381157190

$$$$
[H]c1nc2c([H])c([H])c([H])c([H])n2c1-c1c([H])c(N([H])C(=O)c2c([H])c([H])c(C([H])([H])N3C([H])([H])C([H])([H])N(C([H])([H])[H])C([H])([H])C3([H])[H])c(C(F)(F)F)c2[H])c([H])c([H])c1C([H])([H])[H]


 38 42  0  0  0  0  0  0  0  0999 V2000
  -87.8252   33.6766   -1.9169 C   0  0  0  0  0  0  0  0  0  0  0  0
  -88.5496   33.0133   -1.1251 O   0  0  0  0  0  0  0  0  0  0  0  0
  -86.4247   33.6682   -1.9702 N   0  0  0  0  0  0  0  0  0  0  0  0
  -85.9993   34.3096   -2.7119 H   0  0  0  0  0  0  0  0  0  0  0  0
  -85.5456   32.9143   -1.1486 C   0  0  0  0  0  0  0  0  0  0  0  0
  -84.2085   33.3471   -1.0245 C   0  0  0  0  0  0  0  0  0  0  0  0
  -83.3080   32.6708   -0.2500 C   0  0  0  0  0  0  0  0  0  0  0  0
  -83.6658   31.5169    0.4582 C   0  0  0  0  0  0  0  0  0  0  0  0
  -82.5471   30.7765    1.1451 C   0  0  0  0  0  0  0  0  0  0  0  0
  -84.9397   31.0794    0.3650 C   0  0  0  0  0  0  0  0  0  0  0  0
  -85.8656   31.7939   -0.4484 C   0  0  0  0  0  0  0  0  0  0  0  0
  -85.5263   30.0016    1.1466 C   0  0  0  0  0  0  0  0  0  0  0  0
  -85.2819   29.8896    2.5360 C   0  0  0  0  0  0  0  0  0  0  0  0
  -85.8611   28.7770    2.9330 N   0  0  0  0  0  0  0  0  0  0  0  0
  -86.4516   28.1895    1.8560 C   0  0  0  0  0  0  0  0  0  0  0  0
  -87.1286   26.9815    1.8725 C   0  0  0  0  0  0  0  0  0  0  0  0
  -87.6230   26.5039    0.6860 C   0  0  0  0  0  0  0  0  0  0  0  0
  -87.3931   27.2807   -0.4153 C   0  0  0  0  0  0  0  0  0  0  0  0
  -86.7191   28.4754   -0.4018 C   0  0  0  0  0  0  0  0  0  0  0  0
  -86.2348   28.9512    0.7697 N   0  0  0  0  0  0  0  0  0  0  0  0
  -90.0467   36.1724   -4.5788 C   0  0  0  0  0  0  0  0  0  0  0  0
  -88.8985   36.6480   -3.9818 C   0  0  0  0  0  0  0  0  0  0  0  0
  -88.2066   35.8138   -3.1301 C   0  0  0  0  0  0  0  0  0  0  0  0
  -88.6149   34.5263   -2.8528 C   0  0  0  0  0  0  0  0  0  0  0  0
  -89.7531   34.0976   -3.4642 C   0  0  0  0  0  0  0  0  0  0  0  0
  -90.5056   34.8845   -4.3373 C   0  0  0  0  0  0  0  0  0  0  0  0
  -91.7320   34.3319   -4.9585 C   0  0  0  0  0  0  0  0  0  0  0  0
  -92.8525   35.0772   -4.7530 F   0  0  0  0  0  0  0  0  0  0  0  0
  -91.9638   33.0666   -4.4166 F   0  0  0  0  0  0  0  0  0  0  0  0
  -91.5010   34.1076   -6.3144 F   0  0  0  0  0  0  0  0  0  0  0  0
  -90.8192   37.0075   -5.5267 C   0  0  0  0  0  0  0  0  0  0  0  0
  -95.1418   38.5367   -6.1099 C   0  0  0  0  0  0  0  0  0  0  0  0
  -93.8225   38.0843   -5.6630 N   0  0  0  0  0  0  0  0  0  0  0  0
  -92.8594   38.3908   -6.7108 C   0  0  0  0  0  0  0  0  0  0  0  0
  -91.6794   39.0855   -6.1042 C   0  0  0  0  0  0  0  0  0  0  0  0
  -91.1129   38.3389   -4.9841 N   0  0  0  0  0  0  0  0  0  0  0  0
  -92.1480   38.1976   -3.9508 C   0  0  0  0  0  0  0  0  0  0  0  0
  -93.4569   38.7490   -4.4246 C   0  0  0  0  0  0  0  0  0  0  0  0
 32 33  1  0  0  0
 33 34  1  0  0  0
 34 35  1  0  0  0
 35 36  1  0  0  0
 36 31  1  0  0  0
 31 21  1  0  0  0
 21 22  2  0  0  0
 22 23  1  0  0  0
 23 24  2  0  0  0
 24 25  1  0  0  0
 25 26  2  0  0  0
 26 27  1  0  0  0
 27 28  1  0  0  0
 27 29  1  0  0  0
 27 30  1  0  0  0
 24  1  1  0  0  0
  1  2  2  0  0  0
  1  3  1  0  0  0
  3  5  1  0  0  0
  5  6  2  0  0  0
  6  7  1  0  0  0
  7  8  2  0  0  0
  8  9  1  0  0  0
  8 10  1  0  0  0
 10 11  2  0  0  0
 10 12  1  0  0  0
 12 13  2  0  0  0
 13 14  1  0  0  0
 14 15  2  0  0  0
 15 16  1  0  0  0
 16 17  2  0  0  0
 17 18  1  0  0  0
 18 19  2  0  0  0
 19 20  1  0  0  0
 36 37  1  0  0  0
 37 38  1  0  0  0
 38 33  1  0  0  0
 26 21  1  0  0  0
 11  5  1  0  0  0
 20 12  1  0  0  0
 20 15  1  0  0  0
  3  4  1  0  0  0
M  END
> <minimizedAffinity>
-8.76098

> <CNNscore>
0.2589564323

> <CNNaffinity>
6.4891219139

> <CNN_VS>
1.6803998947

> <CNNaffinity_variance>
0.1621870548

$$$$
[H]c1nc2c([H])c([H])c([H])c([H])n2c1-c1c([H])c(N([H])C(=O)c2c([H])c([H])c(C([H])([H])N3C([H])([H])C([H])([H])N(C([H])([H])[H])C([H])([H])C3([H])[H])c(C(F)(F)F)c2[H])c([H])c([H])c1C([H])([H])[H]


 38 42  0  0  0  0  0  0  0  0999 V2000
  -90.1412   28.8718   -1.4069 C   0  0  0  0  0  0  0  0  0  0  0  0
  -90.7130   29.3468   -0.3876 O   0  0  0  0  0  0  0  0  0  0  0  0
  -88.9222   29.2971   -1.9524 N   0  0  0  0  0  0  0  0  0  0  0  0
  -88.6119   28.7668   -2.8271 H   0  0  0  0  0  0  0  0  0  0  0  0
  -88.0908   30.3415   -1.4687 C   0  0  0  0  0  0  0  0  0  0  0  0
  -88.5571   31.6693   -1.5676 C   0  0  0  0  0  0  0  0  0  0  0  0
  -87.8102   32.7236   -1.1215 C   0  0  0  0  0  0  0  0  0  0  0  0
  -86.5474   32.5397   -0.5448 C   0  0  0  0  0  0  0  0  0  0  0  0
  -85.7601   33.7884   -0.2401 C   0  0  0  0  0  0  0  0  0  0  0  0
  -86.0745   31.2804   -0.4304 C   0  0  0  0  0  0  0  0  0  0  0  0
  -86.8639   30.1925   -0.9024 C   0  0  0  0  0  0  0  0  0  0  0  0
  -84.8658   30.8888    0.2783 C   0  0  0  0  0  0  0  0  0  0  0  0
  -83.6507   31.5906    0.0942 C   0  0  0  0  0  0  0  0  0  0  0  0
  -82.7343   30.9471    0.7850 N   0  0  0  0  0  0  0  0  0  0  0  0
  -83.3206   29.8763    1.3878 C   0  0  0  0  0  0  0  0  0  0  0  0
  -82.6670   28.9399    2.1711 C   0  0  0  0  0  0  0  0  0  0  0  0
  -83.3979   27.8897    2.6644 C   0  0  0  0  0  0  0  0  0  0  0  0
  -84.7226   27.8702    2.3267 C   0  0  0  0  0  0  0  0  0  0  0  0
  -85.3444   28.8134    1.5485 C   0  0  0  0  0  0  0  0  0  0  0  0
  -84.6254   29.8539    1.0649 N   0  0  0  0  0  0  0  0  0  0  0  0
  -92.2893   25.6178   -3.1524 C   0  0  0  0  0  0  0  0  0  0  0  0
  -91.5435   25.4200   -2.0098 C   0  0  0  0  0  0  0  0  0  0  0  0
  -90.8651   26.4934   -1.4737 C   0  0  0  0  0  0  0  0  0  0  0  0
  -90.9031   27.7536   -2.0320 C   0  0  0  0  0  0  0  0  0  0  0  0
  -91.6521   27.9041   -3.1588 C   0  0  0  0  0  0  0  0  0  0  0  0
  -92.3649   26.8648   -3.7582 C   0  0  0  0  0  0  0  0  0  0  0  0
  -93.1555   27.1229   -4.9844 C   0  0  0  0  0  0  0  0  0  0  0  0
  -92.9584   26.2184   -5.9827 F   0  0  0  0  0  0  0  0  0  0  0  0
  -92.7977   28.3784   -5.4784 F   0  0  0  0  0  0  0  0  0  0  0  0
  -94.5031   27.2373   -4.6484 F   0  0  0  0  0  0  0  0  0  0  0  0
  -93.0653   24.5133   -3.7611 C   0  0  0  0  0  0  0  0  0  0  0  0
  -95.5639   20.9377   -5.2895 C   0  0  0  0  0  0  0  0  0  0  0  0
  -94.7567   21.9302   -4.5765 N   0  0  0  0  0  0  0  0  0  0  0  0
  -95.0721   23.2443   -5.1178 C   0  0  0  0  0  0  0  0  0  0  0  0
  -95.3529   24.1857   -3.9875 C   0  0  0  0  0  0  0  0  0  0  0  0
  -94.2788   24.1991   -2.9980 N   0  0  0  0  0  0  0  0  0  0  0  0
  -94.1393   22.8439   -2.4476 C   0  0  0  0  0  0  0  0  0  0  0  0
  -95.0444   21.8828   -3.1538 C   0  0  0  0  0  0  0  0  0  0  0  0
 32 33  1  0  0  0
 33 34  1  0  0  0
 34 35  1  0  0  0
 35 36  1  0  0  0
 36 31  1  0  0  0
 31 21  1  0  0  0
 21 22  2  0  0  0
 22 23  1  0  0  0
 23 24  2  0  0  0
 24 25  1  0  0  0
 25 26  2  0  0  0
 26 27  1  0  0  0
 27 28  1  0  0  0
 27 29  1  0  0  0
 27 30  1  0  0  0
 24  1  1  0  0  0
  1  2  2  0  0  0
  1  3  1  0  0  0
  3  5  1  0  0  0
  5  6  2  0  0  0
  6  7  1  0  0  0
  7  8  2  0  0  0
  8  9  1  0  0  0
  8 10  1  0  0  0
 10 11  2  0  0  0
 10 12  1  0  0  0
 12 13  2  0  0  0
 13 14  1  0  0  0
 14 15  2  0  0  0
 15 16  1  0  0  0
 16 17  2  0  0  0
 17 18  1  0  0  0
 18 19  2  0  0  0
 19 20  1  0  0  0
 36 37  1  0  0  0
 37 38  1  0  0  0
 38 33  1  0  0  0
 26 21  1  0  0  0
 11  5  1  0  0  0
 20 12  1  0  0  0
 20 15  1  0  0  0
  3  4  1  0  0  0
M  END
> <minimizedAffinity>
-9.06023

> <CNNscore>
0.1607876569

> <CNNaffinity>
6.0522871017

> <CNN_VS>
0.9731330872

> <CNNaffinity_variance>
0.1949191839

$$$$
[H]c1nc2c([H])c([H])c([H])c([H])n2c1-c1c([H])c(N([H])C(=O)c2c([H])c([H])c(C([H])([H])N3C([H])([H])C([H])([H])N(C([H])([H])[H])C([H])([H])C3([H])[H])c(C(F)(F)F)c2[H])c([H])c([H])c1C([H])([H])[H]


 38 42  0  0  0  0  0  0  0  0999 V2000
  -90.2012   29.3233   -0.8009 C   0  0  0  0  0  0  0  0  0  0  0  0
  -90.4626   29.6464    0.3902 O   0  0  0  0  0  0  0  0  0  0  0  0
  -89.1586   29.8264   -1.5910 N   0  0  0  0  0  0  0  0  0  0  0  0
  -89.1123   29.4271   -2.5815 H   0  0  0  0  0  0  0  0  0  0  0  0
  -88.1922   30.7946   -1.2103 C   0  0  0  0  0  0  0  0  0  0  0  0
  -88.5272   32.1596   -1.3327 C   0  0  0  0  0  0  0  0  0  0  0  0
  -87.6466   33.1451   -0.9841 C   0  0  0  0  0  0  0  0  0  0  0  0
  -86.3702   32.8507   -0.4887 C   0  0  0  0  0  0  0  0  0  0  0  0
  -85.4400   34.0202   -0.2920 C   0  0  0  0  0  0  0  0  0  0  0  0
  -86.0206   31.5537   -0.3542 C   0  0  0  0  0  0  0  0  0  0  0  0
  -86.9488   30.5383   -0.7243 C   0  0  0  0  0  0  0  0  0  0  0  0
  -84.8094   31.0630    0.2852 C   0  0  0  0  0  0  0  0  0  0  0  0
  -83.5459   31.6267   -0.0125 C   0  0  0  0  0  0  0  0  0  0  0  0
  -82.6517   30.9157    0.6401 N   0  0  0  0  0  0  0  0  0  0  0  0
  -83.2983   29.9342    1.3274 C   0  0  0  0  0  0  0  0  0  0  0  0
  -82.6879   28.9629    2.1030 C   0  0  0  0  0  0  0  0  0  0  0  0
  -83.4839   28.0132    2.6902 C   0  0  0  0  0  0  0  0  0  0  0  0
  -84.8248   28.1206    2.4462 C   0  0  0  0  0  0  0  0  0  0  0  0
  -85.4026   29.0955    1.6733 C   0  0  0  0  0  0  0  0  0  0  0  0
  -84.6188   30.0372    1.0969 N   0  0  0  0  0  0  0  0  0  0  0  0
  -92.9424   26.4534   -2.3818 C   0  0  0  0  0  0  0  0  0  0  0  0
  -93.1296   27.7969   -2.6284 C   0  0  0  0  0  0  0  0  0  0  0  0
  -92.2239   28.6939   -2.1037 C   0  0  0  0  0  0  0  0  0  0  0  0
  -91.1409   28.3025   -1.3453 C   0  0  0  0  0  0  0  0  0  0  0  0
  -90.9940   26.9668   -1.1273 C   0  0  0  0  0  0  0  0  0  0  0  0
  -91.8696   26.0009   -1.6253 C   0  0  0  0  0  0  0  0  0  0  0  0
  -91.6287   24.5676   -1.3377 C   0  0  0  0  0  0  0  0  0  0  0  0
  -90.7612   24.3363   -0.3144 F   0  0  0  0  0  0  0  0  0  0  0  0
  -91.0942   23.9762   -2.4835 F   0  0  0  0  0  0  0  0  0  0  0  0
  -92.8496   23.9264   -1.1361 F   0  0  0  0  0  0  0  0  0  0  0  0
  -93.8620   25.4367   -2.9416 C   0  0  0  0  0  0  0  0  0  0  0  0
  -96.1624   27.0493   -6.6119 C   0  0  0  0  0  0  0  0  0  0  0  0
  -95.2176   26.6451   -5.5684 N   0  0  0  0  0  0  0  0  0  0  0  0
  -95.7232   25.4305   -4.9450 C   0  0  0  0  0  0  0  0  0  0  0  0
  -94.6230   24.4163   -4.8835 C   0  0  0  0  0  0  0  0  0  0  0  0
  -93.4176   24.9447   -4.2507 N   0  0  0  0  0  0  0  0  0  0  0  0
  -92.9457   26.0919   -5.0384 C   0  0  0  0  0  0  0  0  0  0  0  0
  -93.9040   26.4140   -6.1429 C   0  0  0  0  0  0  0  0  0  0  0  0
 32 33  1  0  0  0
 33 34  1  0  0  0
 34 35  1  0  0  0
 35 36  1  0  0  0
 36 31  1  0  0  0
 31 21  1  0  0  0
 21 22  2  0  0  0
 22 23  1  0  0  0
 23 24  2  0  0  0
 24 25  1  0  0  0
 25 26  2  0  0  0
 26 27  1  0  0  0
 27 28  1  0  0  0
 27 29  1  0  0  0
 27 30  1  0  0  0
 24  1  1  0  0  0
  1  2  2  0  0  0
  1  3  1  0  0  0
  3  5  1  0  0  0
  5  6  2  0  0  0
  6  7  1  0  0  0
  7  8  2  0  0  0
  8  9  1  0  0  0
  8 10  1  0  0  0
 10 11  2  0  0  0
 10 12  1  0  0  0
 12 13  2  0  0  0
 13 14  1  0  0  0
 14 15  2  0  0  0
 15 16  1  0  0  0
 16 17  2  0  0  0
 17 18  1  0  0  0
 18 19  2  0  0  0
 19 20  1  0  0  0
 36 37  1  0  0  0
 37 38  1  0  0  0
 38 33  1  0  0  0
 26 21  1  0  0  0
 11  5  1  0  0  0
 20 12  1  0  0  0
 20 15  1  0  0  0
  3  4  1  0  0  0
M  END
> <minimizedAffinity>
-8.80803

> <CNNscore>
0.1402962804

> <CNNaffinity>
6.2772340775

> <CNN_VS>
0.8806725740

> <CNNaffinity_variance>
0.2010257989

$$$$
[H]c1nc2c([H])c([H])c([H])c([H])n2c1-c1c([H])c(N([H])C(=O)c2c([H])c([H])c(C([H])([H])N3C([H])([H])C([H])([H])N(C([H])([H])[H])C([H])([H])C3([H])[H])c(C(F)(F)F)c2[H])c([H])c([H])c1C([H])([H])[H]


 38 42  0  0  0  0  0  0  0  0999 V2000
  -89.3127   30.5375   -2.1218 C   0  0  0  0  0  0  0  0  0  0  0  0
  -88.0607   30.6766   -2.0530 O   0  0  0  0  0  0  0  0  0  0  0  0
  -90.1043   29.7078   -1.3160 N   0  0  0  0  0  0  0  0  0  0  0  0
  -91.1493   29.7276   -1.5405 H   0  0  0  0  0  0  0  0  0  0  0  0
  -89.6579   28.8630   -0.2657 C   0  0  0  0  0  0  0  0  0  0  0  0
  -90.5943   28.0034    0.3465 C   0  0  0  0  0  0  0  0  0  0  0  0
  -90.2343   27.1628    1.3624 C   0  0  0  0  0  0  0  0  0  0  0  0
  -88.9210   27.1119    1.8459 C   0  0  0  0  0  0  0  0  0  0  0  0
  -88.6882   26.2632    3.0695 C   0  0  0  0  0  0  0  0  0  0  0  0
  -87.9993   27.9181    1.2774 C   0  0  0  0  0  0  0  0  0  0  0  0
  -88.3908   28.7904    0.2214 C   0  0  0  0  0  0  0  0  0  0  0  0
  -86.5684   27.8879    1.5389 C   0  0  0  0  0  0  0  0  0  0  0  0
  -85.9337   26.7086    1.9960 C   0  0  0  0  0  0  0  0  0  0  0  0
  -84.6773   27.0219    2.2294 N   0  0  0  0  0  0  0  0  0  0  0  0
  -84.5007   28.3410    1.9422 C   0  0  0  0  0  0  0  0  0  0  0  0
  -83.3179   29.0442    2.0983 C   0  0  0  0  0  0  0  0  0  0  0  0
  -83.3226   30.3847    1.8095 C   0  0  0  0  0  0  0  0  0  0  0  0
  -84.5159   30.9034    1.3900 C   0  0  0  0  0  0  0  0  0  0  0  0
  -85.6733   30.1816    1.2434 C   0  0  0  0  0  0  0  0  0  0  0  0
  -85.6693   28.8568    1.5231 N   0  0  0  0  0  0  0  0  0  0  0  0
  -91.1239   32.8666   -5.2112 C   0  0  0  0  0  0  0  0  0  0  0  0
  -91.5554   31.5789   -4.9732 C   0  0  0  0  0  0  0  0  0  0  0  0
  -90.9489   30.8579   -3.9670 C   0  0  0  0  0  0  0  0  0  0  0  0
  -89.9318   31.3716   -3.1906 C   0  0  0  0  0  0  0  0  0  0  0  0
  -89.5377   32.6467   -3.4593 C   0  0  0  0  0  0  0  0  0  0  0  0
  -90.1040   33.4364   -4.4610 C   0  0  0  0  0  0  0  0  0  0  0  0
  -89.6108   34.8162   -4.6805 C   0  0  0  0  0  0  0  0  0  0  0  0
  -88.6468   35.2157   -3.8061 F   0  0  0  0  0  0  0  0  0  0  0  0
  -90.6893   35.6920   -4.5459 F   0  0  0  0  0  0  0  0  0  0  0  0
  -89.1974   34.9527   -6.0044 F   0  0  0  0  0  0  0  0  0  0  0  0
  -91.7539   33.7043   -6.2571 C   0  0  0  0  0  0  0  0  0  0  0  0
  -94.3693   36.8333   -8.4327 C   0  0  0  0  0  0  0  0  0  0  0  0
  -93.6005   35.6831   -7.9519 N   0  0  0  0  0  0  0  0  0  0  0  0
  -93.5705   35.7341   -6.4973 C   0  0  0  0  0  0  0  0  0  0  0  0
  -93.9505   34.3922   -5.9517 C   0  0  0  0  0  0  0  0  0  0  0  0
  -93.1442   33.3150   -6.5196 N   0  0  0  0  0  0  0  0  0  0  0  0
  -93.3517   33.2986   -7.9742 C   0  0  0  0  0  0  0  0  0  0  0  0
  -94.2111   34.4462   -8.4058 C   0  0  0  0  0  0  0  0  0  0  0  0
 32 33  1  0  0  0
 33 34  1  0  0  0
 34 35  1  0  0  0
 35 36  1  0  0  0
 36 31  1  0  0  0
 31 21  1  0  0  0
 21 22  2  0  0  0
 22 23  1  0  0  0
 23 24  2  0  0  0
 24 25  1  0  0  0
 25 26  2  0  0  0
 26 27  1  0  0  0
 27 28  1  0  0  0
 27 29  1  0  0  0
 27 30  1  0  0  0
 24  1  1  0  0  0
  1  2  2  0  0  0
  1  3  1  0  0  0
  3  5  1  0  0  0
  5  6  2  0  0  0
  6  7  1  0  0  0
  7  8  2  0  0  0
  8  9  1  0  0  0
  8 10  1  0  0  0
 10 11  2  0  0  0
 10 12  1  0  0  0
 12 13  2  0  0  0
 13 14  1  0  0  0
 14 15  2  0  0  0
 15 16  1  0  0  0
 16 17  2  0  0  0
 17 18  1  0  0  0
 18 19  2  0  0  0
 19 20  1  0  0  0
 36 37  1  0  0  0
 37 38  1  0  0  0
 38 33  1  0  0  0
 26 21  1  0  0  0
 11  5  1  0  0  0
 20 12  1  0  0  0
 20 15  1  0  0  0
  3  4  1  0  0  0
M  END
> <minimizedAffinity>
-8.24679

> <CNNscore>
0.1214153990

> <CNNaffinity>
6.3494777679

> <CNN_VS>
0.7709243894

> <CNNaffinity_variance>
0.1859683990

$$$$
[H]c1nc2c([H])c([H])c([H])c([H])n2c1-c1c([H])c(N([H])C(=O)c2c([H])c([H])c(C([H])([H])N3C([H])([H])C([H])([H])N(C([H])([H])[H])C([H])([H])C3([H])[H])c(C(F)(F)F)c2[H])c([H])c([H])c1C([H])([H])[H]


 38 42  0  0  0  0  0  0  0  0999 V2000
  -89.1964   30.8722   -2.7582 C   0  0  0  0  0  0  0  0  0  0  0  0
  -88.9101   29.8821   -3.4857 O   0  0  0  0  0  0  0  0  0  0  0  0
  -89.2745   30.8829   -1.3589 N   0  0  0  0  0  0  0  0  0  0  0  0
  -89.5406   31.8255   -0.9308 H   0  0  0  0  0  0  0  0  0  0  0  0
  -89.0470   29.7874   -0.4846 C   0  0  0  0  0  0  0  0  0  0  0  0
  -90.1294   28.9335   -0.1848 C   0  0  0  0  0  0  0  0  0  0  0  0
  -89.9824   27.8596    0.6478 C   0  0  0  0  0  0  0  0  0  0  0  0
  -88.7530   27.5529    1.2442 C   0  0  0  0  0  0  0  0  0  0  0  0
  -88.7593   26.4419    2.2627 C   0  0  0  0  0  0  0  0  0  0  0  0
  -87.6956   28.3474    0.9732 C   0  0  0  0  0  0  0  0  0  0  0  0
  -87.8656   29.4643    0.1054 C   0  0  0  0  0  0  0  0  0  0  0  0
  -86.3195   28.0941    1.3717 C   0  0  0  0  0  0  0  0  0  0  0  0
  -85.9485   26.8728    1.9829 C   0  0  0  0  0  0  0  0  0  0  0  0
  -84.6786   26.9838    2.3085 N   0  0  0  0  0  0  0  0  0  0  0  0
  -84.2424   28.2173    1.9319 C   0  0  0  0  0  0  0  0  0  0  0  0
  -82.9674   28.7155    2.1418 C   0  0  0  0  0  0  0  0  0  0  0  0
  -82.7048   30.0014    1.7445 C   0  0  0  0  0  0  0  0  0  0  0  0
  -83.7467   30.6765    1.1717 C   0  0  0  0  0  0  0  0  0  0  0  0
  -85.0008   30.1565    0.9753 C   0  0  0  0  0  0  0  0  0  0  0  0
  -85.2605   28.8852    1.3622 N   0  0  0  0  0  0  0  0  0  0  0  0
  -90.0031   34.3816   -5.0565 C   0  0  0  0  0  0  0  0  0  0  0  0
  -90.6555   33.2017   -5.3445 C   0  0  0  0  0  0  0  0  0  0  0  0
  -90.3713   32.0901   -4.5806 C   0  0  0  0  0  0  0  0  0  0  0  0
  -89.4641   32.1110   -3.5424 C   0  0  0  0  0  0  0  0  0  0  0  0
  -88.8437   33.2967   -3.2924 C   0  0  0  0  0  0  0  0  0  0  0  0
  -89.0799   34.4623   -4.0226 C   0  0  0  0  0  0  0  0  0  0  0  0
  -88.3579   35.7091   -3.6769 C   0  0  0  0  0  0  0  0  0  0  0  0
  -89.1633   36.7855   -3.4624 F   0  0  0  0  0  0  0  0  0  0  0  0
  -87.5045   36.0271   -4.7347 F   0  0  0  0  0  0  0  0  0  0  0  0
  -87.5158   35.4686   -2.5928 F   0  0  0  0  0  0  0  0  0  0  0  0
  -90.2853   35.6188   -5.8197 C   0  0  0  0  0  0  0  0  0  0  0  0
  -91.9569   38.7000   -8.8323 C   0  0  0  0  0  0  0  0  0  0  0  0
  -91.1904   37.8410   -7.9270 N   0  0  0  0  0  0  0  0  0  0  0  0
  -91.8580   36.5494   -7.8541 C   0  0  0  0  0  0  0  0  0  0  0  0
  -90.8491   35.4633   -8.0669 C   0  0  0  0  0  0  0  0  0  0  0  0
  -89.7052   35.5861   -7.1673 N   0  0  0  0  0  0  0  0  0  0  0  0
  -89.0538   36.8787   -7.4202 C   0  0  0  0  0  0  0  0  0  0  0  0
  -89.8311   37.6852   -8.4137 C   0  0  0  0  0  0  0  0  0  0  0  0
 32 33  1  0  0  0
 33 34  1  0  0  0
 34 35  1  0  0  0
 35 36  1  0  0  0
 36 31  1  0  0  0
 31 21  1  0  0  0
 21 22  2  0  0  0
 22 23  1  0  0  0
 23 24  2  0  0  0
 24 25  1  0  0  0
 25 26  2  0  0  0
 26 27  1  0  0  0
 27 28  1  0  0  0
 27 29  1  0  0  0
 27 30  1  0  0  0
 24  1  1  0  0  0
  1  2  2  0  0  0
  1  3  1  0  0  0
  3  5  1  0  0  0
  5  6  2  0  0  0
  6  7  1  0  0  0
  7  8  2  0  0  0
  8  9  1  0  0  0
  8 10  1  0  0  0
 10 11  2  0  0  0
 10 12  1  0  0  0
 12 13  2  0  0  0
 13 14  1  0  0  0
 14 15  2  0  0  0
 15 16  1  0  0  0
 16 17  2  0  0  0
 17 18  1  0  0  0
 18 19  2  0  0  0
 19 20  1  0  0  0
 36 37  1  0  0  0
 37 38  1  0  0  0
 38 33  1  0  0  0
 26 21  1  0  0  0
 11  5  1  0  0  0
 20 12  1  0  0  0
 20 15  1  0  0  0
  3  4  1  0  0  0
M  END
> <minimizedAffinity>
-9.17539

> <CNNscore>
0.1165424883

> <CNNaffinity>
6.4379768372

> <CNN_VS>
0.7502978444

> <CNNaffinity_variance>
0.1299702674

$$$$
[H]c1nc2c([H])c([H])c([H])c([H])n2c1-c1c([H])c(N([H])C(=O)c2c([H])c([H])c(C([H])([H])N3C([H])([H])C([H])([H])N(C([H])([H])[H])C([H])([H])C3([H])[H])c(C(F)(F)F)c2[H])c([H])c([H])c1C([H])([H])[H]


 38 42  0  0  0  0  0  0  0  0999 V2000
  -89.7629   28.1310   -0.6020 C   0  0  0  0  0  0  0  0  0  0  0  0
  -89.7067   28.1687    0.6578 O   0  0  0  0  0  0  0  0  0  0  0  0
  -89.1173   29.0011   -1.4911 N   0  0  0  0  0  0  0  0  0  0  0  0
  -89.3004   28.8037   -2.5256 H   0  0  0  0  0  0  0  0  0  0  0  0
  -88.2742   30.0926   -1.1536 C   0  0  0  0  0  0  0  0  0  0  0  0
  -88.7705   31.4016   -1.3287 C   0  0  0  0  0  0  0  0  0  0  0  0
  -88.0146   32.4987   -1.0235 C   0  0  0  0  0  0  0  0  0  0  0  0
  -86.7123   32.3795   -0.5226 C   0  0  0  0  0  0  0  0  0  0  0  0
  -85.9292   33.6591   -0.3768 C   0  0  0  0  0  0  0  0  0  0  0  0
  -86.2096   31.1402   -0.3381 C   0  0  0  0  0  0  0  0  0  0  0  0
  -87.0091   30.0068   -0.6634 C   0  0  0  0  0  0  0  0  0  0  0  0
  -84.9485   30.8243    0.3148 C   0  0  0  0  0  0  0  0  0  0  0  0
  -83.7881   31.5986    0.0768 C   0  0  0  0  0  0  0  0  0  0  0  0
  -82.8039   31.0134    0.7249 N   0  0  0  0  0  0  0  0  0  0  0  0
  -83.2960   29.9099    1.3525 C   0  0  0  0  0  0  0  0  0  0  0  0
  -82.5517   29.0164    2.1045 C   0  0  0  0  0  0  0  0  0  0  0  0
  -83.1942   27.9245    2.6292 C   0  0  0  0  0  0  0  0  0  0  0  0
  -84.5291   27.8237    2.3516 C   0  0  0  0  0  0  0  0  0  0  0  0
  -85.2418   28.7258    1.6033 C   0  0  0  0  0  0  0  0  0  0  0  0
  -84.6102   29.8074    1.0887 N   0  0  0  0  0  0  0  0  0  0  0  0
  -92.2551   25.0076   -2.1130 C   0  0  0  0  0  0  0  0  0  0  0  0
  -92.2027   26.2241   -2.7598 C   0  0  0  0  0  0  0  0  0  0  0  0
  -91.3861   27.2078   -2.2446 C   0  0  0  0  0  0  0  0  0  0  0  0
  -90.6210   27.0243   -1.1122 C   0  0  0  0  0  0  0  0  0  0  0  0
  -90.7025   25.8081   -0.5060 C   0  0  0  0  0  0  0  0  0  0  0  0
  -91.5065   24.7655   -0.9690 C   0  0  0  0  0  0  0  0  0  0  0  0
  -91.5303   23.4736   -0.2438 C   0  0  0  0  0  0  0  0  0  0  0  0
  -90.6109   23.3712    0.7550 F   0  0  0  0  0  0  0  0  0  0  0  0
  -91.2705   22.4535   -1.1604 F   0  0  0  0  0  0  0  0  0  0  0  0
  -92.8228   23.2266    0.2152 F   0  0  0  0  0  0  0  0  0  0  0  0
  -93.0891   23.8997   -2.6321 C   0  0  0  0  0  0  0  0  0  0  0  0
  -95.9819   21.7622   -5.5350 C   0  0  0  0  0  0  0  0  0  0  0  0
  -95.1956   22.3027   -4.4239 N   0  0  0  0  0  0  0  0  0  0  0  0
  -94.7368   23.6327   -4.7981 C   0  0  0  0  0  0  0  0  0  0  0  0
  -95.0409   24.5875   -3.6851 C   0  0  0  0  0  0  0  0  0  0  0  0
  -94.5206   24.1251   -2.4012 N   0  0  0  0  0  0  0  0  0  0  0  0
  -95.1459   22.8332   -2.0863 C   0  0  0  0  0  0  0  0  0  0  0  0
  -96.0044   22.3630   -3.2192 C   0  0  0  0  0  0  0  0  0  0  0  0
 32 33  1  0  0  0
 33 34  1  0  0  0
 34 35  1  0  0  0
 35 36  1  0  0  0
 36 31  1  0  0  0
 31 21  1  0  0  0
 21 22  2  0  0  0
 22 23  1  0  0  0
 23 24  2  0  0  0
 24 25  1  0  0  0
 25 26  2  0  0  0
 26 27  1  0  0  0
 27 28  1  0  0  0
 27 29  1  0  0  0
 27 30  1  0  0  0
 24  1  1  0  0  0
  1  2  2  0  0  0
  1  3  1  0  0  0
  3  5  1  0  0  0
  5  6  2  0  0  0
  6  7  1  0  0  0
  7  8  2  0  0  0
  8  9  1  0  0  0
  8 10  1  0  0  0
 10 11  2  0  0  0
 10 12  1  0  0  0
 12 13  2  0  0  0
 13 14  1  0  0  0
 14 15  2  0  0  0
 15 16  1  0  0  0
 16 17  2  0  0  0
 17 18  1  0  0  0
 18 19  2  0  0  0
 19 20  1  0  0  0
 36 37  1  0  0  0
 37 38  1  0  0  0
 38 33  1  0  0  0
 26 21  1  0  0  0
 11  5  1  0  0  0
 20 12  1  0  0  0
 20 15  1  0  0  0
  3  4  1  0  0  0
M  END
> <minimizedAffinity>
-8.98702

> <CNNscore>
0.1096663326

> <CNNaffinity>
6.0604882240

> <CNN_VS>
0.6646315455

> <CNNaffinity_variance>
0.2871428430

$$$$
[H]c1nc2c([H])c([H])c([H])c([H])n2c1-c1c([H])c(N([H])C(=O)c2c([H])c([H])c(C([H])([H])N3C([H])([H])C([H])([H])N(C([H])([H])[H])C([H])([H])C3([H])[H])c(C(F)(F)F)c2[H])c([H])c([H])c1C([H])([H])[H]


 38 42  0  0  0  0  0  0  0  0999 V2000
  -89.4444   28.3622   -2.1898 C   0  0  0  0  0  0  0  0  0  0  0  0
  -88.6652   28.3538   -3.1820 O   0  0  0  0  0  0  0  0  0  0  0  0
  -89.3885   29.2340   -1.0939 N   0  0  0  0  0  0  0  0  0  0  0  0
  -90.1395   29.0708   -0.3510 H   0  0  0  0  0  0  0  0  0  0  0  0
  -88.4491   30.2776   -0.8827 C   0  0  0  0  0  0  0  0  0  0  0  0
  -88.8528   31.6047   -1.1403 C   0  0  0  0  0  0  0  0  0  0  0  0
  -88.0014   32.6582   -0.9578 C   0  0  0  0  0  0  0  0  0  0  0  0
  -86.6884   32.4746   -0.5069 C   0  0  0  0  0  0  0  0  0  0  0  0
  -85.8041   33.6951   -0.4989 C   0  0  0  0  0  0  0  0  0  0  0  0
  -86.2726   31.2169   -0.2458 C   0  0  0  0  0  0  0  0  0  0  0  0
  -87.1711   30.1292   -0.4434 C   0  0  0  0  0  0  0  0  0  0  0  0
  -85.0079   30.8526    0.3742 C   0  0  0  0  0  0  0  0  0  0  0  0
  -83.8264   31.5854    0.1099 C   0  0  0  0  0  0  0  0  0  0  0  0
  -82.8483   30.9620    0.7311 N   0  0  0  0  0  0  0  0  0  0  0  0
  -83.3643   29.8743    1.3668 C   0  0  0  0  0  0  0  0  0  0  0  0
  -82.6345   28.9511    2.0968 C   0  0  0  0  0  0  0  0  0  0  0  0
  -83.3030   27.8809    2.6336 C   0  0  0  0  0  0  0  0  0  0  0  0
  -84.6472   27.8297    2.3892 C   0  0  0  0  0  0  0  0  0  0  0  0
  -85.3451   28.7605    1.6622 C   0  0  0  0  0  0  0  0  0  0  0  0
  -84.6876   29.8207    1.1358 N   0  0  0  0  0  0  0  0  0  0  0  0
  -92.5164   25.4022   -2.4151 C   0  0  0  0  0  0  0  0  0  0  0  0
  -92.8334   26.7381   -2.5396 C   0  0  0  0  0  0  0  0  0  0  0  0
  -91.8159   27.6649   -2.4636 C   0  0  0  0  0  0  0  0  0  0  0  0
  -90.4976   27.3105   -2.2696 C   0  0  0  0  0  0  0  0  0  0  0  0
  -90.2296   25.9810   -2.1527 C   0  0  0  0  0  0  0  0  0  0  0  0
  -91.2063   24.9863   -2.2188 C   0  0  0  0  0  0  0  0  0  0  0  0
  -90.8204   23.5623   -2.0823 C   0  0  0  0  0  0  0  0  0  0  0  0
  -91.1627   22.9975   -0.8918 F   0  0  0  0  0  0  0  0  0  0  0  0
  -89.4331   23.4721   -2.2066 F   0  0  0  0  0  0  0  0  0  0  0  0
  -91.3277   22.8417   -3.1618 F   0  0  0  0  0  0  0  0  0  0  0  0
  -93.5584   24.3551   -2.5175 C   0  0  0  0  0  0  0  0  0  0  0  0
  -94.6602   20.7348    0.1364 C   0  0  0  0  0  0  0  0  0  0  0  0
  -94.2660   22.0077   -0.4712 N   0  0  0  0  0  0  0  0  0  0  0  0
  -94.9533   22.1322   -1.7485 C   0  0  0  0  0  0  0  0  0  0  0  0
  -95.5970   23.4820   -1.8295 C   0  0  0  0  0  0  0  0  0  0  0  0
  -94.6523   24.5630   -1.5617 N   0  0  0  0  0  0  0  0  0  0  0  0
  -94.1183   24.3858   -0.2043 C   0  0  0  0  0  0  0  0  0  0  0  0
  -94.6156   23.1117    0.4051 C   0  0  0  0  0  0  0  0  0  0  0  0
 32 33  1  0  0  0
 33 34  1  0  0  0
 34 35  1  0  0  0
 35 36  1  0  0  0
 36 31  1  0  0  0
 31 21  1  0  0  0
 21 22  2  0  0  0
 22 23  1  0  0  0
 23 24  2  0  0  0
 24 25  1  0  0  0
 25 26  2  0  0  0
 26 27  1  0  0  0
 27 28  1  0  0  0
 27 29  1  0  0  0
 27 30  1  0  0  0
 24  1  1  0  0  0
  1  2  2  0  0  0
  1  3  1  0  0  0
  3  5  1  0  0  0
  5  6  2  0  0  0
  6  7  1  0  0  0
  7  8  2  0  0  0
  8  9  1  0  0  0
  8 10  1  0  0  0
 10 11  2  0  0  0
 10 12  1  0  0  0
 12 13  2  0  0  0
 13 14  1  0  0  0
 14 15  2  0  0  0
 15 16  1  0  0  0
 16 17  2  0  0  0
 17 18  1  0  0  0
 18 19  2  0  0  0
 19 20  1  0  0  0
 36 37  1  0  0  0
 37 38  1  0  0  0
 38 33  1  0  0  0
 26 21  1  0  0  0
 11  5  1  0  0  0
 20 12  1  0  0  0
 20 15  1  0  0  0
  3  4  1  0  0  0
M  END
> <minimizedAffinity>
-9.91215

> <CNNscore>
0.1046761051

> <CNNaffinity>
5.9435200691

> <CNN_VS>
0.6221445203

> <CNNaffinity_variance>
0.3822084665

$$$$
[H]c1nc2c([H])c([H])c([H])c([H])n2c1-c1c([H])c(N([H])C(=O)c2c([H])c([H])c(C([H])([H])N3C([H])([H])C([H])([H])N(C([H])([H])[H])C([H])([H])C3([H])[H])c(C(F)(F)F)c2[H])c([H])c([H])c1C([H])([H])[H]


 38 42  0  0  0  0  0  0  0  0999 V2000
  -88.4740   31.9622   -1.5242 C   0  0  0  0  0  0  0  0  0  0  0  0
  -87.8060   32.5295   -0.6168 O   0  0  0  0  0  0  0  0  0  0  0  0
  -88.9875   32.5643   -2.6809 N   0  0  0  0  0  0  0  0  0  0  0  0
  -89.5346   31.9087   -3.3240 H   0  0  0  0  0  0  0  0  0  0  0  0
  -88.8583   33.9262   -3.0615 C   0  0  0  0  0  0  0  0  0  0  0  0
  -87.6069   34.5543   -2.8884 C   0  0  0  0  0  0  0  0  0  0  0  0
  -87.4105   35.8621   -3.2339 C   0  0  0  0  0  0  0  0  0  0  0  0
  -88.4387   36.6431   -3.7759 C   0  0  0  0  0  0  0  0  0  0  0  0
  -88.1405   38.1083   -3.9656 C   0  0  0  0  0  0  0  0  0  0  0  0
  -89.6473   36.0700   -3.9595 C   0  0  0  0  0  0  0  0  0  0  0  0
  -89.8368   34.7067   -3.5921 C   0  0  0  0  0  0  0  0  0  0  0  0
  -90.7769   36.6738   -4.6494 C   0  0  0  0  0  0  0  0  0  0  0  0
  -91.9108   37.1294   -3.9355 C   0  0  0  0  0  0  0  0  0  0  0  0
  -92.7869   37.5280   -4.8325 N   0  0  0  0  0  0  0  0  0  0  0  0
  -92.2536   37.3392   -6.0709 C   0  0  0  0  0  0  0  0  0  0  0  0
  -92.8941   37.6070   -7.2691 C   0  0  0  0  0  0  0  0  0  0  0  0
  -92.2324   37.3116   -8.4333 C   0  0  0  0  0  0  0  0  0  0  0  0
  -90.9845   36.7710   -8.2930 C   0  0  0  0  0  0  0  0  0  0  0  0
  -90.3736   36.5170   -7.0912 C   0  0  0  0  0  0  0  0  0  0  0  0
  -91.0233   36.8129   -5.9407 N   0  0  0  0  0  0  0  0  0  0  0  0
  -89.0729   27.7878   -0.8418 C   0  0  0  0  0  0  0  0  0  0  0  0
  -88.2953   28.2108   -1.8988 C   0  0  0  0  0  0  0  0  0  0  0  0
  -88.1227   29.5654   -2.0871 C   0  0  0  0  0  0  0  0  0  0  0  0
  -88.6940   30.5114   -1.2626 C   0  0  0  0  0  0  0  0  0  0  0  0
  -89.4531   30.0497   -0.2312 C   0  0  0  0  0  0  0  0  0  0  0  0
  -89.6728   28.6948    0.0215 C   0  0  0  0  0  0  0  0  0  0  0  0
  -90.5137   28.2850    1.1705 C   0  0  0  0  0  0  0  0  0  0  0  0
  -91.5518   27.4664    0.8452 F   0  0  0  0  0  0  0  0  0  0  0  0
  -91.0513   29.4352    1.7504 F   0  0  0  0  0  0  0  0  0  0  0  0
  -89.7043   27.7267    2.1580 F   0  0  0  0  0  0  0  0  0  0  0  0
  -89.2731   26.3466   -0.5670 C   0  0  0  0  0  0  0  0  0  0  0  0
  -92.7898   23.4325    0.1435 C   0  0  0  0  0  0  0  0  0  0  0  0
  -91.8416   24.4745   -0.2566 N   0  0  0  0  0  0  0  0  0  0  0  0
  -90.4944   23.9439   -0.1048 C   0  0  0  0  0  0  0  0  0  0  0  0
  -89.7188   24.2095   -1.3581 C   0  0  0  0  0  0  0  0  0  0  0  0
  -89.7567   25.6172   -1.7450 N   0  0  0  0  0  0  0  0  0  0  0  0
  -91.1571   25.9957   -1.9787 C   0  0  0  0  0  0  0  0  0  0  0  0
  -92.0814   24.8696   -1.6333 C   0  0  0  0  0  0  0  0  0  0  0  0
 32 33  1  0  0  0
 33 34  1  0  0  0
 34 35  1  0  0  0
 35 36  1  0  0  0
 36 31  1  0  0  0
 31 21  1  0  0  0
 21 22  2  0  0  0
 22 23  1  0  0  0
 23 24  2  0  0  0
 24 25  1  0  0  0
 25 26  2  0  0  0
 26 27  1  0  0  0
 27 28  1  0  0  0
 27 29  1  0  0  0
 27 30  1  0  0  0
 24  1  1  0  0  0
  1  2  2  0  0  0
  1  3  1  0  0  0
  3  5  1  0  0  0
  5  6  2  0  0  0
  6  7  1  0  0  0
  7  8  2  0  0  0
  8  9  1  0  0  0
  8 10  1  0  0  0
 10 11  2  0  0  0
 10 12  1  0  0  0
 12 13  2  0  0  0
 13 14  1  0  0  0
 14 15  2  0  0  0
 15 16  1  0  0  0
 16 17  2  0  0  0
 17 18  1  0  0  0
 18 19  2  0  0  0
 19 20  1  0  0  0
 36 37  1  0  0  0
 37 38  1  0  0  0
 38 33  1  0  0  0
 26 21  1  0  0  0
 11  5  1  0  0  0
 20 12  1  0  0  0
 20 15  1  0  0  0
  3  4  1  0  0  0
M  END
> <minimizedAffinity>
-7.23102

> <CNNscore>
0.1045353785

> <CNNaffinity>
6.0038318634

> <CNN_VS>
0.6276128292

> <CNNaffinity_variance>
0.0417011343

$$$$
[H]c1nc(N([H])c2c([H])c([H])c(N3C([H])([H])C([H])([H])C([H])(N4C([H])([H])C([H])([H])N(C([H])([H])[H])C([H])([H])C4([H])[H])C([H])([H])C3([H])[H])c([H])c2OC([H])([H])[H])nc(N([H])c2c([H])c([H])c([H])c([H])c2S(=O)(=O)C([H])(C([H])([H])[H])C([H])([H])[H])c1Cl


 44 48  0  0  0  0  0  0  0  0999 V2000
  -86.1661   33.9426   -3.2243 N   0  0  0  0  0  0  0  0  0  0  0  0
  -85.4111   34.6146   -3.6111 H   0  0  0  0  0  0  0  0  0  0  0  0
  -85.8285   33.2385   -2.0383 C   0  0  0  0  0  0  0  0  0  0  0  0
  -84.7163   33.3967   -1.3163 N   0  0  0  0  0  0  0  0  0  0  0  0
  -84.4607   32.6982   -0.2031 C   0  0  0  0  0  0  0  0  0  0  0  0
  -85.3675   31.7659    0.2438 C   0  0  0  0  0  0  0  0  0  0  0  0
  -85.0486   30.8379    1.7060 Cl  0  0  0  0  0  0  0  0  0  0  0  0
  -86.5505   31.5794   -0.5008 C   0  0  0  0  0  0  0  0  0  0  0  0
  -86.7132   32.3241   -1.5962 N   0  0  0  0  0  0  0  0  0  0  0  0
  -87.4599   30.6237   -0.0222 N   0  0  0  0  0  0  0  0  0  0  0  0
  -87.1126   30.0677    0.8270 H   0  0  0  0  0  0  0  0  0  0  0  0
  -88.7451   30.2625   -0.4537 C   0  0  0  0  0  0  0  0  0  0  0  0
  -89.5482   31.1906   -1.0822 C   0  0  0  0  0  0  0  0  0  0  0  0
  -90.8344   30.8460   -1.5173 C   0  0  0  0  0  0  0  0  0  0  0  0
  -91.2851   29.5768   -1.3111 C   0  0  0  0  0  0  0  0  0  0  0  0
  -90.4809   28.6524   -0.6835 C   0  0  0  0  0  0  0  0  0  0  0  0
  -89.2191   28.9621   -0.2480 C   0  0  0  0  0  0  0  0  0  0  0  0
  -88.2294   27.7987    0.5312 S   0  0  0  0  0  0  0  0  0  0  0  0
  -87.6734   28.3719    1.8104 O   0  0  0  0  0  0  0  0  0  0  0  0
  -87.0730   27.3053   -0.2927 O   0  0  0  0  0  0  0  0  0  0  0  0
  -89.1366   26.3407    1.0103 C   0  0  0  0  0  0  0  0  0  0  0  0
  -88.8801   25.2177    0.0586 C   0  0  0  0  0  0  0  0  0  0  0  0
  -88.9942   26.0001    2.4563 C   0  0  0  0  0  0  0  0  0  0  0  0
  -87.6768   35.0035   -4.7620 C   0  0  0  0  0  0  0  0  0  0  0  0
  -88.8286   35.0303   -5.5268 C   0  0  0  0  0  0  0  0  0  0  0  0
  -89.7098   33.9723   -5.5505 C   0  0  0  0  0  0  0  0  0  0  0  0
  -89.3805   32.8892   -4.7722 C   0  0  0  0  0  0  0  0  0  0  0  0
  -88.2247   32.8295   -3.9874 C   0  0  0  0  0  0  0  0  0  0  0  0
  -87.3504   33.8870   -3.9678 C   0  0  0  0  0  0  0  0  0  0  0  0
  -90.8933   34.0118   -6.3524 N   0  0  0  0  0  0  0  0  0  0  0  0
  -90.7790   34.4331   -7.7065 C   0  0  0  0  0  0  0  0  0  0  0  0
  -91.9533   34.1266   -8.5931 C   0  0  0  0  0  0  0  0  0  0  0  0
  -93.2827   34.3788   -7.9652 C   0  0  0  0  0  0  0  0  0  0  0  0
  -93.2076   34.5264   -6.4586 C   0  0  0  0  0  0  0  0  0  0  0  0
  -92.1857   33.6443   -5.8255 C   0  0  0  0  0  0  0  0  0  0  0  0
  -94.3336   33.4992   -8.2900 N   0  0  0  0  0  0  0  0  0  0  0  0
  -94.2829   32.7753   -9.4911 C   0  0  0  0  0  0  0  0  0  0  0  0
  -95.6693   32.2068   -9.8068 C   0  0  0  0  0  0  0  0  0  0  0  0
  -96.2060   31.6453   -8.5824 N   0  0  0  0  0  0  0  0  0  0  0  0
  -95.5633   30.4429   -8.1574 C   0  0  0  0  0  0  0  0  0  0  0  0
  -96.4297   32.6201   -7.5641 C   0  0  0  0  0  0  0  0  0  0  0  0
  -95.6540   33.8890   -7.9115 C   0  0  0  0  0  0  0  0  0  0  0  0
  -86.9450   37.0261   -5.8442 C   0  0  0  0  0  0  0  0  0  0  0  0
  -86.8334   36.1035   -4.7848 O   0  0  0  0  0  0  0  0  0  0  0  0
 43 44  1  0  0  0
 44 24  1  0  0  0
 24 25  2  0  0  0
 25 26  1  0  0  0
 26 27  2  0  0  0
 27 28  1  0  0  0
 28 29  2  0  0  0
 29  1  1  0  0  0
  1  3  1  0  0  0
  3  4  2  0  0  0
  4  5  1  0  0  0
  5  6  2  0  0  0
  6  7  1  0  0  0
  6  8  1  0  0  0
  8 10  1  0  0  0
 10 12  1  0  0  0
 12 13  2  0  0  0
 13 14  1  0  0  0
 14 15  2  0  0  0
 15 16  1  0  0  0
 16 17  2  0  0  0
 17 18  1  0  0  0
 18 19  2  0  0  0
 18 20  2  0  0  0
 18 21  1  0  0  0
 21 22  1  0  0  0
 21 23  1  0  0  0
  8  9  2  0  0  0
 26 30  1  0  0  0
 30 31  1  0  0  0
 31 32  1  0  0  0
 32 33  1  0  0  0
 33 34  1  0  0  0
 34 35  1  0  0  0
 33 36  1  0  0  0
 36 37  1  0  0  0
 37 38  1  0  0  0
 38 39  1  0  0  0
 39 40  1  0  0  0
 39 41  1  0  0  0
 41 42  1  0  0  0
 29 24  1  0  0  0
  9  3  1  0  0  0
 35 30  1  0  0  0
 42 36  1  0  0  0
 17 12  1  0  0  0
  1  2  1  0  0  0
 10 11  1  0  0  0
M  END
> <minimizedAffinity>
-7.74013

> <CNNscore>
0.5407050848

> <CNNaffinity>
7.5301270485

> <CNN_VS>
4.0715780258

> <CNNaffinity_variance>
0.0314048454

$$$$
[H]c1nc(N([H])c2c([H])c([H])c(N3C([H])([H])C([H])([H])C([H])(N4C([H])([H])C([H])([H])N(C([H])([H])[H])C([H])([H])C4([H])[H])C([H])([H])C3([H])[H])c([H])c2OC([H])([H])[H])nc(N([H])c2c([H])c([H])c([H])c([H])c2S(=O)(=O)C([H])(C([H])([H])[H])C([H])([H])[H])c1Cl


 44 48  0  0  0  0  0  0  0  0999 V2000
  -90.1460   32.5870   -2.2239 N   0  0  0  0  0  0  0  0  0  0  0  0
  -90.8282   33.3579   -1.8898 H   0  0  0  0  0  0  0  0  0  0  0  0
  -88.7654   32.8350   -2.0029 C   0  0  0  0  0  0  0  0  0  0  0  0
  -88.0954   33.9356   -2.3535 N   0  0  0  0  0  0  0  0  0  0  0  0
  -86.7894   34.1053   -2.1125 C   0  0  0  0  0  0  0  0  0  0  0  0
  -86.0764   33.1172   -1.4751 C   0  0  0  0  0  0  0  0  0  0  0  0
  -84.3581   33.3229   -1.1495 Cl  0  0  0  0  0  0  0  0  0  0  0  0
  -86.7607   31.9444   -1.0942 C   0  0  0  0  0  0  0  0  0  0  0  0
  -88.0624   31.8703   -1.3789 N   0  0  0  0  0  0  0  0  0  0  0  0
  -86.0106   30.9526   -0.4437 N   0  0  0  0  0  0  0  0  0  0  0  0
  -85.0133   31.2504   -0.1836 H   0  0  0  0  0  0  0  0  0  0  0  0
  -86.3293   29.6384   -0.0701 C   0  0  0  0  0  0  0  0  0  0  0  0
  -87.0577   28.8361   -0.9228 C   0  0  0  0  0  0  0  0  0  0  0  0
  -87.3855   27.5223   -0.5637 C   0  0  0  0  0  0  0  0  0  0  0  0
  -86.9743   27.0440    0.6442 C   0  0  0  0  0  0  0  0  0  0  0  0
  -86.2471   27.8473    1.4932 C   0  0  0  0  0  0  0  0  0  0  0  0
  -85.9125   29.1357    1.1674 C   0  0  0  0  0  0  0  0  0  0  0  0
  -85.0051   30.1231    2.2359 S   0  0  0  0  0  0  0  0  0  0  0  0
  -85.2615   29.7065    3.6624 O   0  0  0  0  0  0  0  0  0  0  0  0
  -85.2925   31.5946    2.1277 O   0  0  0  0  0  0  0  0  0  0  0  0
  -83.2468   29.9563    1.9935 C   0  0  0  0  0  0  0  0  0  0  0  0
  -82.8132   28.5413    2.1999 C   0  0  0  0  0  0  0  0  0  0  0  0
  -82.7554   30.6004    0.7403 C   0  0  0  0  0  0  0  0  0  0  0  0
  -91.0181   30.3596   -1.9998 C   0  0  0  0  0  0  0  0  0  0  0  0
  -91.6133   29.2196   -2.5081 C   0  0  0  0  0  0  0  0  0  0  0  0
  -91.9730   29.1171   -3.8334 C   0  0  0  0  0  0  0  0  0  0  0  0
  -91.7077   30.2103   -4.6218 C   0  0  0  0  0  0  0  0  0  0  0  0
  -91.1072   31.3778   -4.1403 C   0  0  0  0  0  0  0  0  0  0  0  0
  -90.7509   31.4741   -2.8186 C   0  0  0  0  0  0  0  0  0  0  0  0
  -92.5947   27.9341   -4.3429 N   0  0  0  0  0  0  0  0  0  0  0  0
  -92.1519   26.6733   -3.8543 C   0  0  0  0  0  0  0  0  0  0  0  0
  -93.0509   25.5034   -4.1405 C   0  0  0  0  0  0  0  0  0  0  0  0
  -93.6134   25.4812   -5.5219 C   0  0  0  0  0  0  0  0  0  0  0  0
  -93.4841   26.8121   -6.2354 C   0  0  0  0  0  0  0  0  0  0  0  0
  -93.6436   27.9881   -5.3328 C   0  0  0  0  0  0  0  0  0  0  0  0
  -94.9267   24.9982   -5.6825 N   0  0  0  0  0  0  0  0  0  0  0  0
  -95.3154   23.8209   -5.0251 C   0  0  0  0  0  0  0  0  0  0  0  0
  -96.6147   23.2941   -5.6410 C   0  0  0  0  0  0  0  0  0  0  0  0
  -97.5109   24.4209   -5.8131 N   0  0  0  0  0  0  0  0  0  0  0  0
  -98.0380   24.9429   -4.5929 C   0  0  0  0  0  0  0  0  0  0  0  0
  -97.0280   25.3902   -6.7428 C   0  0  0  0  0  0  0  0  0  0  0  0
  -95.5336   25.1657   -6.9640 C   0  0  0  0  0  0  0  0  0  0  0  0
  -90.7344   29.2022    0.0925 C   0  0  0  0  0  0  0  0  0  0  0  0
  -90.6816   30.3955   -0.6554 O   0  0  0  0  0  0  0  0  0  0  0  0
 43 44  1  0  0  0
 44 24  1  0  0  0
 24 25  2  0  0  0
 25 26  1  0  0  0
 26 27  2  0  0  0
 27 28  1  0  0  0
 28 29  2  0  0  0
 29  1  1  0  0  0
  1  3  1  0  0  0
  3  4  2  0  0  0
  4  5  1  0  0  0
  5  6  2  0  0  0
  6  7  1  0  0  0
  6  8  1  0  0  0
  8 10  1  0  0  0
 10 12  1  0  0  0
 12 13  2  0  0  0
 13 14  1  0  0  0
 14 15  2  0  0  0
 15 16  1  0  0  0
 16 17  2  0  0  0
 17 18  1  0  0  0
 18 19  2  0  0  0
 18 20  2  0  0  0
 18 21  1  0  0  0
 21 22  1  0  0  0
 21 23  1  0  0  0
  8  9  2  0  0  0
 26 30  1  0  0  0
 30 31  1  0  0  0
 31 32  1  0  0  0
 32 33  1  0  0  0
 33 34  1  0  0  0
 34 35  1  0  0  0
 33 36  1  0  0  0
 36 37  1  0  0  0
 37 38  1  0  0  0
 38 39  1  0  0  0
 39 40  1  0  0  0
 39 41  1  0  0  0
 41 42  1  0  0  0
 29 24  1  0  0  0
  9  3  1  0  0  0
 35 30  1  0  0  0
 42 36  1  0  0  0
 17 12  1  0  0  0
  1  2  1  0  0  0
 10 11  1  0  0  0
M  END
> <minimizedAffinity>
-8.62490

> <CNNscore>
0.2618317008

> <CNNaffinity>
6.7785630226

> <CNN_VS>
1.7748427391

> <CNNaffinity_variance>
0.7536109686

$$$$
[H]c1nc(N([H])c2c([H])c([H])c(N3C([H])([H])C([H])([H])C([H])(N4C([H])([H])C([H])([H])N(C([H])([H])[H])C([H])([H])C4([H])[H])C([H])([H])C3([H])[H])c([H])c2OC([H])([H])[H])nc(N([H])c2c([H])c([H])c([H])c([H])c2S(=O)(=O)C([H])(C([H])([H])[H])C([H])([H])[H])c1Cl


 44 48  0  0  0  0  0  0  0  0999 V2000
  -86.3263   33.3929   -0.6696 N   0  0  0  0  0  0  0  0  0  0  0  0
  -86.0650   34.3183   -0.1731 H   0  0  0  0  0  0  0  0  0  0  0  0
  -85.7849   32.2068   -0.1071 C   0  0  0  0  0  0  0  0  0  0  0  0
  -84.5516   32.0575    0.3828 N   0  0  0  0  0  0  0  0  0  0  0  0
  -84.1045   30.9072    0.9019 C   0  0  0  0  0  0  0  0  0  0  0  0
  -84.9310   29.8090    0.9469 C   0  0  0  0  0  0  0  0  0  0  0  0
  -84.3604   28.2879    1.6261 Cl  0  0  0  0  0  0  0  0  0  0  0  0
  -86.2388   29.9403    0.4358 C   0  0  0  0  0  0  0  0  0  0  0  0
  -86.5902   31.1282   -0.0606 N   0  0  0  0  0  0  0  0  0  0  0  0
  -87.0624   28.8056    0.4953 N   0  0  0  0  0  0  0  0  0  0  0  0
  -87.0096   28.2679    1.4222 H   0  0  0  0  0  0  0  0  0  0  0  0
  -87.9454   28.2451   -0.4399 C   0  0  0  0  0  0  0  0  0  0  0  0
  -87.9354   28.6836   -1.7471 C   0  0  0  0  0  0  0  0  0  0  0  0
  -88.8119   28.1354   -2.6924 C   0  0  0  0  0  0  0  0  0  0  0  0
  -89.6790   27.1590   -2.3031 C   0  0  0  0  0  0  0  0  0  0  0  0
  -89.6865   26.7232   -0.9974 C   0  0  0  0  0  0  0  0  0  0  0  0
  -88.8403   27.2417   -0.0523 C   0  0  0  0  0  0  0  0  0  0  0  0
  -88.8613   26.6871    1.5700 S   0  0  0  0  0  0  0  0  0  0  0  0
  -87.4501   26.5473    2.0831 O   0  0  0  0  0  0  0  0  0  0  0  0
  -89.5575   25.3707    1.7745 O   0  0  0  0  0  0  0  0  0  0  0  0
  -89.6644   27.8338    2.6739 C   0  0  0  0  0  0  0  0  0  0  0  0
  -90.9056   28.3885    2.0539 C   0  0  0  0  0  0  0  0  0  0  0  0
  -89.8205   27.3116    4.0631 C   0  0  0  0  0  0  0  0  0  0  0  0
  -88.5193   33.2025   -1.6322 C   0  0  0  0  0  0  0  0  0  0  0  0
  -89.4091   33.3105   -2.6852 C   0  0  0  0  0  0  0  0  0  0  0  0
  -89.0116   33.7425   -3.9309 C   0  0  0  0  0  0  0  0  0  0  0  0
  -87.6822   34.0602   -4.0687 C   0  0  0  0  0  0  0  0  0  0  0  0
  -86.7563   33.9623   -3.0254 C   0  0  0  0  0  0  0  0  0  0  0  0
  -87.1583   33.5311   -1.7862 C   0  0  0  0  0  0  0  0  0  0  0  0
  -89.9452   33.8561   -5.0084 N   0  0  0  0  0  0  0  0  0  0  0  0
  -90.8577   32.7869   -5.2282 C   0  0  0  0  0  0  0  0  0  0  0  0
  -92.0277   33.0925   -6.1207 C   0  0  0  0  0  0  0  0  0  0  0  0
  -91.6858   33.8883   -7.3352 C   0  0  0  0  0  0  0  0  0  0  0  0
  -90.3256   34.5508   -7.2455 C   0  0  0  0  0  0  0  0  0  0  0  0
  -89.9793   35.0129   -5.8708 C   0  0  0  0  0  0  0  0  0  0  0  0
  -92.6298   34.8334   -7.7815 N   0  0  0  0  0  0  0  0  0  0  0  0
  -93.6185   35.2931   -6.8980 C   0  0  0  0  0  0  0  0  0  0  0  0
  -94.7306   35.9881   -7.6886 C   0  0  0  0  0  0  0  0  0  0  0  0
  -94.1021   36.8512   -8.6698 N   0  0  0  0  0  0  0  0  0  0  0  0
  -93.4679   38.0045   -8.1159 C   0  0  0  0  0  0  0  0  0  0  0  0
  -93.3446   36.1382   -9.6470 C   0  0  0  0  0  0  0  0  0  0  0  0
  -93.0756   34.7251   -9.1336 C   0  0  0  0  0  0  0  0  0  0  0  0
  -89.8433   31.6421   -0.3634 C   0  0  0  0  0  0  0  0  0  0  0  0
  -88.9871   32.7608   -0.4043 O   0  0  0  0  0  0  0  0  0  0  0  0
 43 44  1  0  0  0
 44 24  1  0  0  0
 24 25  2  0  0  0
 25 26  1  0  0  0
 26 27  2  0  0  0
 27 28  1  0  0  0
 28 29  2  0  0  0
 29  1  1  0  0  0
  1  3  1  0  0  0
  3  4  2  0  0  0
  4  5  1  0  0  0
  5  6  2  0  0  0
  6  7  1  0  0  0
  6  8  1  0  0  0
  8 10  1  0  0  0
 10 12  1  0  0  0
 12 13  2  0  0  0
 13 14  1  0  0  0
 14 15  2  0  0  0
 15 16  1  0  0  0
 16 17  2  0  0  0
 17 18  1  0  0  0
 18 19  2  0  0  0
 18 20  2  0  0  0
 18 21  1  0  0  0
 21 22  1  0  0  0
 21 23  1  0  0  0
  8  9  2  0  0  0
 26 30  1  0  0  0
 30 31  1  0  0  0
 31 32  1  0  0  0
 32 33  1  0  0  0
 33 34  1  0  0  0
 34 35  1  0  0  0
 33 36  1  0  0  0
 36 37  1  0  0  0
 37 38  1  0  0  0
 38 39  1  0  0  0
 39 40  1  0  0  0
 39 41  1  0  0  0
 41 42  1  0  0  0
 29 24  1  0  0  0
  9  3  1  0  0  0
 35 30  1  0  0  0
 42 36  1  0  0  0
 17 12  1  0  0  0
  1  2  1  0  0  0
 10 11  1  0  0  0
M  END
> <minimizedAffinity>
-7.78827

> <CNNscore>
0.1956047118

> <CNNaffinity>
7.1831932068

> <CNN_VS>
1.4050664902

> <CNNaffinity_variance>
0.1622948945

$$$$
[H]c1nc(N([H])c2c([H])c([H])c(N3C([H])([H])C([H])([H])C([H])(N4C([H])([H])C([H])([H])N(C([H])([H])[H])C([H])([H])C4([H])[H])C([H])([H])C3([H])[H])c([H])c2OC([H])([H])[H])nc(N([H])c2c([H])c([H])c([H])c([H])c2S(=O)(=O)C([H])(C([H])([H])[H])C([H])([H])[H])c1Cl


 44 48  0  0  0  0  0  0  0  0999 V2000
  -87.0108   32.6654   -0.7692 N   0  0  0  0  0  0  0  0  0  0  0  0
  -86.5994   33.6558   -0.6246 H   0  0  0  0  0  0  0  0  0  0  0  0
  -86.3944   31.6185   -0.0339 C   0  0  0  0  0  0  0  0  0  0  0  0
  -85.2436   31.6984    0.6387 N   0  0  0  0  0  0  0  0  0  0  0  0
  -84.7179   30.6691    1.3145 C   0  0  0  0  0  0  0  0  0  0  0  0
  -85.3706   29.4588    1.3359 C   0  0  0  0  0  0  0  0  0  0  0  0
  -84.6945   28.0940    2.2196 Cl  0  0  0  0  0  0  0  0  0  0  0  0
  -86.5883   29.3481    0.6333 C   0  0  0  0  0  0  0  0  0  0  0  0
  -87.0295   30.4310   -0.0098 N   0  0  0  0  0  0  0  0  0  0  0  0
  -87.2350   28.1033    0.6727 N   0  0  0  0  0  0  0  0  0  0  0  0
  -86.8861   27.4469    1.4463 H   0  0  0  0  0  0  0  0  0  0  0  0
  -88.2585   27.5596   -0.1181 C   0  0  0  0  0  0  0  0  0  0  0  0
  -88.3042   27.8306   -1.4693 C   0  0  0  0  0  0  0  0  0  0  0  0
  -89.3206   27.2970   -2.2721 C   0  0  0  0  0  0  0  0  0  0  0  0
  -90.2684   26.5031   -1.6994 C   0  0  0  0  0  0  0  0  0  0  0  0
  -90.2200   26.2342   -0.3502 C   0  0  0  0  0  0  0  0  0  0  0  0
  -89.2374   26.7427    0.4583 C   0  0  0  0  0  0  0  0  0  0  0  0
  -89.1905   26.3973    2.1372 S   0  0  0  0  0  0  0  0  0  0  0  0
  -87.7613   26.2224    2.5855 O   0  0  0  0  0  0  0  0  0  0  0  0
  -89.9547   25.1695    2.5471 O   0  0  0  0  0  0  0  0  0  0  0  0
  -89.8472   27.7267    3.1270 C   0  0  0  0  0  0  0  0  0  0  0  0
  -90.9114   28.4674    2.3844 C   0  0  0  0  0  0  0  0  0  0  0  0
  -90.2044   27.3137    4.5158 C   0  0  0  0  0  0  0  0  0  0  0  0
  -88.0830   33.4713   -2.7625 C   0  0  0  0  0  0  0  0  0  0  0  0
  -89.1073   33.4643   -3.6915 C   0  0  0  0  0  0  0  0  0  0  0  0
  -90.1761   32.6021   -3.5882 C   0  0  0  0  0  0  0  0  0  0  0  0
  -90.1676   31.7495   -2.5111 C   0  0  0  0  0  0  0  0  0  0  0  0
  -89.1484   31.7305   -1.5538 C   0  0  0  0  0  0  0  0  0  0  0  0
  -88.0859   32.5921   -1.6620 C   0  0  0  0  0  0  0  0  0  0  0  0
  -91.2243   32.6017   -4.5611 N   0  0  0  0  0  0  0  0  0  0  0  0
  -91.8302   31.3603   -4.9020 C   0  0  0  0  0  0  0  0  0  0  0  0
  -93.1349   31.4457   -5.6431 C   0  0  0  0  0  0  0  0  0  0  0  0
  -93.1668   32.4784   -6.7190 C   0  0  0  0  0  0  0  0  0  0  0  0
  -92.0377   33.4834   -6.6087 C   0  0  0  0  0  0  0  0  0  0  0  0
  -91.6726   33.8149   -5.2016 C   0  0  0  0  0  0  0  0  0  0  0  0
  -94.3780   33.1671   -6.9249 N   0  0  0  0  0  0  0  0  0  0  0  0
  -94.3917   34.3156   -7.7311 C   0  0  0  0  0  0  0  0  0  0  0  0
  -95.6905   35.0920   -7.4965 C   0  0  0  0  0  0  0  0  0  0  0  0
  -96.7809   34.1363   -7.4857 N   0  0  0  0  0  0  0  0  0  0  0  0
  -97.0833   33.5769   -8.7643 C   0  0  0  0  0  0  0  0  0  0  0  0
  -96.7065   33.2061   -6.4057 C   0  0  0  0  0  0  0  0  0  0  0  0
  -95.2922   33.2252   -5.8297 C   0  0  0  0  0  0  0  0  0  0  0  0
  -87.1617   35.3912   -3.8861 C   0  0  0  0  0  0  0  0  0  0  0  0
  -87.0370   34.3659   -2.9273 O   0  0  0  0  0  0  0  0  0  0  0  0
 43 44  1  0  0  0
 44 24  1  0  0  0
 24 25  2  0  0  0
 25 26  1  0  0  0
 26 27  2  0  0  0
 27 28  1  0  0  0
 28 29  2  0  0  0
 29  1  1  0  0  0
  1  3  1  0  0  0
  3  4  2  0  0  0
  4  5  1  0  0  0
  5  6  2  0  0  0
  6  7  1  0  0  0
  6  8  1  0  0  0
  8 10  1  0  0  0
 10 12  1  0  0  0
 12 13  2  0  0  0
 13 14  1  0  0  0
 14 15  2  0  0  0
 15 16  1  0  0  0
 16 17  2  0  0  0
 17 18  1  0  0  0
 18 19  2  0  0  0
 18 20  2  0  0  0
 18 21  1  0  0  0
 21 22  1  0  0  0
 21 23  1  0  0  0
  8  9  2  0  0  0
 26 30  1  0  0  0
 30 31  1  0  0  0
 31 32  1  0  0  0
 32 33  1  0  0  0
 33 34  1  0  0  0
 34 35  1  0  0  0
 33 36  1  0  0  0
 36 37  1  0  0  0
 37 38  1  0  0  0
 38 39  1  0  0  0
 39 40  1  0  0  0
 39 41  1  0  0  0
 41 42  1  0  0  0
 29 24  1  0  0  0
  9  3  1  0  0  0
 35 30  1  0  0  0
 42 36  1  0  0  0
 17 12  1  0  0  0
  1  2  1  0  0  0
 10 11  1  0  0  0
M  END
> <minimizedAffinity>
-7.58514

> <CNNscore>
0.1376571357

> <CNNaffinity>
7.2994856834

> <CNN_VS>
1.0048263073

> <CNNaffinity_variance>
0.0713621005

$$$$
[H]c1nc(N([H])c2c([H])c([H])c(N3C([H])([H])C([H])([H])C([H])(N4C([H])([H])C([H])([H])N(C([H])([H])[H])C([H])([H])C4([H])[H])C([H])([H])C3([H])[H])c([H])c2OC([H])([H])[H])nc(N([H])c2c([H])c([H])c([H])c([H])c2S(=O)(=O)C([H])(C([H])([H])[H])C([H])([H])[H])c1Cl


 44 48  0  0  0  0  0  0  0  0999 V2000
  -90.5475   32.2435   -2.6174 N   0  0  0  0  0  0  0  0  0  0  0  0
  -91.1711   33.0598   -2.9578 H   0  0  0  0  0  0  0  0  0  0  0  0
  -89.2026   32.5730   -2.3024 C   0  0  0  0  0  0  0  0  0  0  0  0
  -88.5861   33.7241   -2.5821 N   0  0  0  0  0  0  0  0  0  0  0  0
  -87.3117   33.9703   -2.2539 C   0  0  0  0  0  0  0  0  0  0  0  0
  -86.5761   33.0119   -1.5969 C   0  0  0  0  0  0  0  0  0  0  0  0
  -84.8988   33.3180   -1.1571 Cl  0  0  0  0  0  0  0  0  0  0  0  0
  -87.2040   31.7871   -1.2897 C   0  0  0  0  0  0  0  0  0  0  0  0
  -88.4778   31.6379   -1.6588 N   0  0  0  0  0  0  0  0  0  0  0  0
  -86.4322   30.8272   -0.6173 N   0  0  0  0  0  0  0  0  0  0  0  0
  -85.4550   31.1654   -0.3313 H   0  0  0  0  0  0  0  0  0  0  0  0
  -86.7073   29.5014   -0.2497 C   0  0  0  0  0  0  0  0  0  0  0  0
  -87.5480   28.7308   -1.0247 C   0  0  0  0  0  0  0  0  0  0  0  0
  -87.8341   27.4062   -0.6703 C   0  0  0  0  0  0  0  0  0  0  0  0
  -87.2693   26.8853    0.4550 C   0  0  0  0  0  0  0  0  0  0  0  0
  -86.4302   27.6570    1.2266 C   0  0  0  0  0  0  0  0  0  0  0  0
  -86.1331   28.9552    0.9034 C   0  0  0  0  0  0  0  0  0  0  0  0
  -85.0849   29.9029    1.8747 S   0  0  0  0  0  0  0  0  0  0  0  0
  -85.1222   29.4119    3.3001 O   0  0  0  0  0  0  0  0  0  0  0  0
  -85.3978   31.3730    1.8863 O   0  0  0  0  0  0  0  0  0  0  0  0
  -83.3811   29.7766    1.3656 C   0  0  0  0  0  0  0  0  0  0  0  0
  -82.7662   31.1311    1.2243 C   0  0  0  0  0  0  0  0  0  0  0  0
  -82.5922   28.7955    2.1668 C   0  0  0  0  0  0  0  0  0  0  0  0
  -92.1365   30.6945   -3.5381 C   0  0  0  0  0  0  0  0  0  0  0  0
  -92.8100   29.4867   -3.5418 C   0  0  0  0  0  0  0  0  0  0  0  0
  -92.5832   28.5254   -2.5822 C   0  0  0  0  0  0  0  0  0  0  0  0
  -91.6507   28.8333   -1.6216 C   0  0  0  0  0  0  0  0  0  0  0  0
  -90.9524   30.0444   -1.5883 C   0  0  0  0  0  0  0  0  0  0  0  0
  -91.1827   30.9985   -2.5472 C   0  0  0  0  0  0  0  0  0  0  0  0
  -93.2822   27.2779   -2.6036 N   0  0  0  0  0  0  0  0  0  0  0  0
  -94.6884   27.2942   -2.8196 C   0  0  0  0  0  0  0  0  0  0  0  0
  -95.3143   25.9769   -3.1827 C   0  0  0  0  0  0  0  0  0  0  0  0
  -94.8122   24.8164   -2.3913 C   0  0  0  0  0  0  0  0  0  0  0  0
  -93.5213   25.1155   -1.6557 C   0  0  0  0  0  0  0  0  0  0  0  0
  -92.6042   26.0189   -2.4080 C   0  0  0  0  0  0  0  0  0  0  0  0
  -94.6883   23.5804   -3.0551 N   0  0  0  0  0  0  0  0  0  0  0  0
  -93.8942   22.5698   -2.4917 C   0  0  0  0  0  0  0  0  0  0  0  0
  -93.6006   21.4995   -3.5468 C   0  0  0  0  0  0  0  0  0  0  0  0
  -94.8391   21.2166   -4.2458 N   0  0  0  0  0  0  0  0  0  0  0  0
  -95.8023   20.5049   -3.4681 C   0  0  0  0  0  0  0  0  0  0  0  0
  -95.3405   22.3323   -4.9813 C   0  0  0  0  0  0  0  0  0  0  0  0
  -94.6577   23.6041   -4.4823 C   0  0  0  0  0  0  0  0  0  0  0  0
  -93.0483   31.1780   -5.7135 C   0  0  0  0  0  0  0  0  0  0  0  0
  -92.4137   31.6176   -4.5345 O   0  0  0  0  0  0  0  0  0  0  0  0
 43 44  1  0  0  0
 44 24  1  0  0  0
 24 25  2  0  0  0
 25 26  1  0  0  0
 26 27  2  0  0  0
 27 28  1  0  0  0
 28 29  2  0  0  0
 29  1  1  0  0  0
  1  3  1  0  0  0
  3  4  2  0  0  0
  4  5  1  0  0  0
  5  6  2  0  0  0
  6  7  1  0  0  0
  6  8  1  0  0  0
  8 10  1  0  0  0
 10 12  1  0  0  0
 12 13  2  0  0  0
 13 14  1  0  0  0
 14 15  2  0  0  0
 15 16  1  0  0  0
 16 17  2  0  0  0
 17 18  1  0  0  0
 18 19  2  0  0  0
 18 20  2  0  0  0
 18 21  1  0  0  0
 21 22  1  0  0  0
 21 23  1  0  0  0
  8  9  2  0  0  0
 26 30  1  0  0  0
 30 31  1  0  0  0
 31 32  1  0  0  0
 32 33  1  0  0  0
 33 34  1  0  0  0
 34 35  1  0  0  0
 33 36  1  0  0  0
 36 37  1  0  0  0
 37 38  1  0  0  0
 38 39  1  0  0  0
 39 40  1  0  0  0
 39 41  1  0  0  0
 41 42  1  0  0  0
 29 24  1  0  0  0
  9  3  1  0  0  0
 35 30  1  0  0  0
 42 36  1  0  0  0
 17 12  1  0  0  0
  1  2  1  0  0  0
 10 11  1  0  0  0
M  END
> <minimizedAffinity>
-8.08375

> <CNNscore>
0.1325761825

> <CNNaffinity>
6.8472929001

> <CNN_VS>
0.9077879786

> <CNNaffinity_variance>
0.3986845315

$$$$
[H]c1nc(N([H])c2c([H])c([H])c(N3C([H])([H])C([H])([H])C([H])(N4C([H])([H])C([H])([H])N(C([H])([H])[H])C([H])([H])C4([H])[H])C([H])([H])C3([H])[H])c([H])c2OC([H])([H])[H])nc(N([H])c2c([H])c([H])c([H])c([H])c2S(=O)(=O)C([H])(C([H])([H])[H])C([H])([H])[H])c1Cl


 44 48  0  0  0  0  0  0  0  0999 V2000
  -87.4939   26.2213    1.8115 N   0  0  0  0  0  0  0  0  0  0  0  0
  -87.5432   25.5564    2.6640 H   0  0  0  0  0  0  0  0  0  0  0  0
  -86.3844   27.1067    1.7721 C   0  0  0  0  0  0  0  0  0  0  0  0
  -85.3587   27.1248    2.6270 N   0  0  0  0  0  0  0  0  0  0  0  0
  -84.3407   27.9891    2.5305 C   0  0  0  0  0  0  0  0  0  0  0  0
  -84.3218   28.9144    1.5134 C   0  0  0  0  0  0  0  0  0  0  0  0
  -82.9912   30.0588    1.3705 Cl  0  0  0  0  0  0  0  0  0  0  0  0
  -85.3936   28.9163    0.5968 C   0  0  0  0  0  0  0  0  0  0  0  0
  -86.3610   28.0150    0.7778 N   0  0  0  0  0  0  0  0  0  0  0  0
  -85.3492   29.8691   -0.4325 N   0  0  0  0  0  0  0  0  0  0  0  0
  -84.8044   29.5567   -1.3023 H   0  0  0  0  0  0  0  0  0  0  0  0
  -85.8899   31.1599   -0.5312 C   0  0  0  0  0  0  0  0  0  0  0  0
  -85.1682   32.2464   -0.0841 C   0  0  0  0  0  0  0  0  0  0  0  0
  -85.6948   33.5413   -0.1740 C   0  0  0  0  0  0  0  0  0  0  0  0
  -86.9350   33.7158   -0.7109 C   0  0  0  0  0  0  0  0  0  0  0  0
  -87.6530   32.6292   -1.1566 C   0  0  0  0  0  0  0  0  0  0  0  0
  -87.1623   31.3519   -1.0810 C   0  0  0  0  0  0  0  0  0  0  0  0
  -88.0691   30.0090   -1.6417 S   0  0  0  0  0  0  0  0  0  0  0  0
  -88.8534   29.4077   -0.5027 O   0  0  0  0  0  0  0  0  0  0  0  0
  -87.2492   28.9138   -2.2643 O   0  0  0  0  0  0  0  0  0  0  0  0
  -89.2769   30.4654   -2.8710 C   0  0  0  0  0  0  0  0  0  0  0  0
  -88.6198   30.7507   -4.1823 C   0  0  0  0  0  0  0  0  0  0  0  0
  -90.4460   29.5397   -2.9284 C   0  0  0  0  0  0  0  0  0  0  0  0
  -89.8360   26.4374    1.3215 C   0  0  0  0  0  0  0  0  0  0  0  0
  -90.9258   26.3358    0.4763 C   0  0  0  0  0  0  0  0  0  0  0  0
  -90.8001   25.8909   -0.8209 C   0  0  0  0  0  0  0  0  0  0  0  0
  -89.5321   25.5541   -1.2280 C   0  0  0  0  0  0  0  0  0  0  0  0
  -88.4091   25.6447   -0.3996 C   0  0  0  0  0  0  0  0  0  0  0  0
  -88.5406   26.0887    0.8922 C   0  0  0  0  0  0  0  0  0  0  0  0
  -91.9355   25.7982   -1.6855 N   0  0  0  0  0  0  0  0  0  0  0  0
  -93.2133   25.5723   -1.1020 C   0  0  0  0  0  0  0  0  0  0  0  0
  -94.3979   25.8317   -1.9898 C   0  0  0  0  0  0  0  0  0  0  0  0
  -94.2451   25.3277   -3.3854 C   0  0  0  0  0  0  0  0  0  0  0  0
  -92.8091   25.0000   -3.7426 C   0  0  0  0  0  0  0  0  0  0  0  0
  -91.8165   25.9211   -3.1186 C   0  0  0  0  0  0  0  0  0  0  0  0
  -94.8135   26.0949   -4.4207 N   0  0  0  0  0  0  0  0  0  0  0  0
  -95.0184   27.4700   -4.2296 C   0  0  0  0  0  0  0  0  0  0  0  0
  -95.9766   27.9999   -5.3001 C   0  0  0  0  0  0  0  0  0  0  0  0
  -95.5657   27.4446   -6.5750 N   0  0  0  0  0  0  0  0  0  0  0  0
  -94.3442   27.9826   -7.0828 C   0  0  0  0  0  0  0  0  0  0  0  0
  -95.6896   26.0242   -6.6390 C   0  0  0  0  0  0  0  0  0  0  0  0
  -95.8186   25.4720   -5.2210 C   0  0  0  0  0  0  0  0  0  0  0  0
  -90.7714   28.0771    2.8163 C   0  0  0  0  0  0  0  0  0  0  0  0
  -90.0340   26.8930    2.6158 O   0  0  0  0  0  0  0  0  0  0  0  0
 43 44  1  0  0  0
 44 24  1  0  0  0
 24 25  2  0  0  0
 25 26  1  0  0  0
 26 27  2  0  0  0
 27 28  1  0  0  0
 28 29  2  0  0  0
 29  1  1  0  0  0
  1  3  1  0  0  0
  3  4  2  0  0  0
  4  5  1  0  0  0
  5  6  2  0  0  0
  6  7  1  0  0  0
  6  8  1  0  0  0
  8 10  1  0  0  0
 10 12  1  0  0  0
 12 13  2  0  0  0
 13 14  1  0  0  0
 14 15  2  0  0  0
 15 16  1  0  0  0
 16 17  2  0  0  0
 17 18  1  0  0  0
 18 19  2  0  0  0
 18 20  2  0  0  0
 18 21  1  0  0  0
 21 22  1  0  0  0
 21 23  1  0  0  0
  8  9  2  0  0  0
 26 30  1  0  0  0
 30 31  1  0  0  0
 31 32  1  0  0  0
 32 33  1  0  0  0
 33 34  1  0  0  0
 34 35  1  0  0  0
 33 36  1  0  0  0
 36 37  1  0  0  0
 37 38  1  0  0  0
 38 39  1  0  0  0
 39 40  1  0  0  0
 39 41  1  0  0  0
 41 42  1  0  0  0
 29 24  1  0  0  0
  9  3  1  0  0  0
 35 30  1  0  0  0
 42 36  1  0  0  0
 17 12  1  0  0  0
  1  2  1  0  0  0
 10 11  1  0  0  0
M  END
> <minimizedAffinity>
-8.12676

> <CNNscore>
0.1056118831

> <CNNaffinity>
7.0774445534

> <CNN_VS>
0.7474622726

> <CNNaffinity_variance>
0.2107190192

$$$$
[H]c1nc(N([H])c2c([H])c([H])c(N3C([H])([H])C([H])([H])C([H])(N4C([H])([H])C([H])([H])N(C([H])([H])[H])C([H])([H])C4([H])[H])C([H])([H])C3([H])[H])c([H])c2OC([H])([H])[H])nc(N([H])c2c([H])c([H])c([H])c([H])c2S(=O)(=O)C([H])(C([H])([H])[H])C([H])([H])[H])c1Cl


 44 48  0  0  0  0  0  0  0  0999 V2000
  -86.0367   33.0251   -0.3695 N   0  0  0  0  0  0  0  0  0  0  0  0
  -85.5637   33.8587    0.1332 H   0  0  0  0  0  0  0  0  0  0  0  0
  -85.7681   31.7377    0.1660 C   0  0  0  0  0  0  0  0  0  0  0  0
  -84.7721   31.4209    0.9972 N   0  0  0  0  0  0  0  0  0  0  0  0
  -84.5766   30.1825    1.4669 C   0  0  0  0  0  0  0  0  0  0  0  0
  -85.4252   29.1666    1.0940 C   0  0  0  0  0  0  0  0  0  0  0  0
  -85.1838   27.5317    1.7019 Cl  0  0  0  0  0  0  0  0  0  0  0  0
  -86.4855   29.4748    0.2168 C   0  0  0  0  0  0  0  0  0  0  0  0
  -86.5963   30.7390   -0.1960 N   0  0  0  0  0  0  0  0  0  0  0  0
  -87.3378   28.4209   -0.1465 N   0  0  0  0  0  0  0  0  0  0  0  0
  -86.8852   27.6832   -0.7805 H   0  0  0  0  0  0  0  0  0  0  0  0
  -88.6786   28.1555    0.1702 C   0  0  0  0  0  0  0  0  0  0  0  0
  -89.0541   27.9732    1.4844 C   0  0  0  0  0  0  0  0  0  0  0  0
  -90.3884   27.7057    1.8169 C   0  0  0  0  0  0  0  0  0  0  0  0
  -91.3156   27.6273    0.8215 C   0  0  0  0  0  0  0  0  0  0  0  0
  -90.9378   27.8099   -0.4895 C   0  0  0  0  0  0  0  0  0  0  0  0
  -89.6401   28.0728   -0.8430 C   0  0  0  0  0  0  0  0  0  0  0  0
  -89.1859   28.2990   -2.4809 S   0  0  0  0  0  0  0  0  0  0  0  0
  -90.1446   27.5661   -3.3853 O   0  0  0  0  0  0  0  0  0  0  0  0
  -87.7947   27.8389   -2.8159 O   0  0  0  0  0  0  0  0  0  0  0  0
  -89.2620   30.0084   -2.9814 C   0  0  0  0  0  0  0  0  0  0  0  0
  -88.0491   30.3871   -3.7675 C   0  0  0  0  0  0  0  0  0  0  0  0
  -90.5677   30.3910   -3.5943 C   0  0  0  0  0  0  0  0  0  0  0  0
  -88.2314   33.2478   -1.3213 C   0  0  0  0  0  0  0  0  0  0  0  0
  -89.0920   33.5651   -2.3561 C   0  0  0  0  0  0  0  0  0  0  0  0
  -88.6302   34.0117   -3.5742 C   0  0  0  0  0  0  0  0  0  0  0  0
  -87.2672   34.1244   -3.7035 C   0  0  0  0  0  0  0  0  0  0  0  0
  -86.3692   33.8119   -2.6780 C   0  0  0  0  0  0  0  0  0  0  0  0
  -86.8354   33.3673   -1.4664 C   0  0  0  0  0  0  0  0  0  0  0  0
  -89.5331   34.3431   -4.6326 N   0  0  0  0  0  0  0  0  0  0  0  0
  -90.2870   35.5451   -4.5270 C   0  0  0  0  0  0  0  0  0  0  0  0
  -90.9409   36.0257   -5.7920 C   0  0  0  0  0  0  0  0  0  0  0  0
  -91.5817   34.9497   -6.6024 C   0  0  0  0  0  0  0  0  0  0  0  0
  -91.1308   33.5591   -6.2026 C   0  0  0  0  0  0  0  0  0  0  0  0
  -89.6999   33.4947   -5.7882 C   0  0  0  0  0  0  0  0  0  0  0  0
  -91.5223   35.0678   -8.0046 N   0  0  0  0  0  0  0  0  0  0  0  0
  -91.7784   33.9435   -8.8044 C   0  0  0  0  0  0  0  0  0  0  0  0
  -91.2850   34.2047  -10.2303 C   0  0  0  0  0  0  0  0  0  0  0  0
  -91.7079   35.5396  -10.6068 N   0  0  0  0  0  0  0  0  0  0  0  0
  -93.1126   35.6689  -10.8295 C   0  0  0  0  0  0  0  0  0  0  0  0
  -91.1103   36.5661   -9.8153 C   0  0  0  0  0  0  0  0  0  0  0  0
  -90.5325   35.9426   -8.5465 C   0  0  0  0  0  0  0  0  0  0  0  0
  -89.7813   31.8289   -0.1458 C   0  0  0  0  0  0  0  0  0  0  0  0
  -88.7641   32.8039   -0.1209 O   0  0  0  0  0  0  0  0  0  0  0  0
 43 44  1  0  0  0
 44 24  1  0  0  0
 24 25  2  0  0  0
 25 26  1  0  0  0
 26 27  2  0  0  0
 27 28  1  0  0  0
 28 29  2  0  0  0
 29  1  1  0  0  0
  1  3  1  0  0  0
  3  4  2  0  0  0
  4  5  1  0  0  0
  5  6  2  0  0  0
  6  7  1  0  0  0
  6  8  1  0  0  0
  8 10  1  0  0  0
 10 12  1  0  0  0
 12 13  2  0  0  0
 13 14  1  0  0  0
 14 15  2  0  0  0
 15 16  1  0  0  0
 16 17  2  0  0  0
 17 18  1  0  0  0
 18 19  2  0  0  0
 18 20  2  0  0  0
 18 21  1  0  0  0
 21 22  1  0  0  0
 21 23  1  0  0  0
  8  9  2  0  0  0
 26 30  1  0  0  0
 30 31  1  0  0  0
 31 32  1  0  0  0
 32 33  1  0  0  0
 33 34  1  0  0  0
 34 35  1  0  0  0
 33 36  1  0  0  0
 36 37  1  0  0  0
 37 38  1  0  0  0
 38 39  1  0  0  0
 39 40  1  0  0  0
 39 41  1  0  0  0
 41 42  1  0  0  0
 29 24  1  0  0  0
  9  3  1  0  0  0
 35 30  1  0  0  0
 42 36  1  0  0  0
 17 12  1  0  0  0
  1  2  1  0  0  0
 10 11  1  0  0  0
M  END
> <minimizedAffinity>
-7.65674

> <CNNscore>
0.1022564620

> <CNNaffinity>
7.0317468643

> <CNN_VS>
0.7190415263

> <CNNaffinity_variance>
0.3718753755

$$$$
[H]c1nc(N([H])c2c([H])c([H])c(N3C([H])([H])C([H])([H])C([H])(N4C([H])([H])C([H])([H])N(C([H])([H])[H])C([H])([H])C4([H])[H])C([H])([H])C3([H])[H])c([H])c2OC([H])([H])[H])nc(N([H])c2c([H])c([H])c([H])c([H])c2S(=O)(=O)C([H])(C([H])([H])[H])C([H])([H])[H])c1Cl


 44 48  0  0  0  0  0  0  0  0999 V2000
  -89.6789   32.2795   -1.2542 N   0  0  0  0  0  0  0  0  0  0  0  0
  -90.3035   33.0474   -0.8167 H   0  0  0  0  0  0  0  0  0  0  0  0
  -88.2799   32.4245   -1.0585 C   0  0  0  0  0  0  0  0  0  0  0  0
  -87.6088   33.5766   -0.9850 N   0  0  0  0  0  0  0  0  0  0  0  0
  -86.2848   33.6417   -0.7970 C   0  0  0  0  0  0  0  0  0  0  0  0
  -85.5533   32.4841   -0.6699 C   0  0  0  0  0  0  0  0  0  0  0  0
  -83.8112   32.5501   -0.4220 Cl  0  0  0  0  0  0  0  0  0  0  0  0
  -86.2384   31.2537   -0.7439 C   0  0  0  0  0  0  0  0  0  0  0  0
  -87.5588   31.2938   -0.9334 N   0  0  0  0  0  0  0  0  0  0  0  0
  -85.4691   30.0877   -0.6092 N   0  0  0  0  0  0  0  0  0  0  0  0
  -85.2332   29.6028   -1.5367 H   0  0  0  0  0  0  0  0  0  0  0  0
  -84.9505   29.4392    0.5216 C   0  0  0  0  0  0  0  0  0  0  0  0
  -83.7345   29.8277    1.0428 C   0  0  0  0  0  0  0  0  0  0  0  0
  -83.2022   29.1891    2.1702 C   0  0  0  0  0  0  0  0  0  0  0  0
  -83.9035   28.1741    2.7488 C   0  0  0  0  0  0  0  0  0  0  0  0
  -85.1173   27.7886    2.2263 C   0  0  0  0  0  0  0  0  0  0  0  0
  -85.6613   28.3958    1.1248 C   0  0  0  0  0  0  0  0  0  0  0  0
  -87.1752   27.9043    0.4870 S   0  0  0  0  0  0  0  0  0  0  0  0
  -87.0777   27.7573   -1.0107 O   0  0  0  0  0  0  0  0  0  0  0  0
  -88.3148   28.8384    0.7842 O   0  0  0  0  0  0  0  0  0  0  0  0
  -87.6879   26.3091    1.0958 C   0  0  0  0  0  0  0  0  0  0  0  0
  -88.3773   26.4396    2.4150 C   0  0  0  0  0  0  0  0  0  0  0  0
  -88.4040   25.4861    0.0776 C   0  0  0  0  0  0  0  0  0  0  0  0
  -90.6750   31.4972   -3.2957 C   0  0  0  0  0  0  0  0  0  0  0  0
  -91.3526   30.5535   -4.0457 C   0  0  0  0  0  0  0  0  0  0  0  0
  -91.7578   29.3523   -3.5078 C   0  0  0  0  0  0  0  0  0  0  0  0
  -91.4511   29.1441   -2.1850 C   0  0  0  0  0  0  0  0  0  0  0  0
  -90.7679   30.0767   -1.3983 C   0  0  0  0  0  0  0  0  0  0  0  0
  -90.3667   31.2720   -1.9399 C   0  0  0  0  0  0  0  0  0  0  0  0
  -92.4512   28.3829   -4.2983 N   0  0  0  0  0  0  0  0  0  0  0  0
  -92.2078   27.0042   -4.0448 C   0  0  0  0  0  0  0  0  0  0  0  0
  -93.1975   26.0408   -4.6374 C   0  0  0  0  0  0  0  0  0  0  0  0
  -93.6091   26.3609   -6.0350 C   0  0  0  0  0  0  0  0  0  0  0  0
  -93.2556   27.7760   -6.4469 C   0  0  0  0  0  0  0  0  0  0  0  0
  -93.3763   28.7654   -5.3380 C   0  0  0  0  0  0  0  0  0  0  0  0
  -94.9439   26.0956   -6.3977 N   0  0  0  0  0  0  0  0  0  0  0  0
  -95.5691   26.8956   -7.3663 C   0  0  0  0  0  0  0  0  0  0  0  0
  -97.0840   26.6789   -7.3112 C   0  0  0  0  0  0  0  0  0  0  0  0
  -97.3230   25.2525   -7.2084 N   0  0  0  0  0  0  0  0  0  0  0  0
  -97.0365   24.5222   -8.4017 C   0  0  0  0  0  0  0  0  0  0  0  0
  -96.8241   24.6815   -5.9991 C   0  0  0  0  0  0  0  0  0  0  0  0
  -95.8258   25.6494   -5.3673 C   0  0  0  0  0  0  0  0  0  0  0  0
  -89.1757   32.6888   -4.7551 C   0  0  0  0  0  0  0  0  0  0  0  0
  -90.2964   32.6857   -3.9006 O   0  0  0  0  0  0  0  0  0  0  0  0
 43 44  1  0  0  0
 44 24  1  0  0  0
 24 25  2  0  0  0
 25 26  1  0  0  0
 26 27  2  0  0  0
 27 28  1  0  0  0
 28 29  2  0  0  0
 29  1  1  0  0  0
  1  3  1  0  0  0
  3  4  2  0  0  0
  4  5  1  0  0  0
  5  6  2  0  0  0
  6  7  1  0  0  0
  6  8  1  0  0  0
  8 10  1  0  0  0
 10 12  1  0  0  0
 12 13  2  0  0  0
 13 14  1  0  0  0
 14 15  2  0  0  0
 15 16  1  0  0  0
 16 17  2  0  0  0
 17 18  1  0  0  0
 18 19  2  0  0  0
 18 20  2  0  0  0
 18 21  1  0  0  0
 21 22  1  0  0  0
 21 23  1  0  0  0
  8  9  2  0  0  0
 26 30  1  0  0  0
 30 31  1  0  0  0
 31 32  1  0  0  0
 32 33  1  0  0  0
 33 34  1  0  0  0
 34 35  1  0  0  0
 33 36  1  0  0  0
 36 37  1  0  0  0
 37 38  1  0  0  0
 38 39  1  0  0  0
 39 40  1  0  0  0
 39 41  1  0  0  0
 41 42  1  0  0  0
 29 24  1  0  0  0
  9  3  1  0  0  0
 35 30  1  0  0  0
 42 36  1  0  0  0
 17 12  1  0  0  0
  1  2  1  0  0  0
 10 11  1  0  0  0
M  END
> <minimizedAffinity>
-8.39189

> <CNNscore>
0.0779432282

> <CNNaffinity>
6.4263238907

> <CNN_VS>
0.5008884072

> <CNNaffinity_variance>
0.6937670708

$$$$
[H]c1nc(N([H])c2c([H])c([H])c(N3C([H])([H])C([H])([H])C([H])(N4C([H])([H])C([H])([H])N(C([H])([H])[H])C([H])([H])C4([H])[H])C([H])([H])C3([H])[H])c([H])c2OC([H])([H])[H])nc(N([H])c2c([H])c([H])c([H])c([H])c2S(=O)(=O)C([H])(C([H])([H])[H])C([H])([H])[H])c1Cl


 44 48  0  0  0  0  0  0  0  0999 V2000
  -91.0056   31.0852   -2.5152 N   0  0  0  0  0  0  0  0  0  0  0  0
  -91.7377   31.7645   -2.9321 H   0  0  0  0  0  0  0  0  0  0  0  0
  -89.7378   31.6449   -2.2056 C   0  0  0  0  0  0  0  0  0  0  0  0
  -89.3578   32.9064   -2.4236 N   0  0  0  0  0  0  0  0  0  0  0  0
  -88.1430   33.3702   -2.1048 C   0  0  0  0  0  0  0  0  0  0  0  0
  -87.2205   32.5321   -1.5238 C   0  0  0  0  0  0  0  0  0  0  0  0
  -85.6180   33.1246   -1.0975 Cl  0  0  0  0  0  0  0  0  0  0  0  0
  -87.5969   31.1946   -1.2828 C   0  0  0  0  0  0  0  0  0  0  0  0
  -88.8305   30.8282   -1.6364 N   0  0  0  0  0  0  0  0  0  0  0  0
  -86.6380   30.3608   -0.6874 N   0  0  0  0  0  0  0  0  0  0  0  0
  -85.6508   30.7790   -0.6472 H   0  0  0  0  0  0  0  0  0  0  0  0
  -86.7362   29.0757   -0.1329 C   0  0  0  0  0  0  0  0  0  0  0  0
  -87.4837   28.1060   -0.7670 C   0  0  0  0  0  0  0  0  0  0  0  0
  -87.5931   26.8188   -0.2253 C   0  0  0  0  0  0  0  0  0  0  0  0
  -86.9491   26.5347    0.9415 C   0  0  0  0  0  0  0  0  0  0  0  0
  -86.2034   27.5049    1.5720 C   0  0  0  0  0  0  0  0  0  0  0  0
  -86.0792   28.7717    1.0646 C   0  0  0  0  0  0  0  0  0  0  0  0
  -85.1455   29.9687    1.8618 S   0  0  0  0  0  0  0  0  0  0  0  0
  -85.0424   29.6449    3.3311 O   0  0  0  0  0  0  0  0  0  0  0  0
  -85.6790   31.3683    1.7356 O   0  0  0  0  0  0  0  0  0  0  0  0
  -83.4673   30.0367    1.2641 C   0  0  0  0  0  0  0  0  0  0  0  0
  -82.9893   31.4499    1.1801 C   0  0  0  0  0  0  0  0  0  0  0  0
  -82.5487   29.0902    1.9620 C   0  0  0  0  0  0  0  0  0  0  0  0
  -91.7441   29.0299   -3.5165 C   0  0  0  0  0  0  0  0  0  0  0  0
  -92.1821   27.7201   -3.4456 C   0  0  0  0  0  0  0  0  0  0  0  0
  -92.3444   27.0725   -2.2412 C   0  0  0  0  0  0  0  0  0  0  0  0
  -92.0468   27.8000   -1.1146 C   0  0  0  0  0  0  0  0  0  0  0  0
  -91.6022   29.1254   -1.1506 C   0  0  0  0  0  0  0  0  0  0  0  0
  -91.4425   29.7656   -2.3538 C   0  0  0  0  0  0  0  0  0  0  0  0
  -92.7911   25.7150   -2.1844 N   0  0  0  0  0  0  0  0  0  0  0  0
  -92.1222   24.7487   -2.9862 C   0  0  0  0  0  0  0  0  0  0  0  0
  -92.3815   23.3100   -2.6374 C   0  0  0  0  0  0  0  0  0  0  0  0
  -93.8076   22.9966   -2.3323 C   0  0  0  0  0  0  0  0  0  0  0  0
  -94.6409   24.2334   -2.0620 C   0  0  0  0  0  0  0  0  0  0  0  0
  -93.8945   25.3083   -1.3475 C   0  0  0  0  0  0  0  0  0  0  0  0
  -94.0643   22.0404   -1.3306 N   0  0  0  0  0  0  0  0  0  0  0  0
  -95.3783   21.8513   -0.8759 C   0  0  0  0  0  0  0  0  0  0  0  0
  -95.3582   21.0741    0.4433 C   0  0  0  0  0  0  0  0  0  0  0  0
  -94.4209   19.9776    0.2961 N   0  0  0  0  0  0  0  0  0  0  0  0
  -94.8693   18.9349   -0.5705 C   0  0  0  0  0  0  0  0  0  0  0  0
  -93.0741   20.4079    0.1004 C   0  0  0  0  0  0  0  0  0  0  0  0
  -93.0769   21.8784   -0.3120 C   0  0  0  0  0  0  0  0  0  0  0  0
  -92.7548   29.8596   -5.5383 C   0  0  0  0  0  0  0  0  0  0  0  0
  -91.6028   29.6211   -4.7624 O   0  0  0  0  0  0  0  0  0  0  0  0
 43 44  1  0  0  0
 44 24  1  0  0  0
 24 25  2  0  0  0
 25 26  1  0  0  0
 26 27  2  0  0  0
 27 28  1  0  0  0
 28 29  2  0  0  0
 29  1  1  0  0  0
  1  3  1  0  0  0
  3  4  2  0  0  0
  4  5  1  0  0  0
  5  6  2  0  0  0
  6  7  1  0  0  0
  6  8  1  0  0  0
  8 10  1  0  0  0
 10 12  1  0  0  0
 12 13  2  0  0  0
 13 14  1  0  0  0
 14 15  2  0  0  0
 15 16  1  0  0  0
 16 17  2  0  0  0
 17 18  1  0  0  0
 18 19  2  0  0  0
 18 20  2  0  0  0
 18 21  1  0  0  0
 21 22  1  0  0  0
 21 23  1  0  0  0
  8  9  2  0  0  0
 26 30  1  0  0  0
 30 31  1  0  0  0
 31 32  1  0  0  0
 32 33  1  0  0  0
 33 34  1  0  0  0
 34 35  1  0  0  0
 33 36  1  0  0  0
 36 37  1  0  0  0
 37 38  1  0  0  0
 38 39  1  0  0  0
 39 40  1  0  0  0
 39 41  1  0  0  0
 41 42  1  0  0  0
 29 24  1  0  0  0
  9  3  1  0  0  0
 35 30  1  0  0  0
 42 36  1  0  0  0
 17 12  1  0  0  0
  1  2  1  0  0  0
 10 11  1  0  0  0
M  END
> <minimizedAffinity>
-8.20297

> <CNNscore>
0.0720951483

> <CNNaffinity>
6.4594254494

> <CNN_VS>
0.4656932354

> <CNNaffinity_variance>
0.9118416905

$$$$
[H]c1c([H])c([H])c2c(c1[H])c(C(=O)OC1([H])C([H])([H])C3([H])N(C([H])([H])[H])C([H])(C([H])([H])C3([H])[H])C1([H])[H])c([H])n2[H]


 22 25  0  0  0  0  0  0  0  0999 V2000
  -84.9971   29.3839    2.2880 C   0  0  0  0  0  0  0  0  0  0  0  0
  -85.2906   29.6248    3.4815 O   0  0  0  0  0  0  0  0  0  0  0  0
  -84.2409   30.3392    1.5060 C   0  0  0  0  0  0  0  0  0  0  0  0
  -82.8472   30.4245    1.4774 C   0  0  0  0  0  0  0  0  0  0  0  0
  -82.4689   31.4095    0.6587 N   0  0  0  0  0  0  0  0  0  0  0  0
  -83.5570   31.9938    0.1322 C   0  0  0  0  0  0  0  0  0  0  0  0
  -83.7610   33.0302   -0.7480 C   0  0  0  0  0  0  0  0  0  0  0  0
  -85.0252   33.3995   -1.0987 C   0  0  0  0  0  0  0  0  0  0  0  0
  -86.1275   32.7547   -0.5894 C   0  0  0  0  0  0  0  0  0  0  0  0
  -85.9298   31.7161    0.2925 C   0  0  0  0  0  0  0  0  0  0  0  0
  -84.6741   31.3312    0.6561 C   0  0  0  0  0  0  0  0  0  0  0  0
  -81.5001   31.7330    0.4161 H   0  0  0  0  0  0  0  0  0  0  0  0
  -85.4243   28.1779    1.7595 O   0  0  0  0  0  0  0  0  0  0  0  0
  -89.2576   25.7359   -1.3548 C   0  0  0  0  0  0  0  0  0  0  0  0
  -88.1172   26.2717   -0.6468 N   0  0  0  0  0  0  0  0  0  0  0  0
  -88.1276   27.7340   -0.7286 C   0  0  0  0  0  0  0  0  0  0  0  0
  -89.2987   28.0940    0.1256 C   0  0  0  0  0  0  0  0  0  0  0  0
  -89.4769   26.9962    1.1472 C   0  0  0  0  0  0  0  0  0  0  0  0
  -88.3190   26.0621    0.7724 C   0  0  0  0  0  0  0  0  0  0  0  0
  -87.1341   26.5060    1.5895 C   0  0  0  0  0  0  0  0  0  0  0  0
  -86.7597   27.9462    1.3496 C   0  0  0  0  0  0  0  0  0  0  0  0
  -86.8116   28.1998   -0.1465 C   0  0  0  0  0  0  0  0  0  0  0  0
 14 15  1  0  0  0
 15 16  1  0  0  0
 16 17  1  0  0  0
 17 18  1  0  0  0
 18 19  1  0  0  0
 19 20  1  0  0  0
 20 21  1  0  0  0
 21 22  1  0  0  0
 21 13  1  0  0  0
 13  1  1  0  0  0
  1  2  2  0  0  0
  1  3  1  0  0  0
  3  4  2  0  0  0
  4  5  1  0  0  0
  5  6  1  0  0  0
  6  7  2  0  0  0
  7  8  1  0  0  0
  8  9  2  0  0  0
  9 10  1  0  0  0
 10 11  2  0  0  0
 19 15  1  0  0  0
 11  3  1  0  0  0
 22 16  1  0  0  0
 11  6  1  0  0  0
  5 12  1  0  0  0
M  END
> <minimizedAffinity>
-8.01730

> <CNNscore>
0.9035594463

> <CNNaffinity>
6.3972558975

> <CNN_VS>
5.7803010941

> <CNNaffinity_variance>
0.1371178180

$$$$
[H]c1c([H])c([H])c2c(c1[H])c(C(=O)OC1([H])C([H])([H])C3([H])N(C([H])([H])[H])C([H])(C([H])([H])C3([H])[H])C1([H])[H])c([H])n2[H]


 22 25  0  0  0  0  0  0  0  0999 V2000
  -85.4038   29.3512    2.3592 C   0  0  0  0  0  0  0  0  0  0  0  0
  -85.6192   29.5694    3.5735 O   0  0  0  0  0  0  0  0  0  0  0  0
  -84.3929   30.0995    1.6422 C   0  0  0  0  0  0  0  0  0  0  0  0
  -83.0262   29.8125    1.6547 C   0  0  0  0  0  0  0  0  0  0  0  0
  -82.3703   30.6912    0.8923 N   0  0  0  0  0  0  0  0  0  0  0  0
  -83.2445   31.5627    0.3642 C   0  0  0  0  0  0  0  0  0  0  0  0
  -83.1338   32.6479   -0.4728 C   0  0  0  0  0  0  0  0  0  0  0  0
  -84.2413   33.3525   -0.8398 C   0  0  0  0  0  0  0  0  0  0  0  0
  -85.4932   33.0053   -0.3901 C   0  0  0  0  0  0  0  0  0  0  0  0
  -85.6107   31.9196    0.4482 C   0  0  0  0  0  0  0  0  0  0  0  0
  -84.5161   31.2017    0.8272 C   0  0  0  0  0  0  0  0  0  0  0  0
  -81.3420   30.7544    0.6907 H   0  0  0  0  0  0  0  0  0  0  0  0
  -86.1677   28.3744    1.7439 O   0  0  0  0  0  0  0  0  0  0  0  0
  -90.1721   27.6933   -1.9786 C   0  0  0  0  0  0  0  0  0  0  0  0
  -89.2383   27.7627   -0.8776 N   0  0  0  0  0  0  0  0  0  0  0  0
  -87.9396   27.2316   -1.2975 C   0  0  0  0  0  0  0  0  0  0  0  0
  -87.4627   28.2730   -2.2562 C   0  0  0  0  0  0  0  0  0  0  0  0
  -88.0977   29.5853   -1.8621 C   0  0  0  0  0  0  0  0  0  0  0  0
  -88.9154   29.1544   -0.6376 C   0  0  0  0  0  0  0  0  0  0  0  0
  -88.0167   29.3342    0.5576 C   0  0  0  0  0  0  0  0  0  0  0  0
  -86.7400   28.5392    0.4592 C   0  0  0  0  0  0  0  0  0  0  0  0
  -87.0910   27.1518   -0.0480 C   0  0  0  0  0  0  0  0  0  0  0  0
 14 15  1  0  0  0
 15 16  1  0  0  0
 16 17  1  0  0  0
 17 18  1  0  0  0
 18 19  1  0  0  0
 19 20  1  0  0  0
 20 21  1  0  0  0
 21 22  1  0  0  0
 21 13  1  0  0  0
 13  1  1  0  0  0
  1  2  2  0  0  0
  1  3  1  0  0  0
  3  4  2  0  0  0
  4  5  1  0  0  0
  5  6  1  0  0  0
  6  7  2  0  0  0
  7  8  1  0  0  0
  8  9  2  0  0  0
  9 10  1  0  0  0
 10 11  2  0  0  0
 19 15  1  0  0  0
 11  3  1  0  0  0
 22 16  1  0  0  0
 11  6  1  0  0  0
  5 12  1  0  0  0
M  END
> <minimizedAffinity>
-7.66080

> <CNNscore>
0.6746026874

> <CNNaffinity>
6.0137605667

> <CNN_VS>
4.0568990707

> <CNNaffinity_variance>
0.0523537584

$$$$
[H]c1c([H])c([H])c2c(c1[H])c(C(=O)OC1([H])C([H])([H])C3([H])N(C([H])([H])[H])C([H])(C([H])([H])C3([H])[H])C1([H])[H])c([H])n2[H]


 22 25  0  0  0  0  0  0  0  0999 V2000
  -85.9771   28.9267    1.6634 C   0  0  0  0  0  0  0  0  0  0  0  0
  -85.4802   28.8640    2.8114 O   0  0  0  0  0  0  0  0  0  0  0  0
  -85.8505   30.1300    0.8685 C   0  0  0  0  0  0  0  0  0  0  0  0
  -86.8975   30.7488    0.1819 C   0  0  0  0  0  0  0  0  0  0  0  0
  -86.4467   31.8346   -0.4514 N   0  0  0  0  0  0  0  0  0  0  0  0
  -85.1318   31.9729   -0.2180 C   0  0  0  0  0  0  0  0  0  0  0  0
  -84.1770   32.8834   -0.6049 C   0  0  0  0  0  0  0  0  0  0  0  0
  -82.8858   32.7484   -0.1898 C   0  0  0  0  0  0  0  0  0  0  0  0
  -82.4989   31.7081    0.6215 C   0  0  0  0  0  0  0  0  0  0  0  0
  -83.4504   30.7931    1.0125 C   0  0  0  0  0  0  0  0  0  0  0  0
  -84.7467   30.9098    0.6086 C   0  0  0  0  0  0  0  0  0  0  0  0
  -86.9726   32.5168   -1.0515 H   0  0  0  0  0  0  0  0  0  0  0  0
  -86.6437   27.8065    1.1976 O   0  0  0  0  0  0  0  0  0  0  0  0
  -91.2150   24.7382    0.9861 C   0  0  0  0  0  0  0  0  0  0  0  0
  -89.9284   25.3945    0.9351 N   0  0  0  0  0  0  0  0  0  0  0  0
  -90.0746   26.7216    0.3330 C   0  0  0  0  0  0  0  0  0  0  0  0
  -90.8316   27.4676    1.3825 C   0  0  0  0  0  0  0  0  0  0  0  0
  -90.5099   26.8370    2.7165 C   0  0  0  0  0  0  0  0  0  0  0  0
  -89.5334   25.7344    2.2868 C   0  0  0  0  0  0  0  0  0  0  0  0
  -88.1562   26.3415    2.3438 C   0  0  0  0  0  0  0  0  0  0  0  0
  -88.0117   27.5574    1.4648 C   0  0  0  0  0  0  0  0  0  0  0  0
  -88.6725   27.2522    0.1323 C   0  0  0  0  0  0  0  0  0  0  0  0
 14 15  1  0  0  0
 15 16  1  0  0  0
 16 17  1  0  0  0
 17 18  1  0  0  0
 18 19  1  0  0  0
 19 20  1  0  0  0
 20 21  1  0  0  0
 21 22  1  0  0  0
 21 13  1  0  0  0
 13  1  1  0  0  0
  1  2  2  0  0  0
  1  3  1  0  0  0
  3  4  2  0  0  0
  4  5  1  0  0  0
  5  6  1  0  0  0
  6  7  2  0  0  0
  7  8  1  0  0  0
  8  9  2  0  0  0
  9 10  1  0  0  0
 10 11  2  0  0  0
 19 15  1  0  0  0
 11  3  1  0  0  0
 22 16  1  0  0  0
 11  6  1  0  0  0
  5 12  1  0  0  0
M  END
> <minimizedAffinity>
-7.63681

> <CNNscore>
0.6188353896

> <CNNaffinity>
5.8937125206

> <CNN_VS>
3.6472377777

> <CNNaffinity_variance>
0.1246496662

$$$$
[H]c1c([H])c([H])c2c(c1[H])c(C(=O)OC1([H])C([H])([H])C3([H])N(C([H])([H])[H])C([H])(C([H])([H])C3([H])[H])C1([H])[H])c([H])n2[H]


 22 25  0  0  0  0  0  0  0  0999 V2000
  -85.0683   31.0702    1.0269 C   0  0  0  0  0  0  0  0  0  0  0  0
  -84.8756   31.4286    2.2114 O   0  0  0  0  0  0  0  0  0  0  0  0
  -85.1616   32.0494   -0.0353 C   0  0  0  0  0  0  0  0  0  0  0  0
  -84.0779   32.7346   -0.5889 C   0  0  0  0  0  0  0  0  0  0  0  0
  -84.5047   33.5633   -1.5453 N   0  0  0  0  0  0  0  0  0  0  0  0
  -85.8388   33.4634   -1.6586 C   0  0  0  0  0  0  0  0  0  0  0  0
  -86.7837   34.0641   -2.4566 C   0  0  0  0  0  0  0  0  0  0  0  0
  -88.1016   33.7411   -2.3287 C   0  0  0  0  0  0  0  0  0  0  0  0
  -88.5261   32.8134   -1.4071 C   0  0  0  0  0  0  0  0  0  0  0  0
  -87.5847   32.2084   -0.6051 C   0  0  0  0  0  0  0  0  0  0  0  0
  -86.2620   32.5171   -0.7169 C   0  0  0  0  0  0  0  0  0  0  0  0
  -83.9494   34.2161   -2.1514 H   0  0  0  0  0  0  0  0  0  0  0  0
  -85.1863   29.7122    0.7852 O   0  0  0  0  0  0  0  0  0  0  0  0
  -88.5356   25.3702    0.2516 C   0  0  0  0  0  0  0  0  0  0  0  0
  -87.5419   26.4197    0.2508 N   0  0  0  0  0  0  0  0  0  0  0  0
  -88.1796   27.7032   -0.0512 C   0  0  0  0  0  0  0  0  0  0  0  0
  -88.9875   27.9565    1.1793 C   0  0  0  0  0  0  0  0  0  0  0  0
  -88.3086   27.2497    2.3282 C   0  0  0  0  0  0  0  0  0  0  0  0
  -87.0993   26.6326    1.6137 C   0  0  0  0  0  0  0  0  0  0  0  0
  -85.9905   27.6483    1.7020 C   0  0  0  0  0  0  0  0  0  0  0  0
  -86.3567   28.9747    1.0870 C   0  0  0  0  0  0  0  0  0  0  0  0
  -87.0574   28.7011   -0.2319 C   0  0  0  0  0  0  0  0  0  0  0  0
 14 15  1  0  0  0
 15 16  1  0  0  0
 16 17  1  0  0  0
 17 18  1  0  0  0
 18 19  1  0  0  0
 19 20  1  0  0  0
 20 21  1  0  0  0
 21 22  1  0  0  0
 21 13  1  0  0  0
 13  1  1  0  0  0
  1  2  2  0  0  0
  1  3  1  0  0  0
  3  4  2  0  0  0
  4  5  1  0  0  0
  5  6  1  0  0  0
  6  7  2  0  0  0
  7  8  1  0  0  0
  8  9  2  0  0  0
  9 10  1  0  0  0
 10 11  2  0  0  0
 19 15  1  0  0  0
 11  3  1  0  0  0
 22 16  1  0  0  0
 11  6  1  0  0  0
  5 12  1  0  0  0
M  END
> <minimizedAffinity>
-7.71372

> <CNNscore>
0.5217852592

> <CNNaffinity>
5.6610312462

> <CNN_VS>
2.9538426399

> <CNNaffinity_variance>
0.2197630405

$$$$
[H]c1c([H])c([H])c2c(c1[H])c(C(=O)OC1([H])C([H])([H])C3([H])N(C([H])([H])[H])C([H])(C([H])([H])C3([H])[H])C1([H])[H])c([H])n2[H]


 22 25  0  0  0  0  0  0  0  0999 V2000
  -87.6490   31.8926   -0.8103 C   0  0  0  0  0  0  0  0  0  0  0  0
  -88.5679   32.6745   -0.4744 O   0  0  0  0  0  0  0  0  0  0  0  0
  -86.2691   32.3305   -0.8091 C   0  0  0  0  0  0  0  0  0  0  0  0
  -85.7567   33.3620   -1.5989 C   0  0  0  0  0  0  0  0  0  0  0  0
  -84.4518   33.5132   -1.3585 N   0  0  0  0  0  0  0  0  0  0  0  0
  -84.0627   32.6206   -0.4340 C   0  0  0  0  0  0  0  0  0  0  0  0
  -82.8663   32.3291    0.1776 C   0  0  0  0  0  0  0  0  0  0  0  0
  -82.7897   31.3335    1.1052 C   0  0  0  0  0  0  0  0  0  0  0  0
  -83.8947   30.5951    1.4570 C   0  0  0  0  0  0  0  0  0  0  0  0
  -85.0957   30.8821    0.8481 C   0  0  0  0  0  0  0  0  0  0  0  0
  -85.1938   31.8735   -0.0819 C   0  0  0  0  0  0  0  0  0  0  0  0
  -83.7753   34.1948   -1.7826 H   0  0  0  0  0  0  0  0  0  0  0  0
  -88.0106   30.6079   -1.1778 O   0  0  0  0  0  0  0  0  0  0  0  0
  -89.0995   25.4445    0.4062 C   0  0  0  0  0  0  0  0  0  0  0  0
  -88.9491   26.7670   -0.1568 N   0  0  0  0  0  0  0  0  0  0  0  0
  -89.2276   27.7749    0.8688 C   0  0  0  0  0  0  0  0  0  0  0  0
  -88.0599   27.6268    1.7884 C   0  0  0  0  0  0  0  0  0  0  0  0
  -86.9007   27.0983    0.9775 C   0  0  0  0  0  0  0  0  0  0  0  0
  -87.5421   26.9988   -0.4126 C   0  0  0  0  0  0  0  0  0  0  0  0
  -87.2951   28.3214   -1.0896 C   0  0  0  0  0  0  0  0  0  0  0  0
  -87.8583   29.4901   -0.3221 C   0  0  0  0  0  0  0  0  0  0  0  0
  -89.2479   29.1090    0.1566 C   0  0  0  0  0  0  0  0  0  0  0  0
 14 15  1  0  0  0
 15 16  1  0  0  0
 16 17  1  0  0  0
 17 18  1  0  0  0
 18 19  1  0  0  0
 19 20  1  0  0  0
 20 21  1  0  0  0
 21 22  1  0  0  0
 21 13  1  0  0  0
 13  1  1  0  0  0
  1  2  2  0  0  0
  1  3  1  0  0  0
  3  4  2  0  0  0
  4  5  1  0  0  0
  5  6  1  0  0  0
  6  7  2  0  0  0
  7  8  1  0  0  0
  8  9  2  0  0  0
  9 10  1  0  0  0
 10 11  2  0  0  0
 19 15  1  0  0  0
 11  3  1  0  0  0
 22 16  1  0  0  0
 11  6  1  0  0  0
  5 12  1  0  0  0
M  END
> <minimizedAffinity>
-8.05196

> <CNNscore>
0.5188524723

> <CNNaffinity>
5.8210830688

> <CNN_VS>
3.0202834606

> <CNNaffinity_variance>
0.1605473161

$$$$
[H]c1c([H])c([H])c2c(c1[H])c(C(=O)OC1([H])C([H])([H])C3([H])N(C([H])([H])[H])C([H])(C([H])([H])C3([H])[H])C1([H])[H])c([H])n2[H]


 22 25  0  0  0  0  0  0  0  0999 V2000
  -85.7167   32.6359   -0.1802 C   0  0  0  0  0  0  0  0  0  0  0  0
  -85.7150   33.8869   -0.2403 O   0  0  0  0  0  0  0  0  0  0  0  0
  -84.5385   31.9157    0.2545 C   0  0  0  0  0  0  0  0  0  0  0  0
  -83.2240   32.2715   -0.0553 C   0  0  0  0  0  0  0  0  0  0  0  0
  -82.3752   31.4017    0.4984 N   0  0  0  0  0  0  0  0  0  0  0  0
  -83.0685   30.4698    1.1719 C   0  0  0  0  0  0  0  0  0  0  0  0
  -82.7243   29.3639    1.9128 C   0  0  0  0  0  0  0  0  0  0  0  0
  -83.6882   28.5923    2.4900 C   0  0  0  0  0  0  0  0  0  0  0  0
  -85.0232   28.8909    2.3523 C   0  0  0  0  0  0  0  0  0  0  0  0
  -85.3742   29.9971    1.6116 C   0  0  0  0  0  0  0  0  0  0  0  0
  -84.4261   30.7817    1.0262 C   0  0  0  0  0  0  0  0  0  0  0  0
  -81.3264   31.3836    0.4582 H   0  0  0  0  0  0  0  0  0  0  0  0
  -86.8823   31.9838   -0.5442 O   0  0  0  0  0  0  0  0  0  0  0  0
  -90.7206   30.9977   -4.3719 C   0  0  0  0  0  0  0  0  0  0  0  0
  -89.8514   31.1922   -3.2337 N   0  0  0  0  0  0  0  0  0  0  0  0
  -88.6163   30.4271   -3.4192 C   0  0  0  0  0  0  0  0  0  0  0  0
  -87.9456   31.1664   -4.5303 C   0  0  0  0  0  0  0  0  0  0  0  0
  -88.4150   32.6008   -4.4767 C   0  0  0  0  0  0  0  0  0  0  0  0
  -89.3538   32.5524   -3.2642 C   0  0  0  0  0  0  0  0  0  0  0  0
  -88.5094   32.8788   -2.0605 C   0  0  0  0  0  0  0  0  0  0  0  0
  -87.3512   31.9315   -1.8792 C   0  0  0  0  0  0  0  0  0  0  0  0
  -87.8605   30.5202   -2.1124 C   0  0  0  0  0  0  0  0  0  0  0  0
 14 15  1  0  0  0
 15 16  1  0  0  0
 16 17  1  0  0  0
 17 18  1  0  0  0
 18 19  1  0  0  0
 19 20  1  0  0  0
 20 21  1  0  0  0
 21 22  1  0  0  0
 21 13  1  0  0  0
 13  1  1  0  0  0
  1  2  2  0  0  0
  1  3  1  0  0  0
  3  4  2  0  0  0
  4  5  1  0  0  0
  5  6  1  0  0  0
  6  7  2  0  0  0
  7  8  1  0  0  0
  8  9  2  0  0  0
  9 10  1  0  0  0
 10 11  2  0  0  0
 19 15  1  0  0  0
 11  3  1  0  0  0
 22 16  1  0  0  0
 11  6  1  0  0  0
  5 12  1  0  0  0
M  END
> <minimizedAffinity>
-8.68586

> <CNNscore>
0.4828182161

> <CNNaffinity>
5.4637389183

> <CNN_VS>
2.6379926205

> <CNNaffinity_variance>
0.2554314435

$$$$
[H]c1c([H])c([H])c2c(c1[H])c(C(=O)OC1([H])C([H])([H])C3([H])N(C([H])([H])[H])C([H])(C([H])([H])C3([H])[H])C1([H])[H])c([H])n2[H]


 22 25  0  0  0  0  0  0  0  0999 V2000
  -87.0107   32.1894   -1.0456 C   0  0  0  0  0  0  0  0  0  0  0  0
  -87.8578   33.0093   -0.6228 O   0  0  0  0  0  0  0  0  0  0  0  0
  -85.6276   32.2739   -0.6263 C   0  0  0  0  0  0  0  0  0  0  0  0
  -84.7553   33.3148   -0.9519 C   0  0  0  0  0  0  0  0  0  0  0  0
  -83.5559   33.0891   -0.4097 N   0  0  0  0  0  0  0  0  0  0  0  0
  -83.5853   31.9323    0.2712 C   0  0  0  0  0  0  0  0  0  0  0  0
  -82.6631   31.2257    1.0065 C   0  0  0  0  0  0  0  0  0  0  0  0
  -83.0072   30.0453    1.5946 C   0  0  0  0  0  0  0  0  0  0  0  0
  -84.2749   29.5270    1.4737 C   0  0  0  0  0  0  0  0  0  0  0  0
  -85.2029   30.2300    0.7387 C   0  0  0  0  0  0  0  0  0  0  0  0
  -84.8792   31.4120    0.1427 C   0  0  0  0  0  0  0  0  0  0  0  0
  -82.6852   33.6731   -0.4629 H   0  0  0  0  0  0  0  0  0  0  0  0
  -87.4536   31.2124   -1.9206 O   0  0  0  0  0  0  0  0  0  0  0  0
  -90.2909   26.5813   -2.8468 C   0  0  0  0  0  0  0  0  0  0  0  0
  -89.5133   27.7988   -2.8037 N   0  0  0  0  0  0  0  0  0  0  0  0
  -90.3047   28.8687   -2.1918 C   0  0  0  0  0  0  0  0  0  0  0  0
  -90.3883   28.4298   -0.7666 C   0  0  0  0  0  0  0  0  0  0  0  0
  -89.1707   27.5859   -0.4736 C   0  0  0  0  0  0  0  0  0  0  0  0
  -88.4543   27.6319   -1.8295 C   0  0  0  0  0  0  0  0  0  0  0  0
  -87.5302   28.8203   -1.7811 C   0  0  0  0  0  0  0  0  0  0  0  0
  -88.2513   30.1163   -1.5120 C   0  0  0  0  0  0  0  0  0  0  0  0
  -89.5050   30.1403   -2.3681 C   0  0  0  0  0  0  0  0  0  0  0  0
 14 15  1  0  0  0
 15 16  1  0  0  0
 16 17  1  0  0  0
 17 18  1  0  0  0
 18 19  1  0  0  0
 19 20  1  0  0  0
 20 21  1  0  0  0
 21 22  1  0  0  0
 21 13  1  0  0  0
 13  1  1  0  0  0
  1  2  2  0  0  0
  1  3  1  0  0  0
  3  4  2  0  0  0
  4  5  1  0  0  0
  5  6  1  0  0  0
  6  7  2  0  0  0
  7  8  1  0  0  0
  8  9  2  0  0  0
  9 10  1  0  0  0
 10 11  2  0  0  0
 19 15  1  0  0  0
 11  3  1  0  0  0
 22 16  1  0  0  0
 11  6  1  0  0  0
  5 12  1  0  0  0
M  END
> <minimizedAffinity>
-7.92573

> <CNNscore>
0.4785774648

> <CNNaffinity>
5.7337441444

> <CNN_VS>
2.7440407276

> <CNNaffinity_variance>
0.1407621652

$$$$
[H]c1c([H])c([H])c2c(c1[H])c(C(=O)OC1([H])C([H])([H])C3([H])N(C([H])([H])[H])C([H])(C([H])([H])C3([H])[H])C1([H])[H])c([H])n2[H]


 22 25  0  0  0  0  0  0  0  0999 V2000
  -87.2483   32.0012   -0.7854 C   0  0  0  0  0  0  0  0  0  0  0  0
  -87.8410   32.6507   -1.6773 O   0  0  0  0  0  0  0  0  0  0  0  0
  -85.8427   32.2243   -0.5197 C   0  0  0  0  0  0  0  0  0  0  0  0
  -85.1095   33.3259   -0.9660 C   0  0  0  0  0  0  0  0  0  0  0  0
  -83.8443   33.2285   -0.5498 N   0  0  0  0  0  0  0  0  0  0  0  0
  -83.6951   32.1001    0.1623 C   0  0  0  0  0  0  0  0  0  0  0  0
  -82.6396   31.5066    0.8137 C   0  0  0  0  0  0  0  0  0  0  0  0
  -82.8096   30.3231    1.4680 C   0  0  0  0  0  0  0  0  0  0  0  0
  -84.0295   29.6898    1.4985 C   0  0  0  0  0  0  0  0  0  0  0  0
  -85.0903   30.2791    0.8482 C   0  0  0  0  0  0  0  0  0  0  0  0
  -84.9416   31.4620    0.1881 C   0  0  0  0  0  0  0  0  0  0  0  0
  -83.0417   33.8854   -0.7125 H   0  0  0  0  0  0  0  0  0  0  0  0
  -87.9906   31.0728   -0.0759 O   0  0  0  0  0  0  0  0  0  0  0  0
  -89.0123   25.7781   -1.2062 C   0  0  0  0  0  0  0  0  0  0  0  0
  -88.5858   27.0989   -0.8033 N   0  0  0  0  0  0  0  0  0  0  0  0
  -88.3543   27.9262   -1.9896 C   0  0  0  0  0  0  0  0  0  0  0  0
  -89.7379   28.1261   -2.5154 C   0  0  0  0  0  0  0  0  0  0  0  0
  -90.6916   28.0266   -1.3486 C   0  0  0  0  0  0  0  0  0  0  0  0
  -89.7114   27.7782   -0.1948 C   0  0  0  0  0  0  0  0  0  0  0  0
  -89.3371   29.1341    0.3435 C   0  0  0  0  0  0  0  0  0  0  0  0
  -88.7211   30.0320   -0.6987 C   0  0  0  0  0  0  0  0  0  0  0  0
  -87.7238   29.2089   -1.4945 C   0  0  0  0  0  0  0  0  0  0  0  0
 14 15  1  0  0  0
 15 16  1  0  0  0
 16 17  1  0  0  0
 17 18  1  0  0  0
 18 19  1  0  0  0
 19 20  1  0  0  0
 20 21  1  0  0  0
 21 22  1  0  0  0
 21 13  1  0  0  0
 13  1  1  0  0  0
  1  2  2  0  0  0
  1  3  1  0  0  0
  3  4  2  0  0  0
  4  5  1  0  0  0
  5  6  1  0  0  0
  6  7  2  0  0  0
  7  8  1  0  0  0
  8  9  2  0  0  0
  9 10  1  0  0  0
 10 11  2  0  0  0
 19 15  1  0  0  0
 11  3  1  0  0  0
 22 16  1  0  0  0
 11  6  1  0  0  0
  5 12  1  0  0  0
M  END
> <minimizedAffinity>
-7.82779

> <CNNscore>
0.4662517309

> <CNNaffinity>
5.7625975609

> <CNN_VS>
2.6868209839

> <CNNaffinity_variance>
0.1354301274

$$$$
[H]c1c([H])c([H])c2c(c1[H])c(C(=O)OC1([H])C([H])([H])C3([H])N(C([H])([H])[H])C([H])(C([H])([H])C3([H])[H])C1([H])[H])c([H])n2[H]


 22 25  0  0  0  0  0  0  0  0999 V2000
  -86.4113   31.1546   -0.2983 C   0  0  0  0  0  0  0  0  0  0  0  0
  -87.1963   30.2088   -0.5385 O   0  0  0  0  0  0  0  0  0  0  0  0
  -85.0992   30.9022    0.2591 C   0  0  0  0  0  0  0  0  0  0  0  0
  -83.9875   31.7315    0.0952 C   0  0  0  0  0  0  0  0  0  0  0  0
  -82.9358   31.2133    0.7345 N   0  0  0  0  0  0  0  0  0  0  0  0
  -83.2960   30.0626    1.3253 C   0  0  0  0  0  0  0  0  0  0  0  0
  -82.6407   29.1306    2.0949 C   0  0  0  0  0  0  0  0  0  0  0  0
  -83.3008   28.0331    2.5611 C   0  0  0  0  0  0  0  0  0  0  0  0
  -84.6302   27.8233    2.2804 C   0  0  0  0  0  0  0  0  0  0  0  0
  -85.2919   28.7530    1.5101 C   0  0  0  0  0  0  0  0  0  0  0  0
  -84.6505   29.8572    1.0342 C   0  0  0  0  0  0  0  0  0  0  0  0
  -81.9570   31.5856    0.8084 H   0  0  0  0  0  0  0  0  0  0  0  0
  -86.8517   32.4349   -0.5869 O   0  0  0  0  0  0  0  0  0  0  0  0
  -89.4556   35.8822   -4.0061 C   0  0  0  0  0  0  0  0  0  0  0  0
  -88.8026   35.1190   -2.9669 N   0  0  0  0  0  0  0  0  0  0  0  0
  -89.4508   33.8126   -2.8324 C   0  0  0  0  0  0  0  0  0  0  0  0
  -89.0572   33.1279   -4.1001 C   0  0  0  0  0  0  0  0  0  0  0  0
  -87.7449   33.7213   -4.5544 C   0  0  0  0  0  0  0  0  0  0  0  0
  -87.4857   34.7392   -3.4362 C   0  0  0  0  0  0  0  0  0  0  0  0
  -86.6898   34.0168   -2.3810 C   0  0  0  0  0  0  0  0  0  0  0  0
  -87.3948   32.7980   -1.8431 C   0  0  0  0  0  0  0  0  0  0  0  0
  -88.8486   33.1658   -1.6049 C   0  0  0  0  0  0  0  0  0  0  0  0
 14 15  1  0  0  0
 15 16  1  0  0  0
 16 17  1  0  0  0
 17 18  1  0  0  0
 18 19  1  0  0  0
 19 20  1  0  0  0
 20 21  1  0  0  0
 21 22  1  0  0  0
 21 13  1  0  0  0
 13  1  1  0  0  0
  1  2  2  0  0  0
  1  3  1  0  0  0
  3  4  2  0  0  0
  4  5  1  0  0  0
  5  6  1  0  0  0
  6  7  2  0  0  0
  7  8  1  0  0  0
  8  9  2  0  0  0
  9 10  1  0  0  0
 10 11  2  0  0  0
 19 15  1  0  0  0
 11  3  1  0  0  0
 22 16  1  0  0  0
 11  6  1  0  0  0
  5 12  1  0  0  0
M  END
> <minimizedAffinity>
-8.24686

> <CNNscore>
0.4543768167

> <CNNaffinity>
5.3701295853

> <CNN_VS>
2.4400622845

> <CNNaffinity_variance>
0.2559370399

$$$$
[H]c1nc2c([H])c(OC([H])([H])[H])c(OC([H])([H])[H])c([H])c2c(Oc2c([H])c([H])c(N([H])C(=O)N([H])c3c([H])c([H])c([H])c(Cl)c3[H])c([H])c2[H])c1[H]


 34 37  0  0  0  0  0  0  0  0999 V2000
  -87.7637   31.9146   -1.0198 C   0  0  0  0  0  0  0  0  0  0  0  0
  -89.0491   32.1218   -0.6007 C   0  0  0  0  0  0  0  0  0  0  0  0
  -90.1040   31.4055   -1.1178 C   0  0  0  0  0  0  0  0  0  0  0  0
  -89.9588   30.4510   -2.0702 C   0  0  0  0  0  0  0  0  0  0  0  0
  -88.6079   30.2379   -2.5106 C   0  0  0  0  0  0  0  0  0  0  0  0
  -87.5829   30.9500   -1.9909 C   0  0  0  0  0  0  0  0  0  0  0  0
  -90.9135   29.6578   -2.6102 N   0  0  0  0  0  0  0  0  0  0  0  0
  -91.8723   28.8615   -3.1525 C   0  0  0  0  0  0  0  0  0  0  0  0
  -93.1471   29.0650   -3.1623 O   0  0  0  0  0  0  0  0  0  0  0  0
  -91.5306   27.6238   -3.8186 N   0  0  0  0  0  0  0  0  0  0  0  0
  -91.8919   30.4185   -2.0626 H   0  0  0  0  0  0  0  0  0  0  0  0
  -90.4771   27.4220   -3.8042 H   0  0  0  0  0  0  0  0  0  0  0  0
  -92.3895   26.7252   -4.4331 C   0  0  0  0  0  0  0  0  0  0  0  0
  -92.7404   26.9994   -5.7748 C   0  0  0  0  0  0  0  0  0  0  0  0
  -93.6028   26.2062   -6.4799 C   0  0  0  0  0  0  0  0  0  0  0  0
  -94.1567   25.1019   -5.8807 C   0  0  0  0  0  0  0  0  0  0  0  0
  -93.8532   24.7863   -4.5811 C   0  0  0  0  0  0  0  0  0  0  0  0
  -94.5617   23.3894   -3.8247 Cl  0  0  0  0  0  0  0  0  0  0  0  0
  -92.9702   25.6175   -3.8931 C   0  0  0  0  0  0  0  0  0  0  0  0
  -86.7741   32.6470   -0.4686 O   0  0  0  0  0  0  0  0  0  0  0  0
  -84.3062   29.0843    2.0577 C   0  0  0  0  0  0  0  0  0  0  0  0
  -83.4053   29.9412    1.4932 C   0  0  0  0  0  0  0  0  0  0  0  0
  -83.7532   31.0408    0.7265 C   0  0  0  0  0  0  0  0  0  0  0  0
  -82.8164   31.8448    0.1943 N   0  0  0  0  0  0  0  0  0  0  0  0
  -83.1053   32.9208   -0.5601 C   0  0  0  0  0  0  0  0  0  0  0  0
  -84.4387   33.1677   -0.7671 C   0  0  0  0  0  0  0  0  0  0  0  0
  -85.4562   32.3584   -0.2336 C   0  0  0  0  0  0  0  0  0  0  0  0
  -85.1133   31.2651    0.5352 C   0  0  0  0  0  0  0  0  0  0  0  0
  -86.0249   30.3991    1.1100 C   0  0  0  0  0  0  0  0  0  0  0  0
  -85.6804   29.3008    1.8733 C   0  0  0  0  0  0  0  0  0  0  0  0
  -82.6871   27.3885    2.8595 C   0  0  0  0  0  0  0  0  0  0  0  0
  -83.9787   27.9768    2.8274 O   0  0  0  0  0  0  0  0  0  0  0  0
  -86.5724   28.4272    2.4489 O   0  0  0  0  0  0  0  0  0  0  0  0
  -87.2538   27.4033    1.7927 C   0  0  0  0  0  0  0  0  0  0  0  0
 31 32  1  0  0  0
 32 21  1  0  0  0
 21 22  2  0  0  0
 22 23  1  0  0  0
 23 24  2  0  0  0
 24 25  1  0  0  0
 25 26  2  0  0  0
 26 27  1  0  0  0
 27 20  1  0  0  0
 20  1  1  0  0  0
  1  2  2  0  0  0
  2  3  1  0  0  0
  3  4  2  0  0  0
  4  7  1  0  0  0
  7  8  1  0  0  0
  8  9  2  0  0  0
  8 10  1  0  0  0
 10 13  1  0  0  0
 13 14  2  0  0  0
 14 15  1  0  0  0
 15 16  2  0  0  0
 16 17  1  0  0  0
 17 18  1  0  0  0
 17 19  2  0  0  0
  4  5  1  0  0  0
  5  6  2  0  0  0
 27 28  2  0  0  0
 28 29  1  0  0  0
 29 30  2  0  0  0
 30 33  1  0  0  0
 33 34  1  0  0  0
 30 21  1  0  0  0
 28 23  1  0  0  0
  6  1  1  0  0  0
 19 13  1  0  0  0
  7 11  1  0  0  0
 10 12  1  0  0  0
M  END
> <minimizedAffinity>
-8.51135

> <CNNscore>
0.3130575120

> <CNNaffinity>
6.4349174500

> <CNN_VS>
2.0144991875

> <CNNaffinity_variance>
0.0842223689

$$$$
[H]c1nc2c([H])c(OC([H])([H])[H])c(OC([H])([H])[H])c([H])c2c(Oc2c([H])c([H])c(N([H])C(=O)N([H])c3c([H])c([H])c([H])c(Cl)c3[H])c([H])c2[H])c1[H]


 34 37  0  0  0  0  0  0  0  0999 V2000
  -86.3716   28.7066    1.3242 C   0  0  0  0  0  0  0  0  0  0  0  0
  -87.1792   28.0927    2.2417 C   0  0  0  0  0  0  0  0  0  0  0  0
  -88.0262   27.0671    1.8899 C   0  0  0  0  0  0  0  0  0  0  0  0
  -88.1290   26.5884    0.6252 C   0  0  0  0  0  0  0  0  0  0  0  0
  -87.2818   27.2373   -0.3368 C   0  0  0  0  0  0  0  0  0  0  0  0
  -86.4545   28.2429    0.0263 C   0  0  0  0  0  0  0  0  0  0  0  0
  -88.8872   25.5589    0.1808 N   0  0  0  0  0  0  0  0  0  0  0  0
  -89.6484   24.5249   -0.2652 C   0  0  0  0  0  0  0  0  0  0  0  0
  -89.3629   23.2666   -0.2244 O   0  0  0  0  0  0  0  0  0  0  0  0
  -90.9429   24.7529   -0.8691 N   0  0  0  0  0  0  0  0  0  0  0  0
  -87.8733   24.6859    0.3948 H   0  0  0  0  0  0  0  0  0  0  0  0
  -91.1930   25.7940   -0.9339 H   0  0  0  0  0  0  0  0  0  0  0  0
  -91.8350   23.8053   -1.3480 C   0  0  0  0  0  0  0  0  0  0  0  0
  -91.8077   23.5544   -2.7390 C   0  0  0  0  0  0  0  0  0  0  0  0
  -92.6580   22.6657   -3.3366 C   0  0  0  0  0  0  0  0  0  0  0  0
  -93.5763   21.9850   -2.5760 C   0  0  0  0  0  0  0  0  0  0  0  0
  -93.6491   22.1877   -1.2215 C   0  0  0  0  0  0  0  0  0  0  0  0
  -94.8177   21.3270   -0.2630 Cl  0  0  0  0  0  0  0  0  0  0  0  0
  -92.7664   23.1010   -0.6464 C   0  0  0  0  0  0  0  0  0  0  0  0
  -85.5602   29.7027    1.7354 O   0  0  0  0  0  0  0  0  0  0  0  0
  -86.3386   33.5194   -1.4257 C   0  0  0  0  0  0  0  0  0  0  0  0
  -84.9952   33.3400   -1.2595 C   0  0  0  0  0  0  0  0  0  0  0  0
  -84.4352   32.3663   -0.4494 C   0  0  0  0  0  0  0  0  0  0  0  0
  -83.1022   32.2441   -0.3251 N   0  0  0  0  0  0  0  0  0  0  0  0
  -82.5125   31.3178    0.4524 C   0  0  0  0  0  0  0  0  0  0  0  0
  -83.3583   30.4785    1.1321 C   0  0  0  0  0  0  0  0  0  0  0  0
  -84.7577   30.5647    1.0366 C   0  0  0  0  0  0  0  0  0  0  0  0
  -85.3191   31.5301    0.2262 C   0  0  0  0  0  0  0  0  0  0  0  0
  -86.6790   31.7101    0.0548 C   0  0  0  0  0  0  0  0  0  0  0  0
  -87.2400   32.6817   -0.7510 C   0  0  0  0  0  0  0  0  0  0  0  0
  -87.0348   34.3824   -3.6416 C   0  0  0  0  0  0  0  0  0  0  0  0
  -86.9198   34.4891   -2.2307 O   0  0  0  0  0  0  0  0  0  0  0  0
  -88.5889   32.8777   -0.9302 O   0  0  0  0  0  0  0  0  0  0  0  0
  -89.5889   31.9314   -0.7126 C   0  0  0  0  0  0  0  0  0  0  0  0
 31 32  1  0  0  0
 32 21  1  0  0  0
 21 22  2  0  0  0
 22 23  1  0  0  0
 23 24  2  0  0  0
 24 25  1  0  0  0
 25 26  2  0  0  0
 26 27  1  0  0  0
 27 20  1  0  0  0
 20  1  1  0  0  0
  1  2  2  0  0  0
  2  3  1  0  0  0
  3  4  2  0  0  0
  4  7  1  0  0  0
  7  8  1  0  0  0
  8  9  2  0  0  0
  8 10  1  0  0  0
 10 13  1  0  0  0
 13 14  2  0  0  0
 14 15  1  0  0  0
 15 16  2  0  0  0
 16 17  1  0  0  0
 17 18  1  0  0  0
 17 19  2  0  0  0
  4  5  1  0  0  0
  5  6  2  0  0  0
 27 28  2  0  0  0
 28 29  1  0  0  0
 29 30  2  0  0  0
 30 33  1  0  0  0
 33 34  1  0  0  0
 30 21  1  0  0  0
 28 23  1  0  0  0
  6  1  1  0  0  0
 19 13  1  0  0  0
  7 11  1  0  0  0
 10 12  1  0  0  0
M  END
> <minimizedAffinity>
-8.29142

> <CNNscore>
0.2629658282

> <CNNaffinity>
6.5266113281

> <CNN_VS>
1.7162758112

> <CNNaffinity_variance>
0.2163590491

$$$$
[H]c1nc2c([H])c(OC([H])([H])[H])c(OC([H])([H])[H])c([H])c2c(Oc2c([H])c([H])c(N([H])C(=O)N([H])c3c([H])c([H])c([H])c(Cl)c3[H])c([H])c2[H])c1[H]


 34 37  0  0  0  0  0  0  0  0999 V2000
  -88.1787   31.2744   -1.1081 C   0  0  0  0  0  0  0  0  0  0  0  0
  -89.3681   31.2621   -0.4327 C   0  0  0  0  0  0  0  0  0  0  0  0
  -90.2514   30.2126   -0.5403 C   0  0  0  0  0  0  0  0  0  0  0  0
  -90.0196   29.1220   -1.3124 C   0  0  0  0  0  0  0  0  0  0  0  0
  -88.7709   29.1394   -2.0229 C   0  0  0  0  0  0  0  0  0  0  0  0
  -87.9141   30.1783   -1.9048 C   0  0  0  0  0  0  0  0  0  0  0  0
  -90.7910   28.0185   -1.4524 N   0  0  0  0  0  0  0  0  0  0  0  0
  -91.5658   26.9106   -1.5932 C   0  0  0  0  0  0  0  0  0  0  0  0
  -92.7113   26.8248   -2.1822 O   0  0  0  0  0  0  0  0  0  0  0  0
  -91.1495   25.6320   -1.0601 N   0  0  0  0  0  0  0  0  0  0  0  0
  -91.8056   28.7604   -1.9587 H   0  0  0  0  0  0  0  0  0  0  0  0
  -90.2092   25.6828   -0.5465 H   0  0  0  0  0  0  0  0  0  0  0  0
  -91.8175   24.4196   -1.1430 C   0  0  0  0  0  0  0  0  0  0  0  0
  -92.2441   23.8458    0.0765 C   0  0  0  0  0  0  0  0  0  0  0  0
  -92.8858   22.6394    0.1299 C   0  0  0  0  0  0  0  0  0  0  0  0
  -93.1323   21.9473   -1.0300 C   0  0  0  0  0  0  0  0  0  0  0  0
  -92.7412   22.4546   -2.2427 C   0  0  0  0  0  0  0  0  0  0  0  0
  -93.0510   21.5716   -3.7089 Cl  0  0  0  0  0  0  0  0  0  0  0  0
  -92.0898   23.6872   -2.2590 C   0  0  0  0  0  0  0  0  0  0  0  0
  -87.3550   32.3316   -0.9550 O   0  0  0  0  0  0  0  0  0  0  0  0
  -84.1856   29.7839    1.9826 C   0  0  0  0  0  0  0  0  0  0  0  0
  -83.5012   30.7701    1.3317 C   0  0  0  0  0  0  0  0  0  0  0  0
  -84.0790   31.6599    0.4415 C   0  0  0  0  0  0  0  0  0  0  0  0
  -83.3481   32.6076   -0.1709 N   0  0  0  0  0  0  0  0  0  0  0  0
  -83.8633   33.4905   -1.0457 C   0  0  0  0  0  0  0  0  0  0  0  0
  -85.2082   33.3769   -1.2909 C   0  0  0  0  0  0  0  0  0  0  0  0
  -86.0160   32.4044   -0.6773 C   0  0  0  0  0  0  0  0  0  0  0  0
  -85.4448   31.5196    0.2143 C   0  0  0  0  0  0  0  0  0  0  0  0
  -86.1376   30.5231    0.8762 C   0  0  0  0  0  0  0  0  0  0  0  0
  -85.5634   29.6332    1.7629 C   0  0  0  0  0  0  0  0  0  0  0  0
  -82.7264   27.8495    2.5010 C   0  0  0  0  0  0  0  0  0  0  0  0
  -83.6258   28.8817    2.8764 O   0  0  0  0  0  0  0  0  0  0  0  0
  -86.2355   28.6343    2.4268 O   0  0  0  0  0  0  0  0  0  0  0  0
  -87.0082   27.6359    1.8359 C   0  0  0  0  0  0  0  0  0  0  0  0
 31 32  1  0  0  0
 32 21  1  0  0  0
 21 22  2  0  0  0
 22 23  1  0  0  0
 23 24  2  0  0  0
 24 25  1  0  0  0
 25 26  2  0  0  0
 26 27  1  0  0  0
 27 20  1  0  0  0
 20  1  1  0  0  0
  1  2  2  0  0  0
  2  3  1  0  0  0
  3  4  2  0  0  0
  4  7  1  0  0  0
  7  8  1  0  0  0
  8  9  2  0  0  0
  8 10  1  0  0  0
 10 13  1  0  0  0
 13 14  2  0  0  0
 14 15  1  0  0  0
 15 16  2  0  0  0
 16 17  1  0  0  0
 17 18  1  0  0  0
 17 19  2  0  0  0
  4  5  1  0  0  0
  5  6  2  0  0  0
 27 28  2  0  0  0
 28 29  1  0  0  0
 29 30  2  0  0  0
 30 33  1  0  0  0
 33 34  1  0  0  0
 30 21  1  0  0  0
 28 23  1  0  0  0
  6  1  1  0  0  0
 19 13  1  0  0  0
  7 11  1  0  0  0
 10 12  1  0  0  0
M  END
> <minimizedAffinity>
-7.64427

> <CNNscore>
0.1848994195

> <CNNaffinity>
6.4388237000

> <CNN_VS>
1.1905347109

> <CNNaffinity_variance>
0.0862301439

$$$$
[H]c1nc2c([H])c(OC([H])([H])[H])c(OC([H])([H])[H])c([H])c2c(Oc2c([H])c([H])c(N([H])C(=O)N([H])c3c([H])c([H])c([H])c(Cl)c3[H])c([H])c2[H])c1[H]


 34 37  0  0  0  0  0  0  0  0999 V2000
  -86.3935   28.7936    1.3653 C   0  0  0  0  0  0  0  0  0  0  0  0
  -86.5914   28.5235    0.0391 C   0  0  0  0  0  0  0  0  0  0  0  0
  -87.3156   27.4302   -0.3774 C   0  0  0  0  0  0  0  0  0  0  0  0
  -87.8832   26.5445    0.4785 C   0  0  0  0  0  0  0  0  0  0  0  0
  -87.6710   26.8292    1.8707 C   0  0  0  0  0  0  0  0  0  0  0  0
  -86.9577   27.9086    2.2624 C   0  0  0  0  0  0  0  0  0  0  0  0
  -88.6515   25.4704    0.1810 N   0  0  0  0  0  0  0  0  0  0  0  0
  -89.4228   24.3919   -0.1179 C   0  0  0  0  0  0  0  0  0  0  0  0
  -89.6834   23.9149   -1.2889 O   0  0  0  0  0  0  0  0  0  0  0  0
  -90.0688   23.6210    0.9216 N   0  0  0  0  0  0  0  0  0  0  0  0
  -88.5750   25.7498   -1.1426 H   0  0  0  0  0  0  0  0  0  0  0  0
  -89.8843   24.0116    1.9034 H   0  0  0  0  0  0  0  0  0  0  0  0
  -90.8618   22.4931    0.7735 C   0  0  0  0  0  0  0  0  0  0  0  0
  -90.2418   21.2456    1.0147 C   0  0  0  0  0  0  0  0  0  0  0  0
  -90.9086   20.0602    0.8725 C   0  0  0  0  0  0  0  0  0  0  0  0
  -92.2251   20.0619    0.4826 C   0  0  0  0  0  0  0  0  0  0  0  0
  -92.8786   21.2418    0.2344 C   0  0  0  0  0  0  0  0  0  0  0  0
  -94.5449   21.2384   -0.2645 Cl  0  0  0  0  0  0  0  0  0  0  0  0
  -92.1675   22.4309    0.3898 C   0  0  0  0  0  0  0  0  0  0  0  0
  -85.6782   29.8849    1.7069 O   0  0  0  0  0  0  0  0  0  0  0  0
  -86.4409   33.6011   -1.5755 C   0  0  0  0  0  0  0  0  0  0  0  0
  -85.0983   33.4051   -1.4222 C   0  0  0  0  0  0  0  0  0  0  0  0
  -84.5423   32.4511   -0.5862 C   0  0  0  0  0  0  0  0  0  0  0  0
  -83.2098   32.3109   -0.4766 N   0  0  0  0  0  0  0  0  0  0  0  0
  -82.6238   31.4027    0.3247 C   0  0  0  0  0  0  0  0  0  0  0  0
  -83.4731   30.6021    1.0455 C   0  0  0  0  0  0  0  0  0  0  0  0
  -84.8722   30.7083    0.9669 C   0  0  0  0  0  0  0  0  0  0  0  0
  -85.4296   31.6541    0.1309 C   0  0  0  0  0  0  0  0  0  0  0  0
  -86.7888   31.8508   -0.0274 C   0  0  0  0  0  0  0  0  0  0  0  0
  -87.3457   32.8028   -0.8589 C   0  0  0  0  0  0  0  0  0  0  0  0
  -87.1193   34.4152   -3.8153 C   0  0  0  0  0  0  0  0  0  0  0  0
  -87.0180   34.5516   -2.4059 O   0  0  0  0  0  0  0  0  0  0  0  0
  -88.6937   33.0150   -1.0259 O   0  0  0  0  0  0  0  0  0  0  0  0
  -89.6187   32.0782   -1.4840 C   0  0  0  0  0  0  0  0  0  0  0  0
 31 32  1  0  0  0
 32 21  1  0  0  0
 21 22  2  0  0  0
 22 23  1  0  0  0
 23 24  2  0  0  0
 24 25  1  0  0  0
 25 26  2  0  0  0
 26 27  1  0  0  0
 27 20  1  0  0  0
 20  1  1  0  0  0
  1  2  2  0  0  0
  2  3  1  0  0  0
  3  4  2  0  0  0
  4  7  1  0  0  0
  7  8  1  0  0  0
  8  9  2  0  0  0
  8 10  1  0  0  0
 10 13  1  0  0  0
 13 14  2  0  0  0
 14 15  1  0  0  0
 15 16  2  0  0  0
 16 17  1  0  0  0
 17 18  1  0  0  0
 17 19  2  0  0  0
  4  5  1  0  0  0
  5  6  2  0  0  0
 27 28  2  0  0  0
 28 29  1  0  0  0
 29 30  2  0  0  0
 30 33  1  0  0  0
 33 34  1  0  0  0
 30 21  1  0  0  0
 28 23  1  0  0  0
  6  1  1  0  0  0
 19 13  1  0  0  0
  7 11  1  0  0  0
 10 12  1  0  0  0
M  END
> <minimizedAffinity>
-8.56160

> <CNNscore>
0.1421234906

> <CNNaffinity>
6.3568811417

> <CNN_VS>
0.9034621119

> <CNNaffinity_variance>
0.1866840422

$$$$
[H]c1nc2c([H])c(OC([H])([H])[H])c(OC([H])([H])[H])c([H])c2c(Oc2c([H])c([H])c(N([H])C(=O)N([H])c3c([H])c([H])c([H])c(Cl)c3[H])c([H])c2[H])c1[H]


 34 37  0  0  0  0  0  0  0  0999 V2000
  -88.9056   30.2346   -0.9948 C   0  0  0  0  0  0  0  0  0  0  0  0
  -88.4533   30.1572   -2.2833 C   0  0  0  0  0  0  0  0  0  0  0  0
  -88.4533   31.2511   -3.1180 C   0  0  0  0  0  0  0  0  0  0  0  0
  -88.8949   32.4759   -2.7385 C   0  0  0  0  0  0  0  0  0  0  0  0
  -89.3722   32.5532   -1.3855 C   0  0  0  0  0  0  0  0  0  0  0  0
  -89.3639   31.4686   -0.5785 C   0  0  0  0  0  0  0  0  0  0  0  0
  -88.8946   33.6234   -3.4565 N   0  0  0  0  0  0  0  0  0  0  0  0
  -88.8944   34.7757   -4.1773 C   0  0  0  0  0  0  0  0  0  0  0  0
  -89.3005   35.9399   -3.7945 O   0  0  0  0  0  0  0  0  0  0  0  0
  -88.4026   34.8094   -5.5372 N   0  0  0  0  0  0  0  0  0  0  0  0
  -89.5971   34.2598   -2.4883 H   0  0  0  0  0  0  0  0  0  0  0  0
  -88.0793   33.8477   -5.8854 H   0  0  0  0  0  0  0  0  0  0  0  0
  -88.3205   35.9049   -6.3833 C   0  0  0  0  0  0  0  0  0  0  0  0
  -89.4645   36.1914   -7.1630 C   0  0  0  0  0  0  0  0  0  0  0  0
  -89.4976   37.2258   -8.0568 C   0  0  0  0  0  0  0  0  0  0  0  0
  -88.3917   38.0237   -8.2163 C   0  0  0  0  0  0  0  0  0  0  0  0
  -87.2532   37.7934   -7.4871 C   0  0  0  0  0  0  0  0  0  0  0  0
  -85.8529   38.8036   -7.6965 Cl  0  0  0  0  0  0  0  0  0  0  0  0
  -87.2555   36.7301   -6.5852 C   0  0  0  0  0  0  0  0  0  0  0  0
  -88.8736   29.1261   -0.2268 O   0  0  0  0  0  0  0  0  0  0  0  0
  -84.3020   30.5014    1.3140 C   0  0  0  0  0  0  0  0  0  0  0  0
  -84.5173   29.1965    1.6537 C   0  0  0  0  0  0  0  0  0  0  0  0
  -85.6827   28.5024    1.3741 C   0  0  0  0  0  0  0  0  0  0  0  0
  -85.8344   27.2177    1.7397 N   0  0  0  0  0  0  0  0  0  0  0  0
  -86.9484   26.5042    1.4944 C   0  0  0  0  0  0  0  0  0  0  0  0
  -87.9518   27.1668    0.8341 C   0  0  0  0  0  0  0  0  0  0  0  0
  -87.8432   28.5085    0.4306 C   0  0  0  0  0  0  0  0  0  0  0  0
  -86.6814   29.2015    0.7028 C   0  0  0  0  0  0  0  0  0  0  0  0
  -86.4614   30.5216    0.3561 C   0  0  0  0  0  0  0  0  0  0  0  0
  -85.3008   31.2165    0.6356 C   0  0  0  0  0  0  0  0  0  0  0  0
  -82.1640   31.5374    0.6100 C   0  0  0  0  0  0  0  0  0  0  0  0
  -83.1432   31.2151    1.5860 O   0  0  0  0  0  0  0  0  0  0  0  0
  -85.0662   32.5295    0.3023 O   0  0  0  0  0  0  0  0  0  0  0  0
  -85.8692   33.3214   -0.5170 C   0  0  0  0  0  0  0  0  0  0  0  0
 31 32  1  0  0  0
 32 21  1  0  0  0
 21 22  2  0  0  0
 22 23  1  0  0  0
 23 24  2  0  0  0
 24 25  1  0  0  0
 25 26  2  0  0  0
 26 27  1  0  0  0
 27 20  1  0  0  0
 20  1  1  0  0  0
  1  2  2  0  0  0
  2  3  1  0  0  0
  3  4  2  0  0  0
  4  7  1  0  0  0
  7  8  1  0  0  0
  8  9  2  0  0  0
  8 10  1  0  0  0
 10 13  1  0  0  0
 13 14  2  0  0  0
 14 15  1  0  0  0
 15 16  2  0  0  0
 16 17  1  0  0  0
 17 18  1  0  0  0
 17 19  2  0  0  0
  4  5  1  0  0  0
  5  6  2  0  0  0
 27 28  2  0  0  0
 28 29  1  0  0  0
 29 30  2  0  0  0
 30 33  1  0  0  0
 33 34  1  0  0  0
 30 21  1  0  0  0
 28 23  1  0  0  0
  6  1  1  0  0  0
 19 13  1  0  0  0
  7 11  1  0  0  0
 10 12  1  0  0  0
M  END
> <minimizedAffinity>
-8.45431

> <CNNscore>
0.1183159873

> <CNNaffinity>
6.1945252419

> <CNN_VS>
0.7329113483

> <CNNaffinity_variance>
0.1178738698

$$$$
[H]c1nc2c([H])c(OC([H])([H])[H])c(OC([H])([H])[H])c([H])c2c(Oc2c([H])c([H])c(N([H])C(=O)N([H])c3c([H])c([H])c([H])c(Cl)c3[H])c([H])c2[H])c1[H]


 34 37  0  0  0  0  0  0  0  0999 V2000
  -87.6396   32.8399   -1.7749 C   0  0  0  0  0  0  0  0  0  0  0  0
  -87.5188   32.2420   -2.9992 C   0  0  0  0  0  0  0  0  0  0  0  0
  -88.5806   31.6103   -3.6048 C   0  0  0  0  0  0  0  0  0  0  0  0
  -89.8141   31.5294   -3.0469 C   0  0  0  0  0  0  0  0  0  0  0  0
  -89.9369   32.1556   -1.7596 C   0  0  0  0  0  0  0  0  0  0  0  0
  -88.8834   32.7729   -1.1794 C   0  0  0  0  0  0  0  0  0  0  0  0
  -90.9338   30.9791   -3.5720 N   0  0  0  0  0  0  0  0  0  0  0  0
  -92.0584   30.4268   -4.0990 C   0  0  0  0  0  0  0  0  0  0  0  0
  -93.2157   30.3181   -3.5375 O   0  0  0  0  0  0  0  0  0  0  0  0
  -92.0656   29.8707   -5.4343 N   0  0  0  0  0  0  0  0  0  0  0  0
  -91.5718   31.0773   -2.3806 H   0  0  0  0  0  0  0  0  0  0  0  0
  -91.1078   29.9300   -5.9137 H   0  0  0  0  0  0  0  0  0  0  0  0
  -93.1327   29.2975   -6.1094 C   0  0  0  0  0  0  0  0  0  0  0  0
  -94.0626   30.1858   -6.6966 C   0  0  0  0  0  0  0  0  0  0  0  0
  -95.1725   29.7444   -7.3625 C   0  0  0  0  0  0  0  0  0  0  0  0
  -95.4083   28.3964   -7.4745 C   0  0  0  0  0  0  0  0  0  0  0  0
  -94.5408   27.4875   -6.9247 C   0  0  0  0  0  0  0  0  0  0  0  0
  -94.8467   25.7810   -7.0646 Cl  0  0  0  0  0  0  0  0  0  0  0  0
  -93.4198   27.9736   -6.2532 C   0  0  0  0  0  0  0  0  0  0  0  0
  -86.5610   33.4469   -1.2385 O   0  0  0  0  0  0  0  0  0  0  0  0
  -85.4186   29.3029    1.3475 C   0  0  0  0  0  0  0  0  0  0  0  0
  -84.2963   30.0675    1.2049 C   0  0  0  0  0  0  0  0  0  0  0  0
  -84.2625   31.2823    0.5405 C   0  0  0  0  0  0  0  0  0  0  0  0
  -83.1223   31.9861    0.4312 N   0  0  0  0  0  0  0  0  0  0  0  0
  -83.0393   33.1672   -0.2078 C   0  0  0  0  0  0  0  0  0  0  0  0
  -84.2055   33.6347   -0.7583 C   0  0  0  0  0  0  0  0  0  0  0  0
  -85.4228   32.9379   -0.6722 C   0  0  0  0  0  0  0  0  0  0  0  0
  -85.4614   31.7299   -0.0063 C   0  0  0  0  0  0  0  0  0  0  0  0
  -86.5979   30.9568    0.1415 C   0  0  0  0  0  0  0  0  0  0  0  0
  -86.6338   29.7442    0.8019 C   0  0  0  0  0  0  0  0  0  0  0  0
  -84.3296   27.3145    2.3477 C   0  0  0  0  0  0  0  0  0  0  0  0
  -85.4735   28.0832    2.0075 O   0  0  0  0  0  0  0  0  0  0  0  0
  -87.7530   28.9606    0.9551 O   0  0  0  0  0  0  0  0  0  0  0  0
  -88.1091   27.8775    0.1531 C   0  0  0  0  0  0  0  0  0  0  0  0
 31 32  1  0  0  0
 32 21  1  0  0  0
 21 22  2  0  0  0
 22 23  1  0  0  0
 23 24  2  0  0  0
 24 25  1  0  0  0
 25 26  2  0  0  0
 26 27  1  0  0  0
 27 20  1  0  0  0
 20  1  1  0  0  0
  1  2  2  0  0  0
  2  3  1  0  0  0
  3  4  2  0  0  0
  4  7  1  0  0  0
  7  8  1  0  0  0
  8  9  2  0  0  0
  8 10  1  0  0  0
 10 13  1  0  0  0
 13 14  2  0  0  0
 14 15  1  0  0  0
 15 16  2  0  0  0
 16 17  1  0  0  0
 17 18  1  0  0  0
 17 19  2  0  0  0
  4  5  1  0  0  0
  5  6  2  0  0  0
 27 28  2  0  0  0
 28 29  1  0  0  0
 29 30  2  0  0  0
 30 33  1  0  0  0
 33 34  1  0  0  0
 30 21  1  0  0  0
 28 23  1  0  0  0
  6  1  1  0  0  0
 19 13  1  0  0  0
  7 11  1  0  0  0
 10 12  1  0  0  0
M  END
> <minimizedAffinity>
-7.54442

> <CNNscore>
0.1006083339

> <CNNaffinity>
5.9950113297

> <CNN_VS>
0.6031481028

> <CNNaffinity_variance>
0.0899163112

$$$$
[H]c1nc2c([H])c(OC([H])([H])[H])c(OC([H])([H])[H])c([H])c2c(Oc2c([H])c([H])c(N([H])C(=O)N([H])c3c([H])c([H])c([H])c(Cl)c3[H])c([H])c2[H])c1[H]


 34 37  0  0  0  0  0  0  0  0999 V2000
  -86.3013   32.6914   -0.6614 C   0  0  0  0  0  0  0  0  0  0  0  0
  -85.8149   33.3822   -1.7371 C   0  0  0  0  0  0  0  0  0  0  0  0
  -86.6504   33.9855   -2.6487 C   0  0  0  0  0  0  0  0  0  0  0  0
  -88.0029   33.9454   -2.5576 C   0  0  0  0  0  0  0  0  0  0  0  0
  -88.5108   33.2165   -1.4285 C   0  0  0  0  0  0  0  0  0  0  0  0
  -87.6754   32.6306   -0.5417 C   0  0  0  0  0  0  0  0  0  0  0  0
  -88.9124   34.5404   -3.3646 N   0  0  0  0  0  0  0  0  0  0  0  0
  -89.8256   35.1377   -4.1751 C   0  0  0  0  0  0  0  0  0  0  0  0
  -89.6960   35.4190   -5.4283 O   0  0  0  0  0  0  0  0  0  0  0  0
  -91.1213   35.5416   -3.6749 N   0  0  0  0  0  0  0  0  0  0  0  0
  -88.0019   34.6362   -4.3634 H   0  0  0  0  0  0  0  0  0  0  0  0
  -91.2445   35.3374   -2.6291 H   0  0  0  0  0  0  0  0  0  0  0  0
  -92.1556   36.1376   -4.3806 C   0  0  0  0  0  0  0  0  0  0  0  0
  -92.2621   37.5440   -4.2830 C   0  0  0  0  0  0  0  0  0  0  0  0
  -93.2566   38.2451   -4.9070 C   0  0  0  0  0  0  0  0  0  0  0  0
  -94.1926   37.5776   -5.6576 C   0  0  0  0  0  0  0  0  0  0  0  0
  -94.1397   36.2134   -5.7881 C   0  0  0  0  0  0  0  0  0  0  0  0
  -95.3309   35.3717   -6.7358 Cl  0  0  0  0  0  0  0  0  0  0  0  0
  -93.1118   35.5315   -5.1382 C   0  0  0  0  0  0  0  0  0  0  0  0
  -85.4280   32.1275    0.1982 O   0  0  0  0  0  0  0  0  0  0  0  0
  -87.2026   27.4742   -0.4041 C   0  0  0  0  0  0  0  0  0  0  0  0
  -86.7179   27.6098    0.8652 C   0  0  0  0  0  0  0  0  0  0  0  0
  -86.1553   28.7735    1.3624 C   0  0  0  0  0  0  0  0  0  0  0  0
  -85.6920   28.8414    2.6225 N   0  0  0  0  0  0  0  0  0  0  0  0
  -85.1338   29.9470    3.1481 C   0  0  0  0  0  0  0  0  0  0  0  0
  -85.0574   31.0343    2.3152 C   0  0  0  0  0  0  0  0  0  0  0  0
  -85.5266   31.0151    0.9907 C   0  0  0  0  0  0  0  0  0  0  0  0
  -86.0927   29.8590    0.4937 C   0  0  0  0  0  0  0  0  0  0  0  0
  -86.5867   29.7220   -0.7902 C   0  0  0  0  0  0  0  0  0  0  0  0
  -87.1465   28.5620   -1.2890 C   0  0  0  0  0  0  0  0  0  0  0  0
  -89.0706   25.8573   -0.5942 C   0  0  0  0  0  0  0  0  0  0  0  0
  -87.7683   26.3175   -0.9221 O   0  0  0  0  0  0  0  0  0  0  0  0
  -87.6389   28.4065   -2.5632 O   0  0  0  0  0  0  0  0  0  0  0  0
  -88.0134   29.4349   -3.4265 C   0  0  0  0  0  0  0  0  0  0  0  0
 31 32  1  0  0  0
 32 21  1  0  0  0
 21 22  2  0  0  0
 22 23  1  0  0  0
 23 24  2  0  0  0
 24 25  1  0  0  0
 25 26  2  0  0  0
 26 27  1  0  0  0
 27 20  1  0  0  0
 20  1  1  0  0  0
  1  2  2  0  0  0
  2  3  1  0  0  0
  3  4  2  0  0  0
  4  7  1  0  0  0
  7  8  1  0  0  0
  8  9  2  0  0  0
  8 10  1  0  0  0
 10 13  1  0  0  0
 13 14  2  0  0  0
 14 15  1  0  0  0
 15 16  2  0  0  0
 16 17  1  0  0  0
 17 18  1  0  0  0
 17 19  2  0  0  0
  4  5  1  0  0  0
  5  6  2  0  0  0
 27 28  2  0  0  0
 28 29  1  0  0  0
 29 30  2  0  0  0
 30 33  1  0  0  0
 33 34  1  0  0  0
 30 21  1  0  0  0
 28 23  1  0  0  0
  6  1  1  0  0  0
 19 13  1  0  0  0
  7 11  1  0  0  0
 10 12  1  0  0  0
M  END
> <minimizedAffinity>
-7.79352

> <CNNscore>
0.0851888880

> <CNNaffinity>
5.9132275581

> <CNN_VS>
0.5037412643

> <CNNaffinity_variance>
0.1711995304

$$$$
[H]c1nc2c([H])c(OC([H])([H])[H])c(OC([H])([H])[H])c([H])c2c(Oc2c([H])c([H])c(N([H])C(=O)N([H])c3c([H])c([H])c([H])c(Cl)c3[H])c([H])c2[H])c1[H]


 34 37  0  0  0  0  0  0  0  0999 V2000
  -85.9066   32.4309   -0.4298 C   0  0  0  0  0  0  0  0  0  0  0  0
  -85.2752   33.0639   -1.4648 C   0  0  0  0  0  0  0  0  0  0  0  0
  -85.9774   33.7242   -2.4467 C   0  0  0  0  0  0  0  0  0  0  0  0
  -87.3313   33.8002   -2.4691 C   0  0  0  0  0  0  0  0  0  0  0  0
  -87.9917   33.1317   -1.3823 C   0  0  0  0  0  0  0  0  0  0  0  0
  -87.2861   32.4885   -0.4253 C   0  0  0  0  0  0  0  0  0  0  0  0
  -88.1163   34.4597   -3.3529 N   0  0  0  0  0  0  0  0  0  0  0  0
  -88.9046   35.1222   -4.2402 C   0  0  0  0  0  0  0  0  0  0  0  0
  -89.7569   36.0577   -3.9853 O   0  0  0  0  0  0  0  0  0  0  0  0
  -88.8585   34.8214   -5.6543 N   0  0  0  0  0  0  0  0  0  0  0  0
  -88.7851   35.0686   -2.3440 H   0  0  0  0  0  0  0  0  0  0  0  0
  -88.1721   34.0309   -5.8882 H   0  0  0  0  0  0  0  0  0  0  0  0
  -89.5812   35.4222   -6.6740 C   0  0  0  0  0  0  0  0  0  0  0  0
  -90.7062   34.7147   -7.1561 C   0  0  0  0  0  0  0  0  0  0  0  0
  -91.4813   35.1870   -8.1789 C   0  0  0  0  0  0  0  0  0  0  0  0
  -91.1715   36.3868   -8.7702 C   0  0  0  0  0  0  0  0  0  0  0  0
  -90.0915   37.1171   -8.3444 C   0  0  0  0  0  0  0  0  0  0  0  0
  -89.6999   38.6339   -9.1002 Cl  0  0  0  0  0  0  0  0  0  0  0  0
  -89.3240   36.6049   -7.2992 C   0  0  0  0  0  0  0  0  0  0  0  0
  -85.1592   31.8061    0.5033 O   0  0  0  0  0  0  0  0  0  0  0  0
  -87.2260   27.3065   -0.3017 C   0  0  0  0  0  0  0  0  0  0  0  0
  -86.8389   27.3963    1.0047 C   0  0  0  0  0  0  0  0  0  0  0  0
  -86.2325   28.5102    1.5611 C   0  0  0  0  0  0  0  0  0  0  0  0
  -85.8709   28.5340    2.8556 N   0  0  0  0  0  0  0  0  0  0  0  0
  -85.2757   29.5902    3.4392 C   0  0  0  0  0  0  0  0  0  0  0  0
  -85.0486   30.6738    2.6293 C   0  0  0  0  0  0  0  0  0  0  0  0
  -85.4070   30.6993    1.2708 C   0  0  0  0  0  0  0  0  0  0  0  0
  -86.0163   29.5933    0.7144 C   0  0  0  0  0  0  0  0  0  0  0  0
  -86.4116   29.5030   -0.6073 C   0  0  0  0  0  0  0  0  0  0  0  0
  -87.0147   28.3926   -1.1650 C   0  0  0  0  0  0  0  0  0  0  0  0
  -89.1600   25.7849   -0.5918 C   0  0  0  0  0  0  0  0  0  0  0  0
  -87.8332   26.2000   -0.8790 O   0  0  0  0  0  0  0  0  0  0  0  0
  -87.4107   28.2836   -2.4770 O   0  0  0  0  0  0  0  0  0  0  0  0
  -88.4130   29.0308   -3.0937 C   0  0  0  0  0  0  0  0  0  0  0  0
 31 32  1  0  0  0
 32 21  1  0  0  0
 21 22  2  0  0  0
 22 23  1  0  0  0
 23 24  2  0  0  0
 24 25  1  0  0  0
 25 26  2  0  0  0
 26 27  1  0  0  0
 27 20  1  0  0  0
 20  1  1  0  0  0
  1  2  2  0  0  0
  2  3  1  0  0  0
  3  4  2  0  0  0
  4  7  1  0  0  0
  7  8  1  0  0  0
  8  9  2  0  0  0
  8 10  1  0  0  0
 10 13  1  0  0  0
 13 14  2  0  0  0
 14 15  1  0  0  0
 15 16  2  0  0  0
 16 17  1  0  0  0
 17 18  1  0  0  0
 17 19  2  0  0  0
  4  5  1  0  0  0
  5  6  2  0  0  0
 27 28  2  0  0  0
 28 29  1  0  0  0
 29 30  2  0  0  0
 30 33  1  0  0  0
 33 34  1  0  0  0
 30 21  1  0  0  0
 28 23  1  0  0  0
  6  1  1  0  0  0
 19 13  1  0  0  0
  7 11  1  0  0  0
 10 12  1  0  0  0
M  END
> <minimizedAffinity>
-7.91890

> <CNNscore>
0.0788145214

> <CNNaffinity>
5.8653306961

> <CNN_VS>
0.4622732401

> <CNNaffinity_variance>
0.1971350908

$$$$
[H]c1nc2c([H])c(OC([H])([H])[H])c(OC([H])([H])[H])c([H])c2c(Oc2c([H])c([H])c(N([H])C(=O)N([H])c3c([H])c([H])c([H])c(Cl)c3[H])c([H])c2[H])c1[H]


 34 37  0  0  0  0  0  0  0  0999 V2000
  -90.6797   28.7869   -0.7186 C   0  0  0  0  0  0  0  0  0  0  0  0
  -89.4169   29.3122   -0.7094 C   0  0  0  0  0  0  0  0  0  0  0  0
  -89.1063   30.4640   -1.3951 C   0  0  0  0  0  0  0  0  0  0  0  0
  -90.0116   31.1616   -2.1250 C   0  0  0  0  0  0  0  0  0  0  0  0
  -91.3364   30.6056   -2.1353 C   0  0  0  0  0  0  0  0  0  0  0  0
  -91.6245   29.4735   -1.4549 C   0  0  0  0  0  0  0  0  0  0  0  0
  -89.8279   32.3241   -2.7937 N   0  0  0  0  0  0  0  0  0  0  0  0
  -89.6436   33.4915   -3.4651 C   0  0  0  0  0  0  0  0  0  0  0  0
  -90.5026   34.1193   -4.1962 O   0  0  0  0  0  0  0  0  0  0  0  0
  -88.3784   34.1911   -3.4193 N   0  0  0  0  0  0  0  0  0  0  0  0
  -91.0294   32.1920   -3.4058 H   0  0  0  0  0  0  0  0  0  0  0  0
  -87.6408   33.6768   -2.8345 H   0  0  0  0  0  0  0  0  0  0  0  0
  -88.0499   35.3920   -4.0299 C   0  0  0  0  0  0  0  0  0  0  0  0
  -88.0413   36.5409   -3.2062 C   0  0  0  0  0  0  0  0  0  0  0  0
  -87.7632   37.7872   -3.6956 C   0  0  0  0  0  0  0  0  0  0  0  0
  -87.4809   37.9475   -5.0297 C   0  0  0  0  0  0  0  0  0  0  0  0
  -87.4747   36.8690   -5.8769 C   0  0  0  0  0  0  0  0  0  0  0  0
  -87.1217   37.0779   -7.5672 Cl  0  0  0  0  0  0  0  0  0  0  0  0
  -87.7626   35.6136   -5.3430 C   0  0  0  0  0  0  0  0  0  0  0  0
  -90.9193   27.6575   -0.0210 O   0  0  0  0  0  0  0  0  0  0  0  0
  -90.7756   23.5162    2.8065 C   0  0  0  0  0  0  0  0  0  0  0  0
  -90.7892   24.6144    3.6178 C   0  0  0  0  0  0  0  0  0  0  0  0
  -90.8287   25.9202    3.1582 C   0  0  0  0  0  0  0  0  0  0  0  0
  -90.8360   26.9599    4.0104 N   0  0  0  0  0  0  0  0  0  0  0  0
  -90.8693   28.2445    3.6116 C   0  0  0  0  0  0  0  0  0  0  0  0
  -90.8968   28.4511    2.2558 C   0  0  0  0  0  0  0  0  0  0  0  0
  -90.8905   27.3995    1.3236 C   0  0  0  0  0  0  0  0  0  0  0  0
  -90.8566   26.0971    1.7781 C   0  0  0  0  0  0  0  0  0  0  0  0
  -90.8463   24.9847    0.9573 C   0  0  0  0  0  0  0  0  0  0  0  0
  -90.8050   23.6816    1.4132 C   0  0  0  0  0  0  0  0  0  0  0  0
  -89.6134   21.6157    3.8914 C   0  0  0  0  0  0  0  0  0  0  0  0
  -90.7346   22.2005    3.2464 O   0  0  0  0  0  0  0  0  0  0  0  0
  -90.7902   22.5642    0.6123 O   0  0  0  0  0  0  0  0  0  0  0  0
  -91.6483   22.3129   -0.4571 C   0  0  0  0  0  0  0  0  0  0  0  0
 31 32  1  0  0  0
 32 21  1  0  0  0
 21 22  2  0  0  0
 22 23  1  0  0  0
 23 24  2  0  0  0
 24 25  1  0  0  0
 25 26  2  0  0  0
 26 27  1  0  0  0
 27 20  1  0  0  0
 20  1  1  0  0  0
  1  2  2  0  0  0
  2  3  1  0  0  0
  3  4  2  0  0  0
  4  7  1  0  0  0
  7  8  1  0  0  0
  8  9  2  0  0  0
  8 10  1  0  0  0
 10 13  1  0  0  0
 13 14  2  0  0  0
 14 15  1  0  0  0
 15 16  2  0  0  0
 16 17  1  0  0  0
 17 18  1  0  0  0
 17 19  2  0  0  0
  4  5  1  0  0  0
  5  6  2  0  0  0
 27 28  2  0  0  0
 28 29  1  0  0  0
 29 30  2  0  0  0
 30 33  1  0  0  0
 33 34  1  0  0  0
 30 21  1  0  0  0
 28 23  1  0  0  0
  6  1  1  0  0  0
 19 13  1  0  0  0
  7 11  1  0  0  0
 10 12  1  0  0  0
M  END
> <minimizedAffinity>
-6.87967

> <CNNscore>
0.0722828805

> <CNNaffinity>
5.5372409821

> <CNN_VS>
0.4002477229

> <CNNaffinity_variance>
0.0672231093

$$$$
[H]c1nc(C(=O)N([H])[H])c(N([H])c2c([H])c([H])c(C3([H])C([H])([H])C([H])([H])N(C4([H])C([H])([H])C([H])([H])C([H])([H])C4([H])[H])C([H])([H])C3([H])[H])c([H])c2[H])nc1N1C([H])([H])C([H])([H])C([H])([H])[C@@]([H])(N([H])C(=O)N(C([H])([H])[H])C([H])([H])[H])C1([H])[H]


 43 47  0  0  0  0  0  0  0  0999 V2000
  -86.4939   29.6556   -0.2651 C   0  0  0  0  0  0  0  0  0  0  0  0
  -85.1917   29.3360    0.1005 C   0  0  0  0  0  0  0  0  0  0  0  0
  -84.2374   30.2577    0.1754 N   0  0  0  0  0  0  0  0  0  0  0  0
  -84.4631   31.5823   -0.0998 C   0  0  0  0  0  0  0  0  0  0  0  0
  -85.7465   31.9169   -0.4641 C   0  0  0  0  0  0  0  0  0  0  0  0
  -86.7054   30.9477   -0.5315 N   0  0  0  0  0  0  0  0  0  0  0  0
  -88.6416   27.2469    1.2702 C   0  0  0  0  0  0  0  0  0  0  0  0
  -89.6315   28.3519    1.0267 C   0  0  0  0  0  0  0  0  0  0  0  0
  -89.9306   28.4403   -0.4531 C   0  0  0  0  0  0  0  0  0  0  0  0
  -88.6885   28.9663   -1.1837 C   0  0  0  0  0  0  0  0  0  0  0  0
  -87.5061   28.6735   -0.3611 N   0  0  0  0  0  0  0  0  0  0  0  0
  -87.4980   27.3863    0.2663 C   0  0  0  0  0  0  0  0  0  0  0  0
  -90.2954   23.3851    0.5955 C   0  0  0  0  0  0  0  0  0  0  0  0
  -90.5210   24.0069    1.8819 N   0  0  0  0  0  0  0  0  0  0  0  0
  -91.2935   23.2793    2.8682 C   0  0  0  0  0  0  0  0  0  0  0  0
  -89.9802   25.2919    2.1226 C   0  0  0  0  0  0  0  0  0  0  0  0
  -90.1601   25.8552    3.2122 O   0  0  0  0  0  0  0  0  0  0  0  0
  -89.2281   25.9377    1.1127 N   0  0  0  0  0  0  0  0  0  0  0  0
  -89.0726   25.4631    0.1931 H   0  0  0  0  0  0  0  0  0  0  0  0
  -83.3666   32.5140    0.0327 C   0  0  0  0  0  0  0  0  0  0  0  0
  -82.2191   32.0537    0.7848 N   0  0  0  0  0  0  0  0  0  0  0  0
  -83.3063   33.6601   -0.4283 O   0  0  0  0  0  0  0  0  0  0  0  0
  -81.8182   31.1107    0.6815 H   0  0  0  0  0  0  0  0  0  0  0  0
  -81.8026   32.7220    1.4493 H   0  0  0  0  0  0  0  0  0  0  0  0
  -86.0871   33.2357   -0.8332 N   0  0  0  0  0  0  0  0  0  0  0  0
  -85.5941   34.0403   -0.4132 H   0  0  0  0  0  0  0  0  0  0  0  0
  -87.0904   33.5598   -1.7876 C   0  0  0  0  0  0  0  0  0  0  0  0
  -88.4283   33.3234   -1.6346 C   0  0  0  0  0  0  0  0  0  0  0  0
  -89.3823   33.6211   -2.6180 C   0  0  0  0  0  0  0  0  0  0  0  0
  -88.9360   34.1792   -3.7880 C   0  0  0  0  0  0  0  0  0  0  0  0
  -87.5899   34.4172   -3.9392 C   0  0  0  0  0  0  0  0  0  0  0  0
  -86.6519   34.1350   -2.9982 C   0  0  0  0  0  0  0  0  0  0  0  0
  -89.8460   34.5336   -4.9085 C   0  0  0  0  0  0  0  0  0  0  0  0
  -90.8563   35.5146   -4.3958 C   0  0  0  0  0  0  0  0  0  0  0  0
  -90.8487   36.7791   -5.1991 C   0  0  0  0  0  0  0  0  0  0  0  0
  -90.8576   36.4753   -6.5805 N   0  0  0  0  0  0  0  0  0  0  0  0
  -89.7823   35.7200   -7.1108 C   0  0  0  0  0  0  0  0  0  0  0  0
  -88.9779   35.1233   -6.0017 C   0  0  0  0  0  0  0  0  0  0  0  0
  -91.4454   37.4337   -7.4436 C   0  0  0  0  0  0  0  0  0  0  0  0
  -90.8053   38.8004   -7.3249 C   0  0  0  0  0  0  0  0  0  0  0  0
  -91.8218   39.7173   -6.7290 C   0  0  0  0  0  0  0  0  0  0  0  0
  -93.1668   39.0403   -6.8502 C   0  0  0  0  0  0  0  0  0  0  0  0
  -92.9068   37.5937   -7.1843 C   0  0  0  0  0  0  0  0  0  0  0  0
 13 14  1  0  0  0
 14 15  1  0  0  0
 14 16  1  0  0  0
 16 17  2  0  0  0
 16 18  1  0  0  0
 18  7  1  0  0  0
  7  8  1  0  0  0
  8  9  1  0  0  0
  9 10  1  0  0  0
 10 11  1  0  0  0
 11 12  1  0  0  0
 11  1  1  0  0  0
  1  2  2  0  0  0
  2  3  1  0  0  0
  3  4  2  0  0  0
  4 20  1  0  0  0
 20 21  1  0  0  0
 20 22  2  0  0  0
  4  5  1  0  0  0
  5 25  1  0  0  0
 25 27  1  0  0  0
 27 28  2  0  0  0
 28 29  1  0  0  0
 29 30  2  0  0  0
 30 31  1  0  0  0
 31 32  2  0  0  0
 30 33  1  0  0  0
 33 34  1  0  0  0
 34 35  1  0  0  0
 35 36  1  0  0  0
 36 37  1  0  0  0
 37 38  1  0  0  0
 36 39  1  0  0  0
 39 40  1  0  0  0
 40 41  1  0  0  0
 41 42  1  0  0  0
 42 43  1  0  0  0
  5  6  2  0  0  0
 12  7  1  0  0  0
  6  1  1  0  0  0
 32 27  1  0  0  0
 38 33  1  0  0  0
 43 39  1  0  0  0
 18 19  1  0  0  0
 21 23  1  0  0  0
 21 24  1  0  0  0
 25 26  1  0  0  0
M  END
> <minimizedAffinity>
-8.19541

> <CNNscore>
0.7259616256

> <CNNaffinity>
7.5712556839

> <CNN_VS>
5.4964408875

> <CNNaffinity_variance>
0.0182348248

$$$$
[H]c1nc(C(=O)N([H])[H])c(N([H])c2c([H])c([H])c(C3([H])C([H])([H])C([H])([H])N(C4([H])C([H])([H])C([H])([H])C([H])([H])C4([H])[H])C([H])([H])C3([H])[H])c([H])c2[H])nc1N1C([H])([H])C([H])([H])C([H])([H])[C@@]([H])(N([H])C(=O)N(C([H])([H])[H])C([H])([H])[H])C1([H])[H]


 43 47  0  0  0  0  0  0  0  0999 V2000
  -86.5235   32.9675   -1.3464 C   0  0  0  0  0  0  0  0  0  0  0  0
  -85.2404   33.4919   -1.4485 C   0  0  0  0  0  0  0  0  0  0  0  0
  -84.2215   32.9941   -0.7558 N   0  0  0  0  0  0  0  0  0  0  0  0
  -84.3574   31.9345    0.1044 C   0  0  0  0  0  0  0  0  0  0  0  0
  -85.6208   31.4029    0.2187 C   0  0  0  0  0  0  0  0  0  0  0  0
  -86.6474   31.9358   -0.5065 N   0  0  0  0  0  0  0  0  0  0  0  0
  -87.9416   34.1387   -4.4106 C   0  0  0  0  0  0  0  0  0  0  0  0
  -88.6147   32.7978   -4.3148 C   0  0  0  0  0  0  0  0  0  0  0  0
  -89.6547   32.8358   -3.2176 C   0  0  0  0  0  0  0  0  0  0  0  0
  -88.9462   32.9280   -1.8600 C   0  0  0  0  0  0  0  0  0  0  0  0
  -87.6115   33.5065   -2.0702 N   0  0  0  0  0  0  0  0  0  0  0  0
  -87.5523   34.5908   -3.0038 C   0  0  0  0  0  0  0  0  0  0  0  0
  -90.6337   37.0291   -5.9923 C   0  0  0  0  0  0  0  0  0  0  0  0
  -89.2908   36.9848   -6.5279 N   0  0  0  0  0  0  0  0  0  0  0  0
  -88.9373   37.9281   -7.5691 C   0  0  0  0  0  0  0  0  0  0  0  0
  -88.3830   36.0284   -6.0151 C   0  0  0  0  0  0  0  0  0  0  0  0
  -87.2266   35.9601   -6.4563 O   0  0  0  0  0  0  0  0  0  0  0  0
  -88.7983   35.1447   -4.9907 N   0  0  0  0  0  0  0  0  0  0  0  0
  -89.7733   35.2023   -4.6147 H   0  0  0  0  0  0  0  0  0  0  0  0
  -83.1852   31.4485    0.7956 C   0  0  0  0  0  0  0  0  0  0  0  0
  -81.9568   32.1798    0.5707 N   0  0  0  0  0  0  0  0  0  0  0  0
  -83.1222   30.4761    1.5572 O   0  0  0  0  0  0  0  0  0  0  0  0
  -81.9074   33.2084    0.5551 H   0  0  0  0  0  0  0  0  0  0  0  0
  -81.1052   31.6196    0.4212 H   0  0  0  0  0  0  0  0  0  0  0  0
  -85.8994   30.3528    1.1193 N   0  0  0  0  0  0  0  0  0  0  0  0
  -85.6386   30.4351    2.1153 H   0  0  0  0  0  0  0  0  0  0  0  0
  -86.5494   29.1424    0.7522 C   0  0  0  0  0  0  0  0  0  0  0  0
  -86.7710   28.7257   -0.5310 C   0  0  0  0  0  0  0  0  0  0  0  0
  -87.4530   27.5434   -0.8518 C   0  0  0  0  0  0  0  0  0  0  0  0
  -87.9148   26.7747    0.1852 C   0  0  0  0  0  0  0  0  0  0  0  0
  -87.6897   27.1954    1.4752 C   0  0  0  0  0  0  0  0  0  0  0  0
  -87.0319   28.3372    1.8045 C   0  0  0  0  0  0  0  0  0  0  0  0
  -88.6577   25.5044   -0.0239 C   0  0  0  0  0  0  0  0  0  0  0  0
  -89.8895   25.5392    0.8289 C   0  0  0  0  0  0  0  0  0  0  0  0
  -91.1284   25.3426    0.0100 C   0  0  0  0  0  0  0  0  0  0  0  0
  -90.9588   24.2480   -0.8697 N   0  0  0  0  0  0  0  0  0  0  0  0
  -89.9154   24.3087   -1.8266 C   0  0  0  0  0  0  0  0  0  0  0  0
  -88.9854   25.4324   -1.5017 C   0  0  0  0  0  0  0  0  0  0  0  0
  -92.1290   23.5454   -1.2515 C   0  0  0  0  0  0  0  0  0  0  0  0
  -92.0865   23.0728   -2.6891 C   0  0  0  0  0  0  0  0  0  0  0  0
  -93.1239   23.8400   -3.4403 C   0  0  0  0  0  0  0  0  0  0  0  0
  -94.0449   24.4703   -2.4223 C   0  0  0  0  0  0  0  0  0  0  0  0
  -93.3571   24.3777   -1.0844 C   0  0  0  0  0  0  0  0  0  0  0  0
 13 14  1  0  0  0
 14 15  1  0  0  0
 14 16  1  0  0  0
 16 17  2  0  0  0
 16 18  1  0  0  0
 18  7  1  0  0  0
  7  8  1  0  0  0
  8  9  1  0  0  0
  9 10  1  0  0  0
 10 11  1  0  0  0
 11 12  1  0  0  0
 11  1  1  0  0  0
  1  2  2  0  0  0
  2  3  1  0  0  0
  3  4  2  0  0  0
  4 20  1  0  0  0
 20 21  1  0  0  0
 20 22  2  0  0  0
  4  5  1  0  0  0
  5 25  1  0  0  0
 25 27  1  0  0  0
 27 28  2  0  0  0
 28 29  1  0  0  0
 29 30  2  0  0  0
 30 31  1  0  0  0
 31 32  2  0  0  0
 30 33  1  0  0  0
 33 34  1  0  0  0
 34 35  1  0  0  0
 35 36  1  0  0  0
 36 37  1  0  0  0
 37 38  1  0  0  0
 36 39  1  0  0  0
 39 40  1  0  0  0
 40 41  1  0  0  0
 41 42  1  0  0  0
 42 43  1  0  0  0
  5  6  2  0  0  0
 12  7  1  0  0  0
  6  1  1  0  0  0
 32 27  1  0  0  0
 38 33  1  0  0  0
 43 39  1  0  0  0
 18 19  1  0  0  0
 21 23  1  0  0  0
 21 24  1  0  0  0
 25 26  1  0  0  0
M  END
> <minimizedAffinity>
-9.14518

> <CNNscore>
0.6018142104

> <CNNaffinity>
7.6363306046

> <CNN_VS>
4.5956521034

> <CNNaffinity_variance>
0.0105689485

$$$$
[H]c1nc(C(=O)N([H])[H])c(N([H])c2c([H])c([H])c(C3([H])C([H])([H])C([H])([H])N(C4([H])C([H])([H])C([H])([H])C([H])([H])C4([H])[H])C([H])([H])C3([H])[H])c([H])c2[H])nc1N1C([H])([H])C([H])([H])C([H])([H])[C@@]([H])(N([H])C(=O)N(C([H])([H])[H])C([H])([H])[H])C1([H])[H]


 43 47  0  0  0  0  0  0  0  0999 V2000
  -86.6861   29.5647   -0.0645 C   0  0  0  0  0  0  0  0  0  0  0  0
  -85.3757   29.2131    0.2369 C   0  0  0  0  0  0  0  0  0  0  0  0
  -84.3999   30.1140    0.2825 N   0  0  0  0  0  0  0  0  0  0  0  0
  -84.6101   31.4471    0.0380 C   0  0  0  0  0  0  0  0  0  0  0  0
  -85.9013   31.8134   -0.2626 C   0  0  0  0  0  0  0  0  0  0  0  0
  -86.8823   30.8649   -0.3012 N   0  0  0  0  0  0  0  0  0  0  0  0
  -89.3391   27.7462    1.4933 C   0  0  0  0  0  0  0  0  0  0  0  0
  -90.1427   28.7302    0.6895 C   0  0  0  0  0  0  0  0  0  0  0  0
  -90.0598   28.3671   -0.7762 C   0  0  0  0  0  0  0  0  0  0  0  0
  -88.6366   28.6403   -1.2794 C   0  0  0  0  0  0  0  0  0  0  0  0
  -87.7218   28.6050   -0.1295 N   0  0  0  0  0  0  0  0  0  0  0  0
  -87.9760   27.5687    0.8257 C   0  0  0  0  0  0  0  0  0  0  0  0
  -91.3241   23.9832    1.5522 C   0  0  0  0  0  0  0  0  0  0  0  0
  -90.4502   24.3092    2.6578 N   0  0  0  0  0  0  0  0  0  0  0  0
  -90.2975   23.3359    3.7200 C   0  0  0  0  0  0  0  0  0  0  0  0
  -89.7839   25.5573    2.6555 C   0  0  0  0  0  0  0  0  0  0  0  0
  -89.0326   25.8699    3.5907 O   0  0  0  0  0  0  0  0  0  0  0  0
  -89.9759   26.4539    1.5777 N   0  0  0  0  0  0  0  0  0  0  0  0
  -90.6075   26.1910    0.7857 H   0  0  0  0  0  0  0  0  0  0  0  0
  -83.4895   32.3543    0.1349 C   0  0  0  0  0  0  0  0  0  0  0  0
  -82.3636   31.9033    0.9244 N   0  0  0  0  0  0  0  0  0  0  0  0
  -83.3922   33.4723   -0.3850 O   0  0  0  0  0  0  0  0  0  0  0  0
  -81.9881   30.9456    0.8758 H   0  0  0  0  0  0  0  0  0  0  0  0
  -81.9360   32.5942    1.5579 H   0  0  0  0  0  0  0  0  0  0  0  0
  -86.2306   33.1446   -0.5957 N   0  0  0  0  0  0  0  0  0  0  0  0
  -85.8540   33.9308   -0.0417 H   0  0  0  0  0  0  0  0  0  0  0  0
  -87.0662   33.5071   -1.6878 C   0  0  0  0  0  0  0  0  0  0  0  0
  -88.4224   33.3392   -1.7311 C   0  0  0  0  0  0  0  0  0  0  0  0
  -89.2064   33.6725   -2.8447 C   0  0  0  0  0  0  0  0  0  0  0  0
  -88.5666   34.1941   -3.9393 C   0  0  0  0  0  0  0  0  0  0  0  0
  -87.2024   34.3631   -3.8930 C   0  0  0  0  0  0  0  0  0  0  0  0
  -86.4272   34.0456   -2.8238 C   0  0  0  0  0  0  0  0  0  0  0  0
  -89.2843   34.5803   -5.1823 C   0  0  0  0  0  0  0  0  0  0  0  0
  -89.9012   33.3459   -5.7667 C   0  0  0  0  0  0  0  0  0  0  0  0
  -91.3805   33.5034   -5.9428 C   0  0  0  0  0  0  0  0  0  0  0  0
  -91.6655   34.7449   -6.5577 N   0  0  0  0  0  0  0  0  0  0  0  0
  -91.2657   35.9321   -5.8951 C   0  0  0  0  0  0  0  0  0  0  0  0
  -90.3249   35.6061   -4.7807 C   0  0  0  0  0  0  0  0  0  0  0  0
  -92.8502   34.8195   -7.3321 C   0  0  0  0  0  0  0  0  0  0  0  0
  -94.0789   34.3734   -6.5686 C   0  0  0  0  0  0  0  0  0  0  0  0
  -94.5587   33.1076   -7.1985 C   0  0  0  0  0  0  0  0  0  0  0  0
  -93.8911   32.9939   -8.5488 C   0  0  0  0  0  0  0  0  0  0  0  0
  -92.7593   33.9891   -8.5693 C   0  0  0  0  0  0  0  0  0  0  0  0
 13 14  1  0  0  0
 14 15  1  0  0  0
 14 16  1  0  0  0
 16 17  2  0  0  0
 16 18  1  0  0  0
 18  7  1  0  0  0
  7  8  1  0  0  0
  8  9  1  0  0  0
  9 10  1  0  0  0
 10 11  1  0  0  0
 11 12  1  0  0  0
 11  1  1  0  0  0
  1  2  2  0  0  0
  2  3  1  0  0  0
  3  4  2  0  0  0
  4 20  1  0  0  0
 20 21  1  0  0  0
 20 22  2  0  0  0
  4  5  1  0  0  0
  5 25  1  0  0  0
 25 27  1  0  0  0
 27 28  2  0  0  0
 28 29  1  0  0  0
 29 30  2  0  0  0
 30 31  1  0  0  0
 31 32  2  0  0  0
 30 33  1  0  0  0
 33 34  1  0  0  0
 34 35  1  0  0  0
 35 36  1  0  0  0
 36 37  1  0  0  0
 37 38  1  0  0  0
 36 39  1  0  0  0
 39 40  1  0  0  0
 40 41  1  0  0  0
 41 42  1  0  0  0
 42 43  1  0  0  0
  5  6  2  0  0  0
 12  7  1  0  0  0
  6  1  1  0  0  0
 32 27  1  0  0  0
 38 33  1  0  0  0
 43 39  1  0  0  0
 18 19  1  0  0  0
 21 23  1  0  0  0
 21 24  1  0  0  0
 25 26  1  0  0  0
M  END
> <minimizedAffinity>
-8.75295

> <CNNscore>
0.5442353487

> <CNNaffinity>
7.4654493332

> <CNN_VS>
4.0629615784

> <CNNaffinity_variance>
0.0118294889

$$$$
[H]c1nc(C(=O)N([H])[H])c(N([H])c2c([H])c([H])c(C3([H])C([H])([H])C([H])([H])N(C4([H])C([H])([H])C([H])([H])C([H])([H])C4([H])[H])C([H])([H])C3([H])[H])c([H])c2[H])nc1N1C([H])([H])C([H])([H])C([H])([H])[C@@]([H])(N([H])C(=O)N(C([H])([H])[H])C([H])([H])[H])C1([H])[H]


 43 47  0  0  0  0  0  0  0  0999 V2000
  -86.5835   29.6236    0.3244 C   0  0  0  0  0  0  0  0  0  0  0  0
  -85.2281   29.3365    0.4355 C   0  0  0  0  0  0  0  0  0  0  0  0
  -84.2979   30.2744    0.2917 N   0  0  0  0  0  0  0  0  0  0  0  0
  -84.6018   31.5851    0.0253 C   0  0  0  0  0  0  0  0  0  0  0  0
  -85.9388   31.8876   -0.0887 C   0  0  0  0  0  0  0  0  0  0  0  0
  -86.8710   30.9023    0.0649 N   0  0  0  0  0  0  0  0  0  0  0  0
  -88.4069   26.8543   -1.0088 C   0  0  0  0  0  0  0  0  0  0  0  0
  -87.4804   26.1240   -0.0769 C   0  0  0  0  0  0  0  0  0  0  0  0
  -87.9028   26.3794    1.3525 C   0  0  0  0  0  0  0  0  0  0  0  0
  -87.6120   27.8435    1.7059 C   0  0  0  0  0  0  0  0  0  0  0  0
  -87.5733   28.6238    0.4609 N   0  0  0  0  0  0  0  0  0  0  0  0
  -88.5749   28.2874   -0.5058 C   0  0  0  0  0  0  0  0  0  0  0  0
  -92.2286   24.9838   -1.0065 C   0  0  0  0  0  0  0  0  0  0  0  0
  -91.7657   25.5848   -2.2380 N   0  0  0  0  0  0  0  0  0  0  0  0
  -92.6296   25.5192   -3.3992 C   0  0  0  0  0  0  0  0  0  0  0  0
  -90.4962   26.2091   -2.2574 C   0  0  0  0  0  0  0  0  0  0  0  0
  -90.0673   26.7285   -3.2981 O   0  0  0  0  0  0  0  0  0  0  0  0
  -89.7115   26.2415   -1.0801 N   0  0  0  0  0  0  0  0  0  0  0  0
  -90.0726   25.8061   -0.1996 H   0  0  0  0  0  0  0  0  0  0  0  0
  -83.5210   32.5372   -0.0905 C   0  0  0  0  0  0  0  0  0  0  0  0
  -82.3005   32.2134    0.6164 N   0  0  0  0  0  0  0  0  0  0  0  0
  -83.5299   33.5965   -0.7289 O   0  0  0  0  0  0  0  0  0  0  0  0
  -81.8873   31.2701    0.6258 H   0  0  0  0  0  0  0  0  0  0  0  0
  -81.8433   32.9826    1.1272 H   0  0  0  0  0  0  0  0  0  0  0  0
  -86.3737   33.1875   -0.4242 N   0  0  0  0  0  0  0  0  0  0  0  0
  -86.1302   33.9918    0.1764 H   0  0  0  0  0  0  0  0  0  0  0  0
  -87.1440   33.4943   -1.5795 C   0  0  0  0  0  0  0  0  0  0  0  0
  -88.4942   33.3131   -1.6965 C   0  0  0  0  0  0  0  0  0  0  0  0
  -89.2116   33.5902   -2.8689 C   0  0  0  0  0  0  0  0  0  0  0  0
  -88.5099   34.0684   -3.9453 C   0  0  0  0  0  0  0  0  0  0  0  0
  -87.1520   34.2509   -3.8248 C   0  0  0  0  0  0  0  0  0  0  0  0
  -86.4409   33.9875   -2.6980 C   0  0  0  0  0  0  0  0  0  0  0  0
  -89.1536   34.3932   -5.2450 C   0  0  0  0  0  0  0  0  0  0  0  0
  -90.5767   34.7788   -4.9767 C   0  0  0  0  0  0  0  0  0  0  0  0
  -90.8857   36.1422   -5.5150 C   0  0  0  0  0  0  0  0  0  0  0  0
  -90.4022   36.2611   -6.8390 N   0  0  0  0  0  0  0  0  0  0  0  0
  -89.0120   36.1048   -7.0649 C   0  0  0  0  0  0  0  0  0  0  0  0
  -88.3561   35.5303   -5.8512 C   0  0  0  0  0  0  0  0  0  0  0  0
  -91.0855   37.1636   -7.6921 C   0  0  0  0  0  0  0  0  0  0  0  0
  -90.6327   37.0651   -9.1333 C   0  0  0  0  0  0  0  0  0  0  0  0
  -89.9353   38.3419   -9.4686 C   0  0  0  0  0  0  0  0  0  0  0  0
  -90.2981   39.3482   -8.4020 C   0  0  0  0  0  0  0  0  0  0  0  0
  -90.9095   38.5810   -7.2578 C   0  0  0  0  0  0  0  0  0  0  0  0
 13 14  1  0  0  0
 14 15  1  0  0  0
 14 16  1  0  0  0
 16 17  2  0  0  0
 16 18  1  0  0  0
 18  7  1  0  0  0
  7  8  1  0  0  0
  8  9  1  0  0  0
  9 10  1  0  0  0
 10 11  1  0  0  0
 11 12  1  0  0  0
 11  1  1  0  0  0
  1  2  2  0  0  0
  2  3  1  0  0  0
  3  4  2  0  0  0
  4 20  1  0  0  0
 20 21  1  0  0  0
 20 22  2  0  0  0
  4  5  1  0  0  0
  5 25  1  0  0  0
 25 27  1  0  0  0
 27 28  2  0  0  0
 28 29  1  0  0  0
 29 30  2  0  0  0
 30 31  1  0  0  0
 31 32  2  0  0  0
 30 33  1  0  0  0
 33 34  1  0  0  0
 34 35  1  0  0  0
 35 36  1  0  0  0
 36 37  1  0  0  0
 37 38  1  0  0  0
 36 39  1  0  0  0
 39 40  1  0  0  0
 40 41  1  0  0  0
 41 42  1  0  0  0
 42 43  1  0  0  0
  5  6  2  0  0  0
 12  7  1  0  0  0
  6  1  1  0  0  0
 32 27  1  0  0  0
 38 33  1  0  0  0
 43 39  1  0  0  0
 18 19  1  0  0  0
 21 23  1  0  0  0
 21 24  1  0  0  0
 25 26  1  0  0  0
M  END
> <minimizedAffinity>
-9.06954

> <CNNscore>
0.5341619253

> <CNNaffinity>
7.2636055946

> <CNN_VS>
3.8799414635

> <CNNaffinity_variance>
0.1418531388

$$$$
[H]c1nc(C(=O)N([H])[H])c(N([H])c2c([H])c([H])c(C3([H])C([H])([H])C([H])([H])N(C4([H])C([H])([H])C([H])([H])C([H])([H])C4([H])[H])C([H])([H])C3([H])[H])c([H])c2[H])nc1N1C([H])([H])C([H])([H])C([H])([H])[C@@]([H])(N([H])C(=O)N(C([H])([H])[H])C([H])([H])[H])C1([H])[H]


 43 47  0  0  0  0  0  0  0  0999 V2000
  -86.5297   29.6350    0.3289 C   0  0  0  0  0  0  0  0  0  0  0  0
  -85.1763   29.3420    0.4475 C   0  0  0  0  0  0  0  0  0  0  0  0
  -84.2410   30.2751    0.3044 N   0  0  0  0  0  0  0  0  0  0  0  0
  -84.5376   31.5861    0.0315 C   0  0  0  0  0  0  0  0  0  0  0  0
  -85.8726   31.8943   -0.0899 C   0  0  0  0  0  0  0  0  0  0  0  0
  -86.8101   30.9140    0.0631 N   0  0  0  0  0  0  0  0  0  0  0  0
  -88.3613   26.8703   -1.0031 C   0  0  0  0  0  0  0  0  0  0  0  0
  -87.4418   26.1384   -0.0655 C   0  0  0  0  0  0  0  0  0  0  0  0
  -87.8684   26.4001    1.3615 C   0  0  0  0  0  0  0  0  0  0  0  0
  -87.5719   27.8639    1.7117 C   0  0  0  0  0  0  0  0  0  0  0  0
  -87.5248   28.6403    0.4645 N   0  0  0  0  0  0  0  0  0  0  0  0
  -88.5243   28.3058   -0.5050 C   0  0  0  0  0  0  0  0  0  0  0  0
  -92.1911   25.0167   -1.0103 C   0  0  0  0  0  0  0  0  0  0  0  0
  -91.7246   25.6200   -2.2394 N   0  0  0  0  0  0  0  0  0  0  0  0
  -92.5879   25.5622   -3.4015 C   0  0  0  0  0  0  0  0  0  0  0  0
  -90.4523   26.2388   -2.2556 C   0  0  0  0  0  0  0  0  0  0  0  0
  -90.0204   26.7600   -3.2941 O   0  0  0  0  0  0  0  0  0  0  0  0
  -89.6685   26.2636   -1.0776 N   0  0  0  0  0  0  0  0  0  0  0  0
  -90.0322   25.8267   -0.1989 H   0  0  0  0  0  0  0  0  0  0  0  0
  -83.4519   32.5327   -0.0828 C   0  0  0  0  0  0  0  0  0  0  0  0
  -82.2093   32.1669    0.5625 N   0  0  0  0  0  0  0  0  0  0  0  0
  -83.4734   33.6195   -0.6729 O   0  0  0  0  0  0  0  0  0  0  0  0
  -81.8060   31.2204    0.5146 H   0  0  0  0  0  0  0  0  0  0  0  0
  -81.7252   32.9084    1.0891 H   0  0  0  0  0  0  0  0  0  0  0  0
  -86.2999   33.1949   -0.4324 N   0  0  0  0  0  0  0  0  0  0  0  0
  -86.0829   33.9957    0.1827 H   0  0  0  0  0  0  0  0  0  0  0  0
  -87.0268   33.5071   -1.6142 C   0  0  0  0  0  0  0  0  0  0  0  0
  -86.4783   33.9793   -2.7742 C   0  0  0  0  0  0  0  0  0  0  0  0
  -87.2354   34.3144   -3.9057 C   0  0  0  0  0  0  0  0  0  0  0  0
  -88.5949   34.1537   -3.8311 C   0  0  0  0  0  0  0  0  0  0  0  0
  -89.1442   33.6774   -2.6636 C   0  0  0  0  0  0  0  0  0  0  0  0
  -88.4269   33.3485   -1.5582 C   0  0  0  0  0  0  0  0  0  0  0  0
  -89.5064   34.4797   -4.9590 C   0  0  0  0  0  0  0  0  0  0  0  0
  -89.9783   33.1922   -5.5638 C   0  0  0  0  0  0  0  0  0  0  0  0
  -91.4738   33.1053   -5.5695 C   0  0  0  0  0  0  0  0  0  0  0  0
  -92.0271   34.3121   -6.0577 N   0  0  0  0  0  0  0  0  0  0  0  0
  -91.7511   35.5118   -5.3559 C   0  0  0  0  0  0  0  0  0  0  0  0
  -90.6459   35.2901   -4.3748 C   0  0  0  0  0  0  0  0  0  0  0  0
  -93.2906   34.2264   -6.6941 C   0  0  0  0  0  0  0  0  0  0  0  0
  -93.4864   32.9212   -7.4357 C   0  0  0  0  0  0  0  0  0  0  0  0
  -93.5351   33.2409   -8.8933 C   0  0  0  0  0  0  0  0  0  0  0  0
  -93.7660   34.7282   -9.0220 C   0  0  0  0  0  0  0  0  0  0  0  0
  -93.4987   35.3373   -7.6694 C   0  0  0  0  0  0  0  0  0  0  0  0
 13 14  1  0  0  0
 14 15  1  0  0  0
 14 16  1  0  0  0
 16 17  2  0  0  0
 16 18  1  0  0  0
 18  7  1  0  0  0
  7  8  1  0  0  0
  8  9  1  0  0  0
  9 10  1  0  0  0
 10 11  1  0  0  0
 11 12  1  0  0  0
 11  1  1  0  0  0
  1  2  2  0  0  0
  2  3  1  0  0  0
  3  4  2  0  0  0
  4 20  1  0  0  0
 20 21  1  0  0  0
 20 22  2  0  0  0
  4  5  1  0  0  0
  5 25  1  0  0  0
 25 27  1  0  0  0
 27 28  2  0  0  0
 28 29  1  0  0  0
 29 30  2  0  0  0
 30 31  1  0  0  0
 31 32  2  0  0  0
 30 33  1  0  0  0
 33 34  1  0  0  0
 34 35  1  0  0  0
 35 36  1  0  0  0
 36 37  1  0  0  0
 37 38  1  0  0  0
 36 39  1  0  0  0
 39 40  1  0  0  0
 40 41  1  0  0  0
 41 42  1  0  0  0
 42 43  1  0  0  0
  5  6  2  0  0  0
 12  7  1  0  0  0
  6  1  1  0  0  0
 32 27  1  0  0  0
 38 33  1  0  0  0
 43 39  1  0  0  0
 18 19  1  0  0  0
 21 23  1  0  0  0
 21 24  1  0  0  0
 25 26  1  0  0  0
M  END
> <minimizedAffinity>
-9.16945

> <CNNscore>
0.5111849904

> <CNNaffinity>
7.3884725571

> <CNN_VS>
3.7768762112

> <CNNaffinity_variance>
0.0978616923

$$$$
[H]c1nc(C(=O)N([H])[H])c(N([H])c2c([H])c([H])c(C3([H])C([H])([H])C([H])([H])N(C4([H])C([H])([H])C([H])([H])C([H])([H])C4([H])[H])C([H])([H])C3([H])[H])c([H])c2[H])nc1N1C([H])([H])C([H])([H])C([H])([H])[C@@]([H])(N([H])C(=O)N(C([H])([H])[H])C([H])([H])[H])C1([H])[H]


 43 47  0  0  0  0  0  0  0  0999 V2000
  -86.9209   32.6133   -1.6887 C   0  0  0  0  0  0  0  0  0  0  0  0
  -85.8320   33.4613   -1.5250 C   0  0  0  0  0  0  0  0  0  0  0  0
  -84.8512   33.1876   -0.6712 N   0  0  0  0  0  0  0  0  0  0  0  0
  -84.8391   32.0576    0.1060 C   0  0  0  0  0  0  0  0  0  0  0  0
  -85.9095   31.2067   -0.0423 C   0  0  0  0  0  0  0  0  0  0  0  0
  -86.9014   31.5150   -0.9281 N   0  0  0  0  0  0  0  0  0  0  0  0
  -89.0213   34.9913   -3.3334 C   0  0  0  0  0  0  0  0  0  0  0  0
  -88.0988   34.6396   -4.4672 C   0  0  0  0  0  0  0  0  0  0  0  0
  -88.4162   33.2448   -4.9580 C   0  0  0  0  0  0  0  0  0  0  0  0
  -87.9965   32.2301   -3.8868 C   0  0  0  0  0  0  0  0  0  0  0  0
  -87.9729   32.9113   -2.5845 N   0  0  0  0  0  0  0  0  0  0  0  0
  -89.0519   33.8230   -2.3489 C   0  0  0  0  0  0  0  0  0  0  0  0
  -93.0300   35.5197   -4.6582 C   0  0  0  0  0  0  0  0  0  0  0  0
  -92.2184   36.6999   -4.4572 N   0  0  0  0  0  0  0  0  0  0  0  0
  -92.8163   37.9942   -4.7147 C   0  0  0  0  0  0  0  0  0  0  0  0
  -90.8823   36.5426   -4.0190 C   0  0  0  0  0  0  0  0  0  0  0  0
  -90.1582   37.5333   -3.8427 O   0  0  0  0  0  0  0  0  0  0  0  0
  -90.3700   35.2454   -3.7796 N   0  0  0  0  0  0  0  0  0  0  0  0
  -90.9803   34.4077   -3.9251 H   0  0  0  0  0  0  0  0  0  0  0  0
  -83.7161   31.8354    0.9879 C   0  0  0  0  0  0  0  0  0  0  0  0
  -82.4536   32.4128    0.5793 N   0  0  0  0  0  0  0  0  0  0  0  0
  -83.7213   31.2056    2.0523 O   0  0  0  0  0  0  0  0  0  0  0  0
  -82.3666   33.3643    0.1948 H   0  0  0  0  0  0  0  0  0  0  0  0
  -81.6170   31.8215    0.6887 H   0  0  0  0  0  0  0  0  0  0  0  0
  -86.0418   30.0449    0.7478 N   0  0  0  0  0  0  0  0  0  0  0  0
  -85.6175   30.0011    1.6885 H   0  0  0  0  0  0  0  0  0  0  0  0
  -86.7537   28.8834    0.3400 C   0  0  0  0  0  0  0  0  0  0  0  0
  -86.7162   28.3362   -0.9124 C   0  0  0  0  0  0  0  0  0  0  0  0
  -87.4660   27.2120   -1.2865 C   0  0  0  0  0  0  0  0  0  0  0  0
  -88.2731   26.6415   -0.3364 C   0  0  0  0  0  0  0  0  0  0  0  0
  -88.3083   27.1930    0.9231 C   0  0  0  0  0  0  0  0  0  0  0  0
  -87.5898   28.2813    1.3029 C   0  0  0  0  0  0  0  0  0  0  0  0
  -89.1212   25.4521   -0.6105 C   0  0  0  0  0  0  0  0  0  0  0  0
  -90.0501   25.2647    0.5505 C   0  0  0  0  0  0  0  0  0  0  0  0
  -91.4822   25.2594    0.1109 C   0  0  0  0  0  0  0  0  0  0  0  0
  -91.6411   24.4137   -1.0117 N   0  0  0  0  0  0  0  0  0  0  0  0
  -90.9164   24.7169   -2.1911 C   0  0  0  0  0  0  0  0  0  0  0  0
  -89.8650   25.7381   -1.8994 C   0  0  0  0  0  0  0  0  0  0  0  0
  -92.9126   23.8121   -1.1861 C   0  0  0  0  0  0  0  0  0  0  0  0
  -93.7107   23.7450    0.0985 C   0  0  0  0  0  0  0  0  0  0  0  0
  -93.8363   22.3042    0.4693 C   0  0  0  0  0  0  0  0  0  0  0  0
  -93.4776   21.4907   -0.7520 C   0  0  0  0  0  0  0  0  0  0  0  0
  -92.8021   22.4239   -1.7239 C   0  0  0  0  0  0  0  0  0  0  0  0
 13 14  1  0  0  0
 14 15  1  0  0  0
 14 16  1  0  0  0
 16 17  2  0  0  0
 16 18  1  0  0  0
 18  7  1  0  0  0
  7  8  1  0  0  0
  8  9  1  0  0  0
  9 10  1  0  0  0
 10 11  1  0  0  0
 11 12  1  0  0  0
 11  1  1  0  0  0
  1  2  2  0  0  0
  2  3  1  0  0  0
  3  4  2  0  0  0
  4 20  1  0  0  0
 20 21  1  0  0  0
 20 22  2  0  0  0
  4  5  1  0  0  0
  5 25  1  0  0  0
 25 27  1  0  0  0
 27 28  2  0  0  0
 28 29  1  0  0  0
 29 30  2  0  0  0
 30 31  1  0  0  0
 31 32  2  0  0  0
 30 33  1  0  0  0
 33 34  1  0  0  0
 34 35  1  0  0  0
 35 36  1  0  0  0
 36 37  1  0  0  0
 37 38  1  0  0  0
 36 39  1  0  0  0
 39 40  1  0  0  0
 40 41  1  0  0  0
 41 42  1  0  0  0
 42 43  1  0  0  0
  5  6  2  0  0  0
 12  7  1  0  0  0
  6  1  1  0  0  0
 32 27  1  0  0  0
 38 33  1  0  0  0
 43 39  1  0  0  0
 18 19  1  0  0  0
 21 23  1  0  0  0
 21 24  1  0  0  0
 25 26  1  0  0  0
M  END
> <minimizedAffinity>
-8.49326

> <CNNscore>
0.2923683524

> <CNNaffinity>
7.2539620399

> <CNN_VS>
2.1208288670

> <CNNaffinity_variance>
0.0403888039

$$$$
[H]c1nc(C(=O)N([H])[H])c(N([H])c2c([H])c([H])c(C3([H])C([H])([H])C([H])([H])N(C4([H])C([H])([H])C([H])([H])C([H])([H])C4([H])[H])C([H])([H])C3([H])[H])c([H])c2[H])nc1N1C([H])([H])C([H])([H])C([H])([H])[C@@]([H])(N([H])C(=O)N(C([H])([H])[H])C([H])([H])[H])C1([H])[H]


 43 47  0  0  0  0  0  0  0  0999 V2000
  -86.9248   32.5408   -0.9977 C   0  0  0  0  0  0  0  0  0  0  0  0
  -85.9023   33.4470   -0.7429 C   0  0  0  0  0  0  0  0  0  0  0  0
  -84.7605   33.0752   -0.1737 N   0  0  0  0  0  0  0  0  0  0  0  0
  -84.5067   31.7808    0.2020 C   0  0  0  0  0  0  0  0  0  0  0  0
  -85.5081   30.8699   -0.0421 C   0  0  0  0  0  0  0  0  0  0  0  0
  -86.6697   31.2822   -0.6288 N   0  0  0  0  0  0  0  0  0  0  0  0
  -88.7766   33.7002   -3.8259 C   0  0  0  0  0  0  0  0  0  0  0  0
  -89.2005   32.2578   -3.8180 C   0  0  0  0  0  0  0  0  0  0  0  0
  -90.1349   32.0159   -2.6538 C   0  0  0  0  0  0  0  0  0  0  0  0
  -89.3400   32.1156   -1.3455 C   0  0  0  0  0  0  0  0  0  0  0  0
  -88.1462   32.9380   -1.5880 N   0  0  0  0  0  0  0  0  0  0  0  0
  -88.3522   34.0917   -2.4111 C   0  0  0  0  0  0  0  0  0  0  0  0
  -92.0251   36.2383   -4.8786 C   0  0  0  0  0  0  0  0  0  0  0  0
  -90.8810   36.1949   -5.7626 N   0  0  0  0  0  0  0  0  0  0  0  0
  -90.9040   37.0197   -6.9535 C   0  0  0  0  0  0  0  0  0  0  0  0
  -89.7928   35.3546   -5.4291 C   0  0  0  0  0  0  0  0  0  0  0  0
  -88.7996   35.2898   -6.1681 O   0  0  0  0  0  0  0  0  0  0  0  0
  -89.8385   34.5838   -4.2431 N   0  0  0  0  0  0  0  0  0  0  0  0
  -90.6747   34.6389   -3.6163 H   0  0  0  0  0  0  0  0  0  0  0  0
  -83.2251   31.4693    0.7922 C   0  0  0  0  0  0  0  0  0  0  0  0
  -82.1244   32.3380    0.4346 N   0  0  0  0  0  0  0  0  0  0  0  0
  -82.9714   30.5409    1.5691 O   0  0  0  0  0  0  0  0  0  0  0  0
  -82.2071   33.3635    0.3884 H   0  0  0  0  0  0  0  0  0  0  0  0
  -81.2256   31.8822    0.2202 H   0  0  0  0  0  0  0  0  0  0  0  0
  -85.3907   29.5216    0.3574 N   0  0  0  0  0  0  0  0  0  0  0  0
  -84.4707   29.1320    0.6196 H   0  0  0  0  0  0  0  0  0  0  0  0
  -86.4869   28.6198    0.4433 C   0  0  0  0  0  0  0  0  0  0  0  0
  -87.1333   28.0624   -0.6248 C   0  0  0  0  0  0  0  0  0  0  0  0
  -88.2381   27.2082   -0.4987 C   0  0  0  0  0  0  0  0  0  0  0  0
  -88.6813   26.9252    0.7674 C   0  0  0  0  0  0  0  0  0  0  0  0
  -88.0288   27.4863    1.8403 C   0  0  0  0  0  0  0  0  0  0  0  0
  -86.9581   28.3156    1.7371 C   0  0  0  0  0  0  0  0  0  0  0  0
  -89.8457   26.0404    1.0329 C   0  0  0  0  0  0  0  0  0  0  0  0
  -89.8670   24.9708   -0.0166 C   0  0  0  0  0  0  0  0  0  0  0  0
  -89.8404   23.6032    0.5943 C   0  0  0  0  0  0  0  0  0  0  0  0
  -90.7842   23.5237    1.6448 N   0  0  0  0  0  0  0  0  0  0  0  0
  -90.6388   24.4005    2.7485 C   0  0  0  0  0  0  0  0  0  0  0  0
  -89.6506   25.4738    2.4249 C   0  0  0  0  0  0  0  0  0  0  0  0
  -91.3321   22.2455    1.9186 C   0  0  0  0  0  0  0  0  0  0  0  0
  -90.4802   21.4341    2.8714 C   0  0  0  0  0  0  0  0  0  0  0  0
  -89.9281   20.2801    2.1017 C   0  0  0  0  0  0  0  0  0  0  0  0
  -90.7328   20.1597    0.8289 C   0  0  0  0  0  0  0  0  0  0  0  0
  -91.5134   21.4399    0.6749 C   0  0  0  0  0  0  0  0  0  0  0  0
 13 14  1  0  0  0
 14 15  1  0  0  0
 14 16  1  0  0  0
 16 17  2  0  0  0
 16 18  1  0  0  0
 18  7  1  0  0  0
  7  8  1  0  0  0
  8  9  1  0  0  0
  9 10  1  0  0  0
 10 11  1  0  0  0
 11 12  1  0  0  0
 11  1  1  0  0  0
  1  2  2  0  0  0
  2  3  1  0  0  0
  3  4  2  0  0  0
  4 20  1  0  0  0
 20 21  1  0  0  0
 20 22  2  0  0  0
  4  5  1  0  0  0
  5 25  1  0  0  0
 25 27  1  0  0  0
 27 28  2  0  0  0
 28 29  1  0  0  0
 29 30  2  0  0  0
 30 31  1  0  0  0
 31 32  2  0  0  0
 30 33  1  0  0  0
 33 34  1  0  0  0
 34 35  1  0  0  0
 35 36  1  0  0  0
 36 37  1  0  0  0
 37 38  1  0  0  0
 36 39  1  0  0  0
 39 40  1  0  0  0
 40 41  1  0  0  0
 41 42  1  0  0  0
 42 43  1  0  0  0
  5  6  2  0  0  0
 12  7  1  0  0  0
  6  1  1  0  0  0
 32 27  1  0  0  0
 38 33  1  0  0  0
 43 39  1  0  0  0
 18 19  1  0  0  0
 21 23  1  0  0  0
 21 24  1  0  0  0
 25 26  1  0  0  0
M  END
> <minimizedAffinity>
-8.50470

> <CNNscore>
0.2888119221

> <CNNaffinity>
7.2472143173

> <CNN_VS>
2.0930819511

> <CNNaffinity_variance>
0.0785245374

$$$$
[H]c1nc(C(=O)N([H])[H])c(N([H])c2c([H])c([H])c(C3([H])C([H])([H])C([H])([H])N(C4([H])C([H])([H])C([H])([H])C([H])([H])C4([H])[H])C([H])([H])C3([H])[H])c([H])c2[H])nc1N1C([H])([H])C([H])([H])C([H])([H])[C@@]([H])(N([H])C(=O)N(C([H])([H])[H])C([H])([H])[H])C1([H])[H]


 43 47  0  0  0  0  0  0  0  0999 V2000
  -87.3665   27.5493    1.2052 C   0  0  0  0  0  0  0  0  0  0  0  0
  -86.5477   26.6481    1.8752 C   0  0  0  0  0  0  0  0  0  0  0  0
  -85.2913   26.9427    2.1922 N   0  0  0  0  0  0  0  0  0  0  0  0
  -84.7125   28.1476    1.8852 C   0  0  0  0  0  0  0  0  0  0  0  0
  -85.5082   29.0521    1.2213 C   0  0  0  0  0  0  0  0  0  0  0  0
  -86.7953   28.7205    0.9099 N   0  0  0  0  0  0  0  0  0  0  0  0
  -90.1314   25.2852    1.2333 C   0  0  0  0  0  0  0  0  0  0  0  0
  -90.5962   26.2673    2.2724 C   0  0  0  0  0  0  0  0  0  0  0  0
  -90.9954   27.5604    1.5973 C   0  0  0  0  0  0  0  0  0  0  0  0
  -89.7374   28.2505    1.0549 C   0  0  0  0  0  0  0  0  0  0  0  0
  -88.6979   27.2311    0.8529 N   0  0  0  0  0  0  0  0  0  0  0  0
  -89.1527   25.9923    0.2967 C   0  0  0  0  0  0  0  0  0  0  0  0
  -93.2726   23.8734   -1.2653 C   0  0  0  0  0  0  0  0  0  0  0  0
  -93.2229   23.3980    0.0999 N   0  0  0  0  0  0  0  0  0  0  0  0
  -94.2422   22.4664    0.5383 C   0  0  0  0  0  0  0  0  0  0  0  0
  -92.1864   23.8590    0.9454 C   0  0  0  0  0  0  0  0  0  0  0  0
  -92.1186   23.4756    2.1224 O   0  0  0  0  0  0  0  0  0  0  0  0
  -91.2203   24.7629    0.4433 N   0  0  0  0  0  0  0  0  0  0  0  0
  -91.2739   25.0858   -0.5507 H   0  0  0  0  0  0  0  0  0  0  0  0
  -83.3466   28.3840    2.2930 C   0  0  0  0  0  0  0  0  0  0  0  0
  -82.6928   27.3073    3.0055 N   0  0  0  0  0  0  0  0  0  0  0  0
  -82.6797   29.4071    2.0971 O   0  0  0  0  0  0  0  0  0  0  0  0
  -82.7703   26.3185    2.7281 H   0  0  0  0  0  0  0  0  0  0  0  0
  -82.1290   27.5707    3.8266 H   0  0  0  0  0  0  0  0  0  0  0  0
  -85.0066   30.3004    0.7950 N   0  0  0  0  0  0  0  0  0  0  0  0
  -84.0294   30.5677    0.9962 H   0  0  0  0  0  0  0  0  0  0  0  0
  -85.7682   31.2567    0.0684 C   0  0  0  0  0  0  0  0  0  0  0  0
  -87.0553   31.0790   -0.3572 C   0  0  0  0  0  0  0  0  0  0  0  0
  -87.7587   32.0319   -1.1077 C   0  0  0  0  0  0  0  0  0  0  0  0
  -87.1101   33.1979   -1.4224 C   0  0  0  0  0  0  0  0  0  0  0  0
  -85.8158   33.3749   -0.9922 C   0  0  0  0  0  0  0  0  0  0  0  0
  -85.1190   32.4633   -0.2653 C   0  0  0  0  0  0  0  0  0  0  0  0
  -87.7443   34.2816   -2.2178 C   0  0  0  0  0  0  0  0  0  0  0  0
  -86.8966   34.5279   -3.4289 C   0  0  0  0  0  0  0  0  0  0  0  0
  -87.6879   34.3756   -4.6917 C   0  0  0  0  0  0  0  0  0  0  0  0
  -88.9125   35.0752   -4.5831 N   0  0  0  0  0  0  0  0  0  0  0  0
  -89.8157   34.6967   -3.5589 C   0  0  0  0  0  0  0  0  0  0  0  0
  -89.1338   33.7970   -2.5797 C   0  0  0  0  0  0  0  0  0  0  0  0
  -89.4850   35.5557   -5.7874 C   0  0  0  0  0  0  0  0  0  0  0  0
  -88.4528   36.1034   -6.7498 C   0  0  0  0  0  0  0  0  0  0  0  0
  -88.6787   37.5756   -6.8537 C   0  0  0  0  0  0  0  0  0  0  0  0
  -90.0510   37.8628   -6.2912 C   0  0  0  0  0  0  0  0  0  0  0  0
  -90.4869   36.6335   -5.5358 C   0  0  0  0  0  0  0  0  0  0  0  0
 13 14  1  0  0  0
 14 15  1  0  0  0
 14 16  1  0  0  0
 16 17  2  0  0  0
 16 18  1  0  0  0
 18  7  1  0  0  0
  7  8  1  0  0  0
  8  9  1  0  0  0
  9 10  1  0  0  0
 10 11  1  0  0  0
 11 12  1  0  0  0
 11  1  1  0  0  0
  1  2  2  0  0  0
  2  3  1  0  0  0
  3  4  2  0  0  0
  4 20  1  0  0  0
 20 21  1  0  0  0
 20 22  2  0  0  0
  4  5  1  0  0  0
  5 25  1  0  0  0
 25 27  1  0  0  0
 27 28  2  0  0  0
 28 29  1  0  0  0
 29 30  2  0  0  0
 30 31  1  0  0  0
 31 32  2  0  0  0
 30 33  1  0  0  0
 33 34  1  0  0  0
 34 35  1  0  0  0
 35 36  1  0  0  0
 36 37  1  0  0  0
 37 38  1  0  0  0
 36 39  1  0  0  0
 39 40  1  0  0  0
 40 41  1  0  0  0
 41 42  1  0  0  0
 42 43  1  0  0  0
  5  6  2  0  0  0
 12  7  1  0  0  0
  6  1  1  0  0  0
 32 27  1  0  0  0
 38 33  1  0  0  0
 43 39  1  0  0  0
 18 19  1  0  0  0
 21 23  1  0  0  0
 21 24  1  0  0  0
 25 26  1  0  0  0
M  END
> <minimizedAffinity>
-9.89234

> <CNNscore>
0.2372013927

> <CNNaffinity>
7.1284623146

> <CNN_VS>
1.6908811331

> <CNNaffinity_variance>
0.0308739487

$$$$
[H]c1nc(C(=O)N([H])[H])c(N([H])c2c([H])c([H])c(C3([H])C([H])([H])C([H])([H])N(C4([H])C([H])([H])C([H])([H])C([H])([H])C4([H])[H])C([H])([H])C3([H])[H])c([H])c2[H])nc1N1C([H])([H])C([H])([H])C([H])([H])[C@@]([H])(N([H])C(=O)N(C([H])([H])[H])C([H])([H])[H])C1([H])[H]


 43 47  0  0  0  0  0  0  0  0999 V2000
  -87.5153   28.6063    0.5109 C   0  0  0  0  0  0  0  0  0  0  0  0
  -86.5075   27.8337    1.0758 C   0  0  0  0  0  0  0  0  0  0  0  0
  -85.3314   28.3519    1.4134 N   0  0  0  0  0  0  0  0  0  0  0  0
  -85.0256   29.6766    1.2318 C   0  0  0  0  0  0  0  0  0  0  0  0
  -86.0112   30.4565    0.6731 C   0  0  0  0  0  0  0  0  0  0  0  0
  -87.2094   29.8953    0.3373 N   0  0  0  0  0  0  0  0  0  0  0  0
  -90.3335   26.5286    1.2266 C   0  0  0  0  0  0  0  0  0  0  0  0
  -90.9523   27.8811    1.4457 C   0  0  0  0  0  0  0  0  0  0  0  0
  -91.1432   28.5674    0.1116 C   0  0  0  0  0  0  0  0  0  0  0  0
  -89.7694   28.9406   -0.4598 C   0  0  0  0  0  0  0  0  0  0  0  0
  -88.7608   28.0529    0.1361 N   0  0  0  0  0  0  0  0  0  0  0  0
  -89.1519   26.6818    0.2699 C   0  0  0  0  0  0  0  0  0  0  0  0
  -93.1663   23.9132   -0.5729 C   0  0  0  0  0  0  0  0  0  0  0  0
  -92.2366   23.3549    0.3842 N   0  0  0  0  0  0  0  0  0  0  0  0
  -92.3198   21.9377    0.6734 C   0  0  0  0  0  0  0  0  0  0  0  0
  -91.2892   24.2107    0.9940 C   0  0  0  0  0  0  0  0  0  0  0  0
  -90.4821   23.7652    1.8228 O   0  0  0  0  0  0  0  0  0  0  0  0
  -91.2626   25.5842    0.6543 N   0  0  0  0  0  0  0  0  0  0  0  0
  -91.9412   25.9620   -0.0471 H   0  0  0  0  0  0  0  0  0  0  0  0
  -83.7276   30.1520    1.6528 C   0  0  0  0  0  0  0  0  0  0  0  0
  -82.7509   29.1393    1.9918 N   0  0  0  0  0  0  0  0  0  0  0  0
  -83.3651   31.3302    1.7531 O   0  0  0  0  0  0  0  0  0  0  0  0
  -82.6061   28.2860    1.4336 H   0  0  0  0  0  0  0  0  0  0  0  0
  -82.1866   29.3050    2.8378 H   0  0  0  0  0  0  0  0  0  0  0  0
  -85.7933   31.8192    0.3780 N   0  0  0  0  0  0  0  0  0  0  0  0
  -85.1061   32.3682    0.9194 H   0  0  0  0  0  0  0  0  0  0  0  0
  -86.4646   32.5252   -0.6580 C   0  0  0  0  0  0  0  0  0  0  0  0
  -87.8217   32.6252   -0.7912 C   0  0  0  0  0  0  0  0  0  0  0  0
  -88.4459   33.2973   -1.8517 C   0  0  0  0  0  0  0  0  0  0  0  0
  -87.6411   33.8807   -2.7959 C   0  0  0  0  0  0  0  0  0  0  0  0
  -86.2763   33.7797   -2.6592 C   0  0  0  0  0  0  0  0  0  0  0  0
  -85.6546   33.1327   -1.6396 C   0  0  0  0  0  0  0  0  0  0  0  0
  -88.1809   34.6150   -3.9701 C   0  0  0  0  0  0  0  0  0  0  0  0
  -88.4730   33.6173   -5.0495 C   0  0  0  0  0  0  0  0  0  0  0  0
  -89.9032   33.6892   -5.4895 C   0  0  0  0  0  0  0  0  0  0  0  0
  -90.2749   35.0360   -5.7098 N   0  0  0  0  0  0  0  0  0  0  0  0
  -90.1995   35.9419   -4.6227 C   0  0  0  0  0  0  0  0  0  0  0  0
  -89.4304   35.3300   -3.4969 C   0  0  0  0  0  0  0  0  0  0  0  0
  -91.2997   35.2707   -6.6605 C   0  0  0  0  0  0  0  0  0  0  0  0
  -91.6054   34.0527   -7.5059 C   0  0  0  0  0  0  0  0  0  0  0  0
  -91.1775   34.3620   -8.9025 C   0  0  0  0  0  0  0  0  0  0  0  0
  -90.9885   35.8579   -8.9961 C   0  0  0  0  0  0  0  0  0  0  0  0
  -90.9540   36.3897   -7.5862 C   0  0  0  0  0  0  0  0  0  0  0  0
 13 14  1  0  0  0
 14 15  1  0  0  0
 14 16  1  0  0  0
 16 17  2  0  0  0
 16 18  1  0  0  0
 18  7  1  0  0  0
  7  8  1  0  0  0
  8  9  1  0  0  0
  9 10  1  0  0  0
 10 11  1  0  0  0
 11 12  1  0  0  0
 11  1  1  0  0  0
  1  2  2  0  0  0
  2  3  1  0  0  0
  3  4  2  0  0  0
  4 20  1  0  0  0
 20 21  1  0  0  0
 20 22  2  0  0  0
  4  5  1  0  0  0
  5 25  1  0  0  0
 25 27  1  0  0  0
 27 28  2  0  0  0
 28 29  1  0  0  0
 29 30  2  0  0  0
 30 31  1  0  0  0
 31 32  2  0  0  0
 30 33  1  0  0  0
 33 34  1  0  0  0
 34 35  1  0  0  0
 35 36  1  0  0  0
 36 37  1  0  0  0
 37 38  1  0  0  0
 36 39  1  0  0  0
 39 40  1  0  0  0
 40 41  1  0  0  0
 41 42  1  0  0  0
 42 43  1  0  0  0
  5  6  2  0  0  0
 12  7  1  0  0  0
  6  1  1  0  0  0
 32 27  1  0  0  0
 38 33  1  0  0  0
 43 39  1  0  0  0
 18 19  1  0  0  0
 21 23  1  0  0  0
 21 24  1  0  0  0
 25 26  1  0  0  0
M  END
> <minimizedAffinity>
-9.29200

> <CNNscore>
0.1501189470

> <CNNaffinity>
6.8798751831

> <CNN_VS>
1.0327996016

> <CNNaffinity_variance>
0.0599767752

$$$$
[H]c1nc(OC([H])([H])[H])c([H])c(N2C(=O)N(c3c([H])c([H])c(-c4c([H])c([H])c([H])c([H])c4[H])c([H])c3[H])C(=O)C23C([H])([H])C([H])([H])N(C([H])([H])c2nc([H])c([H])c([H])c2C([H])([H])[H])C([H])([H])C3([H])[H])n1


 40 45  0  0  0  0  0  0  0  0999 V2000
  -86.6775   30.9720   -0.5841 N   0  0  0  0  0  0  0  0  0  0  0  0
  -87.3201   29.7845   -0.0881 C   0  0  0  0  0  0  0  0  0  0  0  0
  -86.8882   29.0509    0.8607 O   0  0  0  0  0  0  0  0  0  0  0  0
  -88.5157   29.5206   -0.7941 N   0  0  0  0  0  0  0  0  0  0  0  0
  -88.6445   30.5421   -1.7480 C   0  0  0  0  0  0  0  0  0  0  0  0
  -89.4950   30.5473   -2.6780 O   0  0  0  0  0  0  0  0  0  0  0  0
  -87.6267   31.5872   -1.4737 C   0  0  0  0  0  0  0  0  0  0  0  0
  -87.0230   32.0031   -2.8024 C   0  0  0  0  0  0  0  0  0  0  0  0
  -86.6757   33.4637   -2.7596 C   0  0  0  0  0  0  0  0  0  0  0  0
  -87.8614   34.3172   -2.6680 N   0  0  0  0  0  0  0  0  0  0  0  0
  -88.9330   33.6470   -1.9893 C   0  0  0  0  0  0  0  0  0  0  0  0
  -88.3079   32.7779   -0.8854 C   0  0  0  0  0  0  0  0  0  0  0  0
  -83.2561   30.7798    0.8597 C   0  0  0  0  0  0  0  0  0  0  0  0
  -84.5422   30.4272    0.4688 C   0  0  0  0  0  0  0  0  0  0  0  0
  -85.3722   31.3196   -0.1752 C   0  0  0  0  0  0  0  0  0  0  0  0
  -84.8816   32.5473   -0.4088 N   0  0  0  0  0  0  0  0  0  0  0  0
  -83.6387   32.9193   -0.0422 C   0  0  0  0  0  0  0  0  0  0  0  0
  -82.8624   32.0350    0.5777 N   0  0  0  0  0  0  0  0  0  0  0  0
  -82.9333   28.7924    2.1995 C   0  0  0  0  0  0  0  0  0  0  0  0
  -82.4164   29.8906    1.5065 O   0  0  0  0  0  0  0  0  0  0  0  0
  -89.4361   28.4325   -0.5963 C   0  0  0  0  0  0  0  0  0  0  0  0
  -89.2879   27.2490   -1.2968 C   0  0  0  0  0  0  0  0  0  0  0  0
  -90.1971   26.2140   -1.0922 C   0  0  0  0  0  0  0  0  0  0  0  0
  -91.2504   26.3205   -0.2111 C   0  0  0  0  0  0  0  0  0  0  0  0
  -91.3776   27.5058    0.4734 C   0  0  0  0  0  0  0  0  0  0  0  0
  -90.4814   28.5606    0.2887 C   0  0  0  0  0  0  0  0  0  0  0  0
  -92.1420   25.1818   -0.0746 C   0  0  0  0  0  0  0  0  0  0  0  0
  -91.7411   24.0966    0.6713 C   0  0  0  0  0  0  0  0  0  0  0  0
  -92.5502   22.9768    0.8406 C   0  0  0  0  0  0  0  0  0  0  0  0
  -93.7917   22.9367    0.2507 C   0  0  0  0  0  0  0  0  0  0  0  0
  -94.2047   24.0103   -0.4959 C   0  0  0  0  0  0  0  0  0  0  0  0
  -93.3893   25.1178   -0.6556 C   0  0  0  0  0  0  0  0  0  0  0  0
  -88.1937   34.8301   -3.9749 C   0  0  0  0  0  0  0  0  0  0  0  0
  -88.1864   36.2641   -4.1160 C   0  0  0  0  0  0  0  0  0  0  0  0
  -88.2105   37.1509   -3.1300 N   0  0  0  0  0  0  0  0  0  0  0  0
  -88.1884   38.4861   -3.2959 C   0  0  0  0  0  0  0  0  0  0  0  0
  -88.1368   39.0404   -4.5595 C   0  0  0  0  0  0  0  0  0  0  0  0
  -88.1102   38.1579   -5.6193 C   0  0  0  0  0  0  0  0  0  0  0  0
  -88.1342   36.7978   -5.4038 C   0  0  0  0  0  0  0  0  0  0  0  0
  -88.1021   35.8847   -6.5539 C   0  0  0  0  0  0  0  0  0  0  0  0
 19 20  1  0  0  0
 20 13  1  0  0  0
 13 14  2  0  0  0
 14 15  1  0  0  0
 15 16  2  0  0  0
 16 17  1  0  0  0
 17 18  2  0  0  0
 15  1  1  0  0  0
  1  2  1  0  0  0
  2  3  2  0  0  0
  2  4  1  0  0  0
  4  5  1  0  0  0
  5  6  2  0  0  0
  5  7  1  0  0  0
  7  8  1  0  0  0
  8  9  1  0  0  0
  9 10  1  0  0  0
 10 33  1  0  0  0
 33 34  1  0  0  0
 34 35  2  0  0  0
 35 36  1  0  0  0
 36 37  2  0  0  0
 37 38  1  0  0  0
 38 39  2  0  0  0
 39 40  1  0  0  0
 10 11  1  0  0  0
 11 12  1  0  0  0
  4 21  1  0  0  0
 21 22  2  0  0  0
 22 23  1  0  0  0
 23 24  2  0  0  0
 24 25  1  0  0  0
 25 26  2  0  0  0
 24 27  1  0  0  0
 27 28  2  0  0  0
 28 29  1  0  0  0
 29 30  2  0  0  0
 30 31  1  0  0  0
 31 32  2  0  0  0
 18 13  1  0  0  0
  7  1  1  0  0  0
 12  7  1  0  0  0
 26 21  1  0  0  0
 32 27  1  0  0  0
 39 34  1  0  0  0
M  END
> <minimizedAffinity>
-9.00774

> <CNNscore>
0.3741711080

> <CNNaffinity>
7.2622423172

> <CNN_VS>
2.7173211575

> <CNNaffinity_variance>
0.0946963280

$$$$
[H]c1nc(OC([H])([H])[H])c([H])c(N2C(=O)N(c3c([H])c([H])c(-c4c([H])c([H])c([H])c([H])c4[H])c([H])c3[H])C(=O)C23C([H])([H])C([H])([H])N(C([H])([H])c2nc([H])c([H])c([H])c2C([H])([H])[H])C([H])([H])C3([H])[H])n1


 40 45  0  0  0  0  0  0  0  0999 V2000
  -86.7935   31.1614   -0.6646 N   0  0  0  0  0  0  0  0  0  0  0  0
  -86.5474   32.3380   -1.4548 C   0  0  0  0  0  0  0  0  0  0  0  0
  -85.4991   33.0609   -1.3986 O   0  0  0  0  0  0  0  0  0  0  0  0
  -87.6315   32.6042   -2.3216 N   0  0  0  0  0  0  0  0  0  0  0  0
  -88.5793   31.5953   -2.0898 C   0  0  0  0  0  0  0  0  0  0  0  0
  -89.7520   31.5978   -2.5514 O   0  0  0  0  0  0  0  0  0  0  0  0
  -87.9703   30.5527   -1.2263 C   0  0  0  0  0  0  0  0  0  0  0  0
  -88.9995   30.1591   -0.1830 C   0  0  0  0  0  0  0  0  0  0  0  0
  -88.8510   28.7002    0.1417 C   0  0  0  0  0  0  0  0  0  0  0  0
  -89.1988   27.8382   -0.9891 N   0  0  0  0  0  0  0  0  0  0  0  0
  -88.9412   28.4923   -2.2397 C   0  0  0  0  0  0  0  0  0  0  0  0
  -87.6775   29.3499   -2.0601 C   0  0  0  0  0  0  0  0  0  0  0  0
  -84.7372   29.1876    1.7235 C   0  0  0  0  0  0  0  0  0  0  0  0
  -85.5760   29.5134    0.6645 C   0  0  0  0  0  0  0  0  0  0  0  0
  -85.9485   30.8162    0.4118 C   0  0  0  0  0  0  0  0  0  0  0  0
  -85.4636   31.7586    1.2359 N   0  0  0  0  0  0  0  0  0  0  0  0
  -84.6482   31.4744    2.2713 C   0  0  0  0  0  0  0  0  0  0  0  0
  -84.3073   30.2073    2.4887 N   0  0  0  0  0  0  0  0  0  0  0  0
  -83.1863   27.6059    2.6940 C   0  0  0  0  0  0  0  0  0  0  0  0
  -84.3582   27.8828    1.9845 O   0  0  0  0  0  0  0  0  0  0  0  0
  -87.7644   33.6839   -3.2635 C   0  0  0  0  0  0  0  0  0  0  0  0
  -88.0715   33.4288   -4.5879 C   0  0  0  0  0  0  0  0  0  0  0  0
  -88.1870   34.4914   -5.4807 C   0  0  0  0  0  0  0  0  0  0  0  0
  -88.0062   35.8015   -5.0958 C   0  0  0  0  0  0  0  0  0  0  0  0
  -87.7016   36.0305   -3.7751 C   0  0  0  0  0  0  0  0  0  0  0  0
  -87.5792   34.9850   -2.8575 C   0  0  0  0  0  0  0  0  0  0  0  0
  -88.1475   36.8343   -6.1077 C   0  0  0  0  0  0  0  0  0  0  0  0
  -89.2318   37.6810   -6.0606 C   0  0  0  0  0  0  0  0  0  0  0  0
  -89.4222   38.6904   -6.9997 C   0  0  0  0  0  0  0  0  0  0  0  0
  -88.5085   38.8607   -8.0131 C   0  0  0  0  0  0  0  0  0  0  0  0
  -87.4234   38.0244   -8.0733 C   0  0  0  0  0  0  0  0  0  0  0  0
  -87.2465   37.0246   -7.1320 C   0  0  0  0  0  0  0  0  0  0  0  0
  -90.5435   27.3415   -0.8265 C   0  0  0  0  0  0  0  0  0  0  0  0
  -91.3358   27.2465   -2.0264 C   0  0  0  0  0  0  0  0  0  0  0  0
  -91.2885   26.2714   -2.9242 N   0  0  0  0  0  0  0  0  0  0  0  0
  -92.0538   26.2055   -4.0291 C   0  0  0  0  0  0  0  0  0  0  0  0
  -92.9772   27.1932   -4.3089 C   0  0  0  0  0  0  0  0  0  0  0  0
  -93.0640   28.2305   -3.4037 C   0  0  0  0  0  0  0  0  0  0  0  0
  -92.2609   28.2580   -2.2852 C   0  0  0  0  0  0  0  0  0  0  0  0
  -92.3798   29.3755   -1.3393 C   0  0  0  0  0  0  0  0  0  0  0  0
 19 20  1  0  0  0
 20 13  1  0  0  0
 13 14  2  0  0  0
 14 15  1  0  0  0
 15 16  2  0  0  0
 16 17  1  0  0  0
 17 18  2  0  0  0
 15  1  1  0  0  0
  1  2  1  0  0  0
  2  3  2  0  0  0
  2  4  1  0  0  0
  4  5  1  0  0  0
  5  6  2  0  0  0
  5  7  1  0  0  0
  7  8  1  0  0  0
  8  9  1  0  0  0
  9 10  1  0  0  0
 10 33  1  0  0  0
 33 34  1  0  0  0
 34 35  2  0  0  0
 35 36  1  0  0  0
 36 37  2  0  0  0
 37 38  1  0  0  0
 38 39  2  0  0  0
 39 40  1  0  0  0
 10 11  1  0  0  0
 11 12  1  0  0  0
  4 21  1  0  0  0
 21 22  2  0  0  0
 22 23  1  0  0  0
 23 24  2  0  0  0
 24 25  1  0  0  0
 25 26  2  0  0  0
 24 27  1  0  0  0
 27 28  2  0  0  0
 28 29  1  0  0  0
 29 30  2  0  0  0
 30 31  1  0  0  0
 31 32  2  0  0  0
 18 13  1  0  0  0
  7  1  1  0  0  0
 12  7  1  0  0  0
 26 21  1  0  0  0
 32 27  1  0  0  0
 39 34  1  0  0  0
M  END
> <minimizedAffinity>
-8.86459

> <CNNscore>
0.1473337710

> <CNNaffinity>
6.9053220749

> <CNN_VS>
1.0173871517

> <CNNaffinity_variance>
0.1719518751

$$$$
[H]c1nc(OC([H])([H])[H])c([H])c(N2C(=O)N(c3c([H])c([H])c(-c4c([H])c([H])c([H])c([H])c4[H])c([H])c3[H])C(=O)C23C([H])([H])C([H])([H])N(C([H])([H])c2nc([H])c([H])c([H])c2C([H])([H])[H])C([H])([H])C3([H])[H])n1


 40 45  0  0  0  0  0  0  0  0999 V2000
  -86.8948   31.2236   -0.8371 N   0  0  0  0  0  0  0  0  0  0  0  0
  -86.8358   32.4390   -1.6044 C   0  0  0  0  0  0  0  0  0  0  0  0
  -85.8687   33.2693   -1.6018 O   0  0  0  0  0  0  0  0  0  0  0  0
  -88.0051   32.6079   -2.3801 N   0  0  0  0  0  0  0  0  0  0  0  0
  -88.8203   31.4971   -2.1125 C   0  0  0  0  0  0  0  0  0  0  0  0
  -90.0185   31.3842   -2.4864 O   0  0  0  0  0  0  0  0  0  0  0  0
  -88.0401   30.5054   -1.3305 C   0  0  0  0  0  0  0  0  0  0  0  0
  -88.9390   29.9774   -0.2279 C   0  0  0  0  0  0  0  0  0  0  0  0
  -88.6125   28.5355    0.0372 C   0  0  0  0  0  0  0  0  0  0  0  0
  -88.9527   27.6691   -1.0926 N   0  0  0  0  0  0  0  0  0  0  0  0
  -88.8621   28.3778   -2.3367 C   0  0  0  0  0  0  0  0  0  0  0  0
  -87.6862   29.3621   -2.2224 C   0  0  0  0  0  0  0  0  0  0  0  0
  -84.6889   29.3973    1.5347 C   0  0  0  0  0  0  0  0  0  0  0  0
  -85.6385   29.6581    0.5543 C   0  0  0  0  0  0  0  0  0  0  0  0
  -85.9382   30.9453    0.1624 C   0  0  0  0  0  0  0  0  0  0  0  0
  -85.2702   31.9379    0.7714 N   0  0  0  0  0  0  0  0  0  0  0  0
  -84.3436   31.7171    1.7255 C   0  0  0  0  0  0  0  0  0  0  0  0
  -84.0772   30.4636    2.0814 N   0  0  0  0  0  0  0  0  0  0  0  0
  -85.3570   27.1074    1.9335 C   0  0  0  0  0  0  0  0  0  0  0  0
  -84.3818   28.1087    1.9341 O   0  0  0  0  0  0  0  0  0  0  0  0
  -88.3232   33.6897   -3.2740 C   0  0  0  0  0  0  0  0  0  0  0  0
  -87.7507   33.7552   -4.5314 C   0  0  0  0  0  0  0  0  0  0  0  0
  -88.0699   34.8170   -5.3743 C   0  0  0  0  0  0  0  0  0  0  0  0
  -88.9421   35.8167   -5.0040 C   0  0  0  0  0  0  0  0  0  0  0  0
  -89.4983   35.7305   -3.7499 C   0  0  0  0  0  0  0  0  0  0  0  0
  -89.1968   34.6778   -2.8834 C   0  0  0  0  0  0  0  0  0  0  0  0
  -89.2044   36.8799   -5.9586 C   0  0  0  0  0  0  0  0  0  0  0  0
  -89.1893   36.5962   -7.3054 C   0  0  0  0  0  0  0  0  0  0  0  0
  -89.4342   37.5707   -8.2685 C   0  0  0  0  0  0  0  0  0  0  0  0
  -89.7007   38.8624   -7.8797 C   0  0  0  0  0  0  0  0  0  0  0  0
  -89.7186   39.1604   -6.5412 C   0  0  0  0  0  0  0  0  0  0  0  0
  -89.4734   38.1807   -5.5941 C   0  0  0  0  0  0  0  0  0  0  0  0
  -90.2208   27.0262   -0.8480 C   0  0  0  0  0  0  0  0  0  0  0  0
  -90.2088   25.5855   -0.8218 C   0  0  0  0  0  0  0  0  0  0  0  0
  -90.0268   24.7821   -1.8613 N   0  0  0  0  0  0  0  0  0  0  0  0
  -90.0071   23.4380   -1.8003 C   0  0  0  0  0  0  0  0  0  0  0  0
  -90.1830   22.7826   -0.5977 C   0  0  0  0  0  0  0  0  0  0  0  0
  -90.3764   23.5757    0.5142 C   0  0  0  0  0  0  0  0  0  0  0  0
  -90.3891   24.9487    0.4062 C   0  0  0  0  0  0  0  0  0  0  0  0
  -90.5948   25.7650    1.6099 C   0  0  0  0  0  0  0  0  0  0  0  0
 19 20  1  0  0  0
 20 13  1  0  0  0
 13 14  2  0  0  0
 14 15  1  0  0  0
 15 16  2  0  0  0
 16 17  1  0  0  0
 17 18  2  0  0  0
 15  1  1  0  0  0
  1  2  1  0  0  0
  2  3  2  0  0  0
  2  4  1  0  0  0
  4  5  1  0  0  0
  5  6  2  0  0  0
  5  7  1  0  0  0
  7  8  1  0  0  0
  8  9  1  0  0  0
  9 10  1  0  0  0
 10 33  1  0  0  0
 33 34  1  0  0  0
 34 35  2  0  0  0
 35 36  1  0  0  0
 36 37  2  0  0  0
 37 38  1  0  0  0
 38 39  2  0  0  0
 39 40  1  0  0  0
 10 11  1  0  0  0
 11 12  1  0  0  0
  4 21  1  0  0  0
 21 22  2  0  0  0
 22 23  1  0  0  0
 23 24  2  0  0  0
 24 25  1  0  0  0
 25 26  2  0  0  0
 24 27  1  0  0  0
 27 28  2  0  0  0
 28 29  1  0  0  0
 29 30  2  0  0  0
 30 31  1  0  0  0
 31 32  2  0  0  0
 18 13  1  0  0  0
  7  1  1  0  0  0
 12  7  1  0  0  0
 26 21  1  0  0  0
 32 27  1  0  0  0
 39 34  1  0  0  0
M  END
> <minimizedAffinity>
-9.29442

> <CNNscore>
0.1432893425

> <CNNaffinity>
6.7938890457

> <CNN_VS>
0.9734919071

> <CNNaffinity_variance>
0.1912652999

$$$$
[H]c1nc(OC([H])([H])[H])c([H])c(N2C(=O)N(c3c([H])c([H])c(-c4c([H])c([H])c([H])c([H])c4[H])c([H])c3[H])C(=O)C23C([H])([H])C([H])([H])N(C([H])([H])c2nc([H])c([H])c([H])c2C([H])([H])[H])C([H])([H])C3([H])[H])n1


 40 45  0  0  0  0  0  0  0  0999 V2000
  -87.0257   30.7495   -0.6018 N   0  0  0  0  0  0  0  0  0  0  0  0
  -87.0405   31.9360   -1.4149 C   0  0  0  0  0  0  0  0  0  0  0  0
  -86.1272   32.8247   -1.4435 O   0  0  0  0  0  0  0  0  0  0  0  0
  -88.2157   32.0018   -2.1972 N   0  0  0  0  0  0  0  0  0  0  0  0
  -88.9607   30.8532   -1.8877 C   0  0  0  0  0  0  0  0  0  0  0  0
  -90.1484   30.6515   -2.2577 O   0  0  0  0  0  0  0  0  0  0  0  0
  -88.1225   29.9428   -1.0679 C   0  0  0  0  0  0  0  0  0  0  0  0
  -88.9899   29.4020    0.0536 C   0  0  0  0  0  0  0  0  0  0  0  0
  -88.5748   27.9946    0.3738 C   0  0  0  0  0  0  0  0  0  0  0  0
  -88.8568   27.0661   -0.7222 N   0  0  0  0  0  0  0  0  0  0  0  0
  -88.8070   27.7311   -1.9925 C   0  0  0  0  0  0  0  0  0  0  0  0
  -87.6953   28.7907   -1.9152 C   0  0  0  0  0  0  0  0  0  0  0  0
  -84.6699   29.1569    1.7943 C   0  0  0  0  0  0  0  0  0  0  0  0
  -85.6306   29.3199    0.8035 C   0  0  0  0  0  0  0  0  0  0  0  0
  -86.0565   30.5699    0.4083 C   0  0  0  0  0  0  0  0  0  0  0  0
  -85.5007   31.6252    1.0245 N   0  0  0  0  0  0  0  0  0  0  0  0
  -84.5668   31.4998    1.9887 C   0  0  0  0  0  0  0  0  0  0  0  0
  -84.1770   30.2799    2.3476 N   0  0  0  0  0  0  0  0  0  0  0  0
  -82.9315   27.7154    2.6598 C   0  0  0  0  0  0  0  0  0  0  0  0
  -84.2365   27.9063    2.1971 O   0  0  0  0  0  0  0  0  0  0  0  0
  -88.5981   33.0267   -3.1320 C   0  0  0  0  0  0  0  0  0  0  0  0
  -89.0526   34.2539   -2.6840 C   0  0  0  0  0  0  0  0  0  0  0  0
  -89.4234   35.2260   -3.6098 C   0  0  0  0  0  0  0  0  0  0  0  0
  -89.3559   35.0143   -4.9691 C   0  0  0  0  0  0  0  0  0  0  0  0
  -88.9016   33.7873   -5.3906 C   0  0  0  0  0  0  0  0  0  0  0  0
  -88.5230   32.7937   -4.4855 C   0  0  0  0  0  0  0  0  0  0  0  0
  -89.7692   36.0947   -5.8480 C   0  0  0  0  0  0  0  0  0  0  0  0
  -89.7088   35.9158   -7.2115 C   0  0  0  0  0  0  0  0  0  0  0  0
  -90.0918   36.9119   -8.1050 C   0  0  0  0  0  0  0  0  0  0  0  0
  -90.5466   38.1185   -7.6276 C   0  0  0  0  0  0  0  0  0  0  0  0
  -90.6118   38.3117   -6.2715 C   0  0  0  0  0  0  0  0  0  0  0  0
  -90.2278   37.3118   -5.3943 C   0  0  0  0  0  0  0  0  0  0  0  0
  -90.0830   26.3550   -0.4539 C   0  0  0  0  0  0  0  0  0  0  0  0
  -91.0941   26.4217   -1.4785 C   0  0  0  0  0  0  0  0  0  0  0  0
  -91.8623   27.4663   -1.7576 N   0  0  0  0  0  0  0  0  0  0  0  0
  -92.7892   27.5006   -2.7325 C   0  0  0  0  0  0  0  0  0  0  0  0
  -93.0075   26.4012   -3.5389 C   0  0  0  0  0  0  0  0  0  0  0  0
  -92.2321   25.2884   -3.2875 C   0  0  0  0  0  0  0  0  0  0  0  0
  -91.2943   25.2969   -2.2789 C   0  0  0  0  0  0  0  0  0  0  0  0
  -90.4828   24.0964   -2.0385 C   0  0  0  0  0  0  0  0  0  0  0  0
 19 20  1  0  0  0
 20 13  1  0  0  0
 13 14  2  0  0  0
 14 15  1  0  0  0
 15 16  2  0  0  0
 16 17  1  0  0  0
 17 18  2  0  0  0
 15  1  1  0  0  0
  1  2  1  0  0  0
  2  3  2  0  0  0
  2  4  1  0  0  0
  4  5  1  0  0  0
  5  6  2  0  0  0
  5  7  1  0  0  0
  7  8  1  0  0  0
  8  9  1  0  0  0
  9 10  1  0  0  0
 10 33  1  0  0  0
 33 34  1  0  0  0
 34 35  2  0  0  0
 35 36  1  0  0  0
 36 37  2  0  0  0
 37 38  1  0  0  0
 38 39  2  0  0  0
 39 40  1  0  0  0
 10 11  1  0  0  0
 11 12  1  0  0  0
  4 21  1  0  0  0
 21 22  2  0  0  0
 22 23  1  0  0  0
 23 24  2  0  0  0
 24 25  1  0  0  0
 25 26  2  0  0  0
 24 27  1  0  0  0
 27 28  2  0  0  0
 28 29  1  0  0  0
 29 30  2  0  0  0
 30 31  1  0  0  0
 31 32  2  0  0  0
 18 13  1  0  0  0
  7  1  1  0  0  0
 12  7  1  0  0  0
 26 21  1  0  0  0
 32 27  1  0  0  0
 39 34  1  0  0  0
M  END
> <minimizedAffinity>
-9.00605

> <CNNscore>
0.1388445795

> <CNNaffinity>
6.8335442543

> <CNN_VS>
0.9488005638

> <CNNaffinity_variance>
0.2013672143

$$$$
[H]c1nc(OC([H])([H])[H])c([H])c(N2C(=O)N(c3c([H])c([H])c(-c4c([H])c([H])c([H])c([H])c4[H])c([H])c3[H])C(=O)C23C([H])([H])C([H])([H])N(C([H])([H])c2nc([H])c([H])c([H])c2C([H])([H])[H])C([H])([H])C3([H])[H])n1


 40 45  0  0  0  0  0  0  0  0999 V2000
  -86.9194   30.4879   -0.4025 N   0  0  0  0  0  0  0  0  0  0  0  0
  -87.6543   29.2601   -0.2557 C   0  0  0  0  0  0  0  0  0  0  0  0
  -87.4513   28.3793    0.6431 O   0  0  0  0  0  0  0  0  0  0  0  0
  -88.6520   29.1426   -1.2498 N   0  0  0  0  0  0  0  0  0  0  0  0
  -88.5604   30.2991   -2.0397 C   0  0  0  0  0  0  0  0  0  0  0  0
  -89.1716   30.4704   -3.1284 O   0  0  0  0  0  0  0  0  0  0  0  0
  -87.6388   31.2590   -1.3817 C   0  0  0  0  0  0  0  0  0  0  0  0
  -86.7449   31.8504   -2.4559 C   0  0  0  0  0  0  0  0  0  0  0  0
  -86.4236   33.2765   -2.1110 C   0  0  0  0  0  0  0  0  0  0  0  0
  -87.6019   34.1433   -2.1652 N   0  0  0  0  0  0  0  0  0  0  0  0
  -88.7989   33.4126   -1.8623 C   0  0  0  0  0  0  0  0  0  0  0  0
  -88.4434   32.3686   -0.7907 C   0  0  0  0  0  0  0  0  0  0  0  0
  -83.7923   29.9574    1.5383 C   0  0  0  0  0  0  0  0  0  0  0  0
  -84.9491   29.7060    0.8105 C   0  0  0  0  0  0  0  0  0  0  0  0
  -85.7463   30.7292    0.3442 C   0  0  0  0  0  0  0  0  0  0  0  0
  -85.3546   31.9823    0.6249 N   0  0  0  0  0  0  0  0  0  0  0  0
  -84.2381   32.2584    1.3283 C   0  0  0  0  0  0  0  0  0  0  0  0
  -83.4901   31.2488    1.7644 N   0  0  0  0  0  0  0  0  0  0  0  0
  -83.5402   27.8250    2.6512 C   0  0  0  0  0  0  0  0  0  0  0  0
  -82.9862   28.9367    2.0102 O   0  0  0  0  0  0  0  0  0  0  0  0
  -89.5884   28.0664   -1.4383 C   0  0  0  0  0  0  0  0  0  0  0  0
  -90.8484   28.1221   -0.8704 C   0  0  0  0  0  0  0  0  0  0  0  0
  -91.7330   27.0636   -1.0621 C   0  0  0  0  0  0  0  0  0  0  0  0
  -91.4020   25.9502   -1.8023 C   0  0  0  0  0  0  0  0  0  0  0  0
  -90.1445   25.9171   -2.3566 C   0  0  0  0  0  0  0  0  0  0  0  0
  -89.2366   26.9635   -2.1812 C   0  0  0  0  0  0  0  0  0  0  0  0
  -92.3983   24.9017   -1.9381 C   0  0  0  0  0  0  0  0  0  0  0  0
  -92.2782   23.9848   -2.9577 C   0  0  0  0  0  0  0  0  0  0  0  0
  -93.1989   22.9570   -3.1393 C   0  0  0  0  0  0  0  0  0  0  0  0
  -94.2682   22.8397   -2.2829 C   0  0  0  0  0  0  0  0  0  0  0  0
  -94.4016   23.7462   -1.2625 C   0  0  0  0  0  0  0  0  0  0  0  0
  -93.4778   24.7635   -1.0936 C   0  0  0  0  0  0  0  0  0  0  0  0
  -87.6239   34.8565   -3.4191 C   0  0  0  0  0  0  0  0  0  0  0  0
  -88.7338   34.5724   -4.2930 C   0  0  0  0  0  0  0  0  0  0  0  0
  -88.9617   33.4304   -4.9281 N   0  0  0  0  0  0  0  0  0  0  0  0
  -90.0176   33.1925   -5.7275 C   0  0  0  0  0  0  0  0  0  0  0  0
  -90.9722   34.1660   -5.9457 C   0  0  0  0  0  0  0  0  0  0  0  0
  -90.7793   35.3730   -5.3064 C   0  0  0  0  0  0  0  0  0  0  0  0
  -89.6836   35.5736   -4.4964 C   0  0  0  0  0  0  0  0  0  0  0  0
  -89.5086   36.8697   -3.8277 C   0  0  0  0  0  0  0  0  0  0  0  0
 19 20  1  0  0  0
 20 13  1  0  0  0
 13 14  2  0  0  0
 14 15  1  0  0  0
 15 16  2  0  0  0
 16 17  1  0  0  0
 17 18  2  0  0  0
 15  1  1  0  0  0
  1  2  1  0  0  0
  2  3  2  0  0  0
  2  4  1  0  0  0
  4  5  1  0  0  0
  5  6  2  0  0  0
  5  7  1  0  0  0
  7  8  1  0  0  0
  8  9  1  0  0  0
  9 10  1  0  0  0
 10 33  1  0  0  0
 33 34  1  0  0  0
 34 35  2  0  0  0
 35 36  1  0  0  0
 36 37  2  0  0  0
 37 38  1  0  0  0
 38 39  2  0  0  0
 39 40  1  0  0  0
 10 11  1  0  0  0
 11 12  1  0  0  0
  4 21  1  0  0  0
 21 22  2  0  0  0
 22 23  1  0  0  0
 23 24  2  0  0  0
 24 25  1  0  0  0
 25 26  2  0  0  0
 24 27  1  0  0  0
 27 28  2  0  0  0
 28 29  1  0  0  0
 29 30  2  0  0  0
 30 31  1  0  0  0
 31 32  2  0  0  0
 18 13  1  0  0  0
  7  1  1  0  0  0
 12  7  1  0  0  0
 26 21  1  0  0  0
 32 27  1  0  0  0
 39 34  1  0  0  0
M  END
> <minimizedAffinity>
-8.65703

> <CNNscore>
0.1209406629

> <CNNaffinity>
6.7018022537

> <CNN_VS>
0.8105204105

> <CNNaffinity_variance>
0.4375411868

$$$$
[H]c1nc(OC([H])([H])[H])c([H])c(N2C(=O)N(c3c([H])c([H])c(-c4c([H])c([H])c([H])c([H])c4[H])c([H])c3[H])C(=O)C23C([H])([H])C([H])([H])N(C([H])([H])c2nc([H])c([H])c([H])c2C([H])([H])[H])C([H])([H])C3([H])[H])n1


 40 45  0  0  0  0  0  0  0  0999 V2000
  -87.7812   29.1032   -0.5892 N   0  0  0  0  0  0  0  0  0  0  0  0
  -87.3814   30.3573   -1.1694 C   0  0  0  0  0  0  0  0  0  0  0  0
  -86.2345   30.8989   -1.0427 O   0  0  0  0  0  0  0  0  0  0  0  0
  -88.4360   30.9322   -1.9143 N   0  0  0  0  0  0  0  0  0  0  0  0
  -89.5191   30.0451   -1.8145 C   0  0  0  0  0  0  0  0  0  0  0  0
  -90.6901   30.3014   -2.2034 O   0  0  0  0  0  0  0  0  0  0  0  0
  -89.0517   28.7845   -1.1851 C   0  0  0  0  0  0  0  0  0  0  0  0
  -90.0996   28.3577   -0.1740 C   0  0  0  0  0  0  0  0  0  0  0  0
  -90.1651   26.8581   -0.1230 C   0  0  0  0  0  0  0  0  0  0  0  0
  -90.6706   26.2785   -1.3686 N   0  0  0  0  0  0  0  0  0  0  0  0
  -90.3512   27.1079   -2.4948 C   0  0  0  0  0  0  0  0  0  0  0  0
  -88.9677   27.7265   -2.2346 C   0  0  0  0  0  0  0  0  0  0  0  0
  -85.1312   28.4252    1.9298 C   0  0  0  0  0  0  0  0  0  0  0  0
  -85.9188   29.0801    0.9907 C   0  0  0  0  0  0  0  0  0  0  0  0
  -86.9690   28.4474    0.3606 C   0  0  0  0  0  0  0  0  0  0  0  0
  -87.1976   27.1676    0.6954 N   0  0  0  0  0  0  0  0  0  0  0  0
  -86.4517   26.5052    1.6023 C   0  0  0  0  0  0  0  0  0  0  0  0
  -85.4454   27.1437    2.1927 N   0  0  0  0  0  0  0  0  0  0  0  0
  -83.0243   29.6087    1.8325 C   0  0  0  0  0  0  0  0  0  0  0  0
  -84.0754   29.0524    2.5670 O   0  0  0  0  0  0  0  0  0  0  0  0
  -88.4296   32.1746   -2.6401 C   0  0  0  0  0  0  0  0  0  0  0  0
  -87.8361   32.2585   -3.8867 C   0  0  0  0  0  0  0  0  0  0  0  0
  -87.8372   33.4749   -4.5648 C   0  0  0  0  0  0  0  0  0  0  0  0
  -88.4112   34.6117   -4.0401 C   0  0  0  0  0  0  0  0  0  0  0  0
  -88.9946   34.5043   -2.8001 C   0  0  0  0  0  0  0  0  0  0  0  0
  -89.0085   33.2979   -2.0969 C   0  0  0  0  0  0  0  0  0  0  0  0
  -88.3549   35.8298   -4.8298 C   0  0  0  0  0  0  0  0  0  0  0  0
  -88.2082   37.0410   -4.1923 C   0  0  0  0  0  0  0  0  0  0  0  0
  -88.1464   38.2419   -4.8930 C   0  0  0  0  0  0  0  0  0  0  0  0
  -88.2335   38.2365   -6.2652 C   0  0  0  0  0  0  0  0  0  0  0  0
  -88.3803   37.0375   -6.9144 C   0  0  0  0  0  0  0  0  0  0  0  0
  -88.4401   35.8503   -6.2044 C   0  0  0  0  0  0  0  0  0  0  0  0
  -92.0700   25.9593   -1.2238 C   0  0  0  0  0  0  0  0  0  0  0  0
  -92.3778   24.5990   -0.8616 C   0  0  0  0  0  0  0  0  0  0  0  0
  -92.3851   24.0948    0.3652 N   0  0  0  0  0  0  0  0  0  0  0  0
  -92.6917   22.8208    0.6712 C   0  0  0  0  0  0  0  0  0  0  0  0
  -93.0330   21.9192   -0.3173 C   0  0  0  0  0  0  0  0  0  0  0  0
  -93.0397   22.3964   -1.6115 C   0  0  0  0  0  0  0  0  0  0  0  0
  -92.7193   23.7087   -1.8798 C   0  0  0  0  0  0  0  0  0  0  0  0
  -92.7384   24.1863   -3.2687 C   0  0  0  0  0  0  0  0  0  0  0  0
 19 20  1  0  0  0
 20 13  1  0  0  0
 13 14  2  0  0  0
 14 15  1  0  0  0
 15 16  2  0  0  0
 16 17  1  0  0  0
 17 18  2  0  0  0
 15  1  1  0  0  0
  1  2  1  0  0  0
  2  3  2  0  0  0
  2  4  1  0  0  0
  4  5  1  0  0  0
  5  6  2  0  0  0
  5  7  1  0  0  0
  7  8  1  0  0  0
  8  9  1  0  0  0
  9 10  1  0  0  0
 10 33  1  0  0  0
 33 34  1  0  0  0
 34 35  2  0  0  0
 35 36  1  0  0  0
 36 37  2  0  0  0
 37 38  1  0  0  0
 38 39  2  0  0  0
 39 40  1  0  0  0
 10 11  1  0  0  0
 11 12  1  0  0  0
  4 21  1  0  0  0
 21 22  2  0  0  0
 22 23  1  0  0  0
 23 24  2  0  0  0
 24 25  1  0  0  0
 25 26  2  0  0  0
 24 27  1  0  0  0
 27 28  2  0  0  0
 28 29  1  0  0  0
 29 30  2  0  0  0
 30 31  1  0  0  0
 31 32  2  0  0  0
 18 13  1  0  0  0
  7  1  1  0  0  0
 12  7  1  0  0  0
 26 21  1  0  0  0
 32 27  1  0  0  0
 39 34  1  0  0  0
M  END
> <minimizedAffinity>
-8.81107

> <CNNscore>
0.1124137864

> <CNNaffinity>
6.6335663795

> <CNN_VS>
0.7457042933

> <CNNaffinity_variance>
0.1476904154

$$$$
[H]c1nc(OC([H])([H])[H])c([H])c(N2C(=O)N(c3c([H])c([H])c(-c4c([H])c([H])c([H])c([H])c4[H])c([H])c3[H])C(=O)C23C([H])([H])C([H])([H])N(C([H])([H])c2nc([H])c([H])c([H])c2C([H])([H])[H])C([H])([H])C3([H])[H])n1


 40 45  0  0  0  0  0  0  0  0999 V2000
  -87.2525   30.7310   -0.8330 N   0  0  0  0  0  0  0  0  0  0  0  0
  -87.2839   31.8251   -1.7663 C   0  0  0  0  0  0  0  0  0  0  0  0
  -86.3019   32.5888   -2.0443 O   0  0  0  0  0  0  0  0  0  0  0  0
  -88.5630   31.9567   -2.3529 N   0  0  0  0  0  0  0  0  0  0  0  0
  -89.3587   30.9434   -1.7961 C   0  0  0  0  0  0  0  0  0  0  0  0
  -90.6068   30.8526   -1.9452 O   0  0  0  0  0  0  0  0  0  0  0  0
  -88.4909   30.0222   -1.0202 C   0  0  0  0  0  0  0  0  0  0  0  0
  -89.2036   29.7036    0.2810 C   0  0  0  0  0  0  0  0  0  0  0  0
  -88.8879   28.2942    0.6929 C   0  0  0  0  0  0  0  0  0  0  0  0
  -89.4493   27.3042   -0.2277 N   0  0  0  0  0  0  0  0  0  0  0  0
  -89.5502   27.8307   -1.5585 C   0  0  0  0  0  0  0  0  0  0  0  0
  -88.3379   28.7493   -1.7844 C   0  0  0  0  0  0  0  0  0  0  0  0
  -84.7220   31.2323    1.8451 C   0  0  0  0  0  0  0  0  0  0  0  0
  -85.8080   31.4414    1.0037 C   0  0  0  0  0  0  0  0  0  0  0  0
  -86.1478   30.5343    0.0230 C   0  0  0  0  0  0  0  0  0  0  0  0
  -85.3813   29.4372   -0.0832 N   0  0  0  0  0  0  0  0  0  0  0  0
  -84.3218   29.2059    0.7178 C   0  0  0  0  0  0  0  0  0  0  0  0
  -84.0199   30.1006    1.6544 N   0  0  0  0  0  0  0  0  0  0  0  0
  -85.0416   32.1501    4.0598 C   0  0  0  0  0  0  0  0  0  0  0  0
  -84.3738   32.1373    2.8320 O   0  0  0  0  0  0  0  0  0  0  0  0
  -88.9922   32.9241   -3.3277 C   0  0  0  0  0  0  0  0  0  0  0  0
  -89.2075   34.2414   -2.9647 C   0  0  0  0  0  0  0  0  0  0  0  0
  -89.6299   35.1561   -3.9262 C   0  0  0  0  0  0  0  0  0  0  0  0
  -89.8449   34.8000   -5.2393 C   0  0  0  0  0  0  0  0  0  0  0  0
  -89.6247   33.4857   -5.5765 C   0  0  0  0  0  0  0  0  0  0  0  0
  -89.2012   32.5466   -4.6338 C   0  0  0  0  0  0  0  0  0  0  0  0
  -90.2871   35.8320   -6.1611 C   0  0  0  0  0  0  0  0  0  0  0  0
  -89.5775   37.0083   -6.2481 C   0  0  0  0  0  0  0  0  0  0  0  0
  -89.9497   38.0336   -7.1126 C   0  0  0  0  0  0  0  0  0  0  0  0
  -91.0587   37.8835   -7.9115 C   0  0  0  0  0  0  0  0  0  0  0  0
  -91.7762   36.7172   -7.8356 C   0  0  0  0  0  0  0  0  0  0  0  0
  -91.3941   35.7055   -6.9711 C   0  0  0  0  0  0  0  0  0  0  0  0
  -90.6781   26.7775    0.3144 C   0  0  0  0  0  0  0  0  0  0  0  0
  -90.6888   26.5200    1.7322 C   0  0  0  0  0  0  0  0  0  0  0  0
  -90.8032   27.4256    2.6945 N   0  0  0  0  0  0  0  0  0  0  0  0
  -90.8241   27.1498    4.0114 C   0  0  0  0  0  0  0  0  0  0  0  0
  -90.7234   25.8487    4.4625 C   0  0  0  0  0  0  0  0  0  0  0  0
  -90.6023   24.8694    3.4986 C   0  0  0  0  0  0  0  0  0  0  0  0
  -90.5854   25.1966    2.1608 C   0  0  0  0  0  0  0  0  0  0  0  0
  -90.4579   24.1299    1.1591 C   0  0  0  0  0  0  0  0  0  0  0  0
 19 20  1  0  0  0
 20 13  1  0  0  0
 13 14  2  0  0  0
 14 15  1  0  0  0
 15 16  2  0  0  0
 16 17  1  0  0  0
 17 18  2  0  0  0
 15  1  1  0  0  0
  1  2  1  0  0  0
  2  3  2  0  0  0
  2  4  1  0  0  0
  4  5  1  0  0  0
  5  6  2  0  0  0
  5  7  1  0  0  0
  7  8  1  0  0  0
  8  9  1  0  0  0
  9 10  1  0  0  0
 10 33  1  0  0  0
 33 34  1  0  0  0
 34 35  2  0  0  0
 35 36  1  0  0  0
 36 37  2  0  0  0
 37 38  1  0  0  0
 38 39  2  0  0  0
 39 40  1  0  0  0
 10 11  1  0  0  0
 11 12  1  0  0  0
  4 21  1  0  0  0
 21 22  2  0  0  0
 22 23  1  0  0  0
 23 24  2  0  0  0
 24 25  1  0  0  0
 25 26  2  0  0  0
 24 27  1  0  0  0
 27 28  2  0  0  0
 28 29  1  0  0  0
 29 30  2  0  0  0
 30 31  1  0  0  0
 31 32  2  0  0  0
 18 13  1  0  0  0
  7  1  1  0  0  0
 12  7  1  0  0  0
 26 21  1  0  0  0
 32 27  1  0  0  0
 39 34  1  0  0  0
M  END
> <minimizedAffinity>
-8.19447

> <CNNscore>
0.1081359759

> <CNNaffinity>
6.6769204140

> <CNN_VS>
0.7220153213

> <CNNaffinity_variance>
0.1905503720

$$$$
[H]c1nc(OC([H])([H])[H])c([H])c(N2C(=O)N(c3c([H])c([H])c(-c4c([H])c([H])c([H])c([H])c4[H])c([H])c3[H])C(=O)C23C([H])([H])C([H])([H])N(C([H])([H])c2nc([H])c([H])c([H])c2C([H])([H])[H])C([H])([H])C3([H])[H])n1


 40 45  0  0  0  0  0  0  0  0999 V2000
  -87.3793   30.6040   -0.9098 N   0  0  0  0  0  0  0  0  0  0  0  0
  -87.2681   31.8113   -1.6839 C   0  0  0  0  0  0  0  0  0  0  0  0
  -86.2476   32.5741   -1.7224 O   0  0  0  0  0  0  0  0  0  0  0  0
  -88.4526   32.0579   -2.4144 N   0  0  0  0  0  0  0  0  0  0  0  0
  -89.3301   31.0054   -2.1106 C   0  0  0  0  0  0  0  0  0  0  0  0
  -90.5469   30.9735   -2.4372 O   0  0  0  0  0  0  0  0  0  0  0  0
  -88.5890   29.9644   -1.3553 C   0  0  0  0  0  0  0  0  0  0  0  0
  -89.4779   29.5003   -0.2164 C   0  0  0  0  0  0  0  0  0  0  0  0
  -89.2398   28.0401    0.0420 C   0  0  0  0  0  0  0  0  0  0  0  0
  -89.6816   27.1969   -1.0700 N   0  0  0  0  0  0  0  0  0  0  0  0
  -89.5918   27.8958   -2.3197 C   0  0  0  0  0  0  0  0  0  0  0  0
  -88.3485   28.7983   -2.2553 C   0  0  0  0  0  0  0  0  0  0  0  0
  -84.9249   30.8411    1.8736 C   0  0  0  0  0  0  0  0  0  0  0  0
  -85.8781   31.1914    0.9249 C   0  0  0  0  0  0  0  0  0  0  0  0
  -86.4054   30.2630    0.0531 C   0  0  0  0  0  0  0  0  0  0  0  0
  -85.9564   29.0024    0.1616 N   0  0  0  0  0  0  0  0  0  0  0  0
  -85.0330   28.6316    1.0712 C   0  0  0  0  0  0  0  0  0  0  0  0
  -84.5435   29.5511    1.8981 N   0  0  0  0  0  0  0  0  0  0  0  0
  -85.0426   32.0775    3.9488 C   0  0  0  0  0  0  0  0  0  0  0  0
  -84.3903   31.7662    2.7524 O   0  0  0  0  0  0  0  0  0  0  0  0
  -88.7313   33.1573   -3.2999 C   0  0  0  0  0  0  0  0  0  0  0  0
  -88.9518   34.4271   -2.7976 C   0  0  0  0  0  0  0  0  0  0  0  0
  -89.2269   35.4724   -3.6759 C   0  0  0  0  0  0  0  0  0  0  0  0
  -89.2894   35.2928   -5.0401 C   0  0  0  0  0  0  0  0  0  0  0  0
  -89.0671   34.0225   -5.5160 C   0  0  0  0  0  0  0  0  0  0  0  0
  -88.7893   32.9553   -4.6593 C   0  0  0  0  0  0  0  0  0  0  0  0
  -89.5858   36.4502   -5.8666 C   0  0  0  0  0  0  0  0  0  0  0  0
  -89.6554   37.6953   -5.2838 C   0  0  0  0  0  0  0  0  0  0  0  0
  -89.9338   38.8420   -6.0219 C   0  0  0  0  0  0  0  0  0  0  0  0
  -90.1492   38.7458   -7.3766 C   0  0  0  0  0  0  0  0  0  0  0  0
  -90.0837   37.5118   -7.9712 C   0  0  0  0  0  0  0  0  0  0  0  0
  -89.8054   36.3796   -7.2246 C   0  0  0  0  0  0  0  0  0  0  0  0
  -90.9799   26.6419   -0.7737 C   0  0  0  0  0  0  0  0  0  0  0  0
  -91.3669   25.4847   -1.5402 C   0  0  0  0  0  0  0  0  0  0  0  0
  -90.7807   24.2951   -1.5175 N   0  0  0  0  0  0  0  0  0  0  0  0
  -91.1765   23.2289   -2.2366 C   0  0  0  0  0  0  0  0  0  0  0  0
  -92.2665   23.3109   -3.0803 C   0  0  0  0  0  0  0  0  0  0  0  0
  -92.9107   24.5292   -3.1389 C   0  0  0  0  0  0  0  0  0  0  0  0
  -92.4715   25.5949   -2.3850 C   0  0  0  0  0  0  0  0  0  0  0  0
  -93.1811   26.8782   -2.4681 C   0  0  0  0  0  0  0  0  0  0  0  0
 19 20  1  0  0  0
 20 13  1  0  0  0
 13 14  2  0  0  0
 14 15  1  0  0  0
 15 16  2  0  0  0
 16 17  1  0  0  0
 17 18  2  0  0  0
 15  1  1  0  0  0
  1  2  1  0  0  0
  2  3  2  0  0  0
  2  4  1  0  0  0
  4  5  1  0  0  0
  5  6  2  0  0  0
  5  7  1  0  0  0
  7  8  1  0  0  0
  8  9  1  0  0  0
  9 10  1  0  0  0
 10 33  1  0  0  0
 33 34  1  0  0  0
 34 35  2  0  0  0
 35 36  1  0  0  0
 36 37  2  0  0  0
 37 38  1  0  0  0
 38 39  2  0  0  0
 39 40  1  0  0  0
 10 11  1  0  0  0
 11 12  1  0  0  0
  4 21  1  0  0  0
 21 22  2  0  0  0
 22 23  1  0  0  0
 23 24  2  0  0  0
 24 25  1  0  0  0
 25 26  2  0  0  0
 24 27  1  0  0  0
 27 28  2  0  0  0
 28 29  1  0  0  0
 29 30  2  0  0  0
 30 31  1  0  0  0
 31 32  2  0  0  0
 18 13  1  0  0  0
  7  1  1  0  0  0
 12  7  1  0  0  0
 26 21  1  0  0  0
 32 27  1  0  0  0
 39 34  1  0  0  0
M  END
> <minimizedAffinity>
-8.25408

> <CNNscore>
0.1009825692

> <CNNaffinity>
6.5498414040

> <CNN_VS>
0.6614198089

> <CNNaffinity_variance>
0.2080289572

$$$$
[H]c1nc(OC([H])([H])[H])c([H])c(N2C(=O)N(c3c([H])c([H])c(-c4c([H])c([H])c([H])c([H])c4[H])c([H])c3[H])C(=O)C23C([H])([H])C([H])([H])N(C([H])([H])c2nc([H])c([H])c([H])c2C([H])([H])[H])C([H])([H])C3([H])[H])n1


 40 45  0  0  0  0  0  0  0  0999 V2000
  -87.2531   29.6959   -0.2339 N   0  0  0  0  0  0  0  0  0  0  0  0
  -87.2117   30.7996   -1.1556 C   0  0  0  0  0  0  0  0  0  0  0  0
  -86.2414   31.6153   -1.2900 O   0  0  0  0  0  0  0  0  0  0  0  0
  -88.4028   30.8748   -1.9126 N   0  0  0  0  0  0  0  0  0  0  0  0
  -89.2144   29.8155   -1.4779 C   0  0  0  0  0  0  0  0  0  0  0  0
  -90.4237   29.6643   -1.7989 O   0  0  0  0  0  0  0  0  0  0  0  0
  -88.4156   28.9286   -0.5953 C   0  0  0  0  0  0  0  0  0  0  0  0
  -89.2836   28.5571    0.5926 C   0  0  0  0  0  0  0  0  0  0  0  0
  -88.9555   27.1599    1.0352 C   0  0  0  0  0  0  0  0  0  0  0  0
  -89.3328   26.1555    0.0394 N   0  0  0  0  0  0  0  0  0  0  0  0
  -89.2762   26.6942   -1.2891 C   0  0  0  0  0  0  0  0  0  0  0  0
  -88.0933   27.6754   -1.3392 C   0  0  0  0  0  0  0  0  0  0  0  0
  -84.0229   29.8602    1.6007 C   0  0  0  0  0  0  0  0  0  0  0  0
  -84.9812   30.0102    0.6057 C   0  0  0  0  0  0  0  0  0  0  0  0
  -86.2683   29.5434    0.7655 C   0  0  0  0  0  0  0  0  0  0  0  0
  -86.5555   28.9361    1.9279 N   0  0  0  0  0  0  0  0  0  0  0  0
  -85.6481   28.7755    2.9119 C   0  0  0  0  0  0  0  0  0  0  0  0
  -84.4145   29.2370    2.7269 N   0  0  0  0  0  0  0  0  0  0  0  0
  -82.4611   31.4564    0.6721 C   0  0  0  0  0  0  0  0  0  0  0  0
  -82.7288   30.3256    1.4488 O   0  0  0  0  0  0  0  0  0  0  0  0
  -88.7427   31.8326   -2.9313 C   0  0  0  0  0  0  0  0  0  0  0  0
  -88.5830   31.5230   -4.2699 C   0  0  0  0  0  0  0  0  0  0  0  0
  -88.9125   32.4709   -5.2357 C   0  0  0  0  0  0  0  0  0  0  0  0
  -89.3965   33.7186   -4.9100 C   0  0  0  0  0  0  0  0  0  0  0  0
  -89.5465   34.0037   -3.5737 C   0  0  0  0  0  0  0  0  0  0  0  0
  -89.2243   33.0733   -2.5835 C   0  0  0  0  0  0  0  0  0  0  0  0
  -89.7071   34.6331   -5.9952 C   0  0  0  0  0  0  0  0  0  0  0  0
  -90.7872   34.3735   -6.8081 C   0  0  0  0  0  0  0  0  0  0  0  0
  -91.1367   35.2118   -7.8626 C   0  0  0  0  0  0  0  0  0  0  0  0
  -90.3902   36.3387   -8.1146 C   0  0  0  0  0  0  0  0  0  0  0  0
  -89.3108   36.6104   -7.3136 C   0  0  0  0  0  0  0  0  0  0  0  0
  -88.9748   35.7675   -6.2678 C   0  0  0  0  0  0  0  0  0  0  0  0
  -90.5958   25.5606    0.4028 C   0  0  0  0  0  0  0  0  0  0  0  0
  -90.5463   24.5238    1.4023 C   0  0  0  0  0  0  0  0  0  0  0  0
  -90.5280   24.6997    2.7168 N   0  0  0  0  0  0  0  0  0  0  0  0
  -90.4959   23.7073    3.6251 C   0  0  0  0  0  0  0  0  0  0  0  0
  -90.4794   22.3853    3.2270 C   0  0  0  0  0  0  0  0  0  0  0  0
  -90.4973   22.1504    1.8678 C   0  0  0  0  0  0  0  0  0  0  0  0
  -90.5302   23.1967    0.9728 C   0  0  0  0  0  0  0  0  0  0  0  0
  -90.5512   22.9127   -0.4682 C   0  0  0  0  0  0  0  0  0  0  0  0
 19 20  1  0  0  0
 20 13  1  0  0  0
 13 14  2  0  0  0
 14 15  1  0  0  0
 15 16  2  0  0  0
 16 17  1  0  0  0
 17 18  2  0  0  0
 15  1  1  0  0  0
  1  2  1  0  0  0
  2  3  2  0  0  0
  2  4  1  0  0  0
  4  5  1  0  0  0
  5  6  2  0  0  0
  5  7  1  0  0  0
  7  8  1  0  0  0
  8  9  1  0  0  0
  9 10  1  0  0  0
 10 33  1  0  0  0
 33 34  1  0  0  0
 34 35  2  0  0  0
 35 36  1  0  0  0
 36 37  2  0  0  0
 37 38  1  0  0  0
 38 39  2  0  0  0
 39 40  1  0  0  0
 10 11  1  0  0  0
 11 12  1  0  0  0
  4 21  1  0  0  0
 21 22  2  0  0  0
 22 23  1  0  0  0
 23 24  2  0  0  0
 24 25  1  0  0  0
 25 26  2  0  0  0
 24 27  1  0  0  0
 27 28  2  0  0  0
 28 29  1  0  0  0
 29 30  2  0  0  0
 30 31  1  0  0  0
 31 32  2  0  0  0
 18 13  1  0  0  0
  7  1  1  0  0  0
 12  7  1  0  0  0
 26 21  1  0  0  0
 32 27  1  0  0  0
 39 34  1  0  0  0
M  END
> <minimizedAffinity>
-9.45410

> <CNNscore>
0.0888220072

> <CNNaffinity>
6.7048711777

> <CNN_VS>
0.5955401063

> <CNNaffinity_variance>
0.1784823686

$$$$
[H]ON([H])C(=O)C([H])([H])N(C([H])([H])c1c([H])c([H])c([N+](=O)[O-])c([H])c1[H])S(=O)(=O)c1c([H])c([H])c(Cl)c([H])c1Cl


 29 30  0  0  0  0  0  0  0  0999 V2000
  -87.4848   27.4314    0.4881 N   0  0  0  0  0  0  0  0  0  0  0  0
  -86.3867   27.8649    1.6933 S   0  0  0  0  0  0  0  0  0  0  0  0
  -87.1023   28.2611    2.9585 O   0  0  0  0  0  0  0  0  0  0  0  0
  -85.6258   26.5945    2.0855 O   0  0  0  0  0  0  0  0  0  0  0  0
  -85.2574   29.1132    1.2859 C   0  0  0  0  0  0  0  0  0  0  0  0
  -85.5371   30.1629    0.4652 C   0  0  0  0  0  0  0  0  0  0  0  0
  -84.5585   31.1242    0.1738 C   0  0  0  0  0  0  0  0  0  0  0  0
  -83.2951   31.0321    0.7070 C   0  0  0  0  0  0  0  0  0  0  0  0
  -82.0620   32.2462    0.3379 Cl  0  0  0  0  0  0  0  0  0  0  0  0
  -83.0111   29.9738    1.5346 C   0  0  0  0  0  0  0  0  0  0  0  0
  -83.9831   29.0391    1.8107 C   0  0  0  0  0  0  0  0  0  0  0  0
  -83.5249   27.7149    2.8844 Cl  0  0  0  0  0  0  0  0  0  0  0  0
  -87.8224   26.0327    0.4418 C   0  0  0  0  0  0  0  0  0  0  0  0
  -89.6874   25.1972    3.6161 O   0  0  0  0  0  0  0  0  0  0  0  0
  -88.6922   25.5768    2.7685 N   0  0  0  0  0  0  0  0  0  0  0  0
  -88.8516   25.6356    1.3777 C   0  0  0  0  0  0  0  0  0  0  0  0
  -89.9883   25.3148    0.9087 O   0  0  0  0  0  0  0  0  0  0  0  0
  -89.9253   24.2634    3.4384 H   0  0  0  0  0  0  0  0  0  0  0  0
  -87.7844   25.8301    3.1877 H   0  0  0  0  0  0  0  0  0  0  0  0
  -88.6263   28.2798    0.3843 C   0  0  0  0  0  0  0  0  0  0  0  0
  -88.6186   29.1914   -0.7620 C   0  0  0  0  0  0  0  0  0  0  0  0
  -88.1355   28.7215   -1.9757 C   0  0  0  0  0  0  0  0  0  0  0  0
  -88.0884   29.4962   -3.0984 C   0  0  0  0  0  0  0  0  0  0  0  0
  -88.5347   30.7917   -3.0322 C   0  0  0  0  0  0  0  0  0  0  0  0
  -89.0260   31.3182   -1.8574 C   0  0  0  0  0  0  0  0  0  0  0  0
  -89.0541   30.4858   -0.7343 C   0  0  0  0  0  0  0  0  0  0  0  0
  -88.4962   31.6222   -4.1914 N   0  0  0  0  0  0  0  0  0  0  0  0
  -88.2571   31.0293   -5.3997 O   0  0  0  0  0  0  0  0  0  0  0  0
  -88.6658   32.8386   -4.1630 O   0  0  0  0  0  0  0  0  0  0  0  0
 14 15  1  0  0  0
 15 16  1  0  0  0
 16 17  2  0  0  0
 16 13  1  0  0  0
 13  1  1  0  0  0
  1 20  1  0  0  0
 20 21  1  0  0  0
 21 22  2  0  0  0
 22 23  1  0  0  0
 23 24  2  0  0  0
 24 25  1  0  0  0
 25 26  2  0  0  0
 24 27  1  0  0  0
 27 28  1  0  0  0
 27 29  2  0  0  0
  1  2  1  0  0  0
  2  3  2  0  0  0
  2  4  2  0  0  0
  2  5  1  0  0  0
  5  6  2  0  0  0
  6  7  1  0  0  0
  7  8  2  0  0  0
  8  9  1  0  0  0
  8 10  1  0  0  0
 10 11  2  0  0  0
 11 12  1  0  0  0
 26 21  1  0  0  0
 11  5  1  0  0  0
 14 18  1  0  0  0
 15 19  1  0  0  0
M  CHG 1  27   1
M  CHG 1  28  -1
M  END
> <minimizedAffinity>
-8.00717

> <CNNscore>
0.5950269699

> <CNNaffinity>
6.8216590881

> <CNN_VS>
4.0590710640

> <CNNaffinity_variance>
0.2222561091

$$$$
[H]ON([H])C(=O)C([H])([H])N(C([H])([H])c1c([H])c([H])c([N+](=O)[O-])c([H])c1[H])S(=O)(=O)c1c([H])c([H])c(Cl)c([H])c1Cl


 29 30  0  0  0  0  0  0  0  0999 V2000
  -89.7753   25.5859   -0.4386 N   0  0  0  0  0  0  0  0  0  0  0  0
  -90.9365   26.4142    0.4624 S   0  0  0  0  0  0  0  0  0  0  0  0
  -91.2132   27.7711   -0.1310 O   0  0  0  0  0  0  0  0  0  0  0  0
  -92.2598   25.6621    0.2892 O   0  0  0  0  0  0  0  0  0  0  0  0
  -90.5987   26.6100    2.1497 C   0  0  0  0  0  0  0  0  0  0  0  0
  -90.2614   27.7933    2.7325 C   0  0  0  0  0  0  0  0  0  0  0  0
  -89.9879   27.8624    4.1062 C   0  0  0  0  0  0  0  0  0  0  0  0
  -90.0524   26.7407    4.8979 C   0  0  0  0  0  0  0  0  0  0  0  0
  -89.7068   26.8304    6.6309 Cl  0  0  0  0  0  0  0  0  0  0  0  0
  -90.3920   25.5463    4.3118 C   0  0  0  0  0  0  0  0  0  0  0  0
  -90.6577   25.4958    2.9621 C   0  0  0  0  0  0  0  0  0  0  0  0
  -91.0854   23.9169    2.2986 Cl  0  0  0  0  0  0  0  0  0  0  0  0
  -90.2950   24.5911   -1.3402 C   0  0  0  0  0  0  0  0  0  0  0  0
  -88.7097   21.4902    0.1170 O   0  0  0  0  0  0  0  0  0  0  0  0
  -88.9037   22.7858   -0.2524 N   0  0  0  0  0  0  0  0  0  0  0  0
  -90.0488   23.2261   -0.9294 C   0  0  0  0  0  0  0  0  0  0  0  0
  -90.9345   22.3559   -1.2003 O   0  0  0  0  0  0  0  0  0  0  0  0
  -88.6519   20.9301   -0.6849 H   0  0  0  0  0  0  0  0  0  0  0  0
  -88.1622   23.4621   -0.0141 H   0  0  0  0  0  0  0  0  0  0  0  0
  -88.7818   26.4130   -1.0405 C   0  0  0  0  0  0  0  0  0  0  0  0
  -87.8365   27.0266   -0.1051 C   0  0  0  0  0  0  0  0  0  0  0  0
  -87.1957   26.2098    0.8165 C   0  0  0  0  0  0  0  0  0  0  0  0
  -86.2998   26.6899    1.7273 C   0  0  0  0  0  0  0  0  0  0  0  0
  -86.0165   28.0322    1.7383 C   0  0  0  0  0  0  0  0  0  0  0  0
  -86.6188   28.8960    0.8497 C   0  0  0  0  0  0  0  0  0  0  0  0
  -87.5295   28.3570   -0.0642 C   0  0  0  0  0  0  0  0  0  0  0  0
  -85.0838   28.5592    2.6802 N   0  0  0  0  0  0  0  0  0  0  0  0
  -83.9686   27.8209    2.9632 O   0  0  0  0  0  0  0  0  0  0  0  0
  -85.2279   29.6382    3.2498 O   0  0  0  0  0  0  0  0  0  0  0  0
 14 15  1  0  0  0
 15 16  1  0  0  0
 16 17  2  0  0  0
 16 13  1  0  0  0
 13  1  1  0  0  0
  1 20  1  0  0  0
 20 21  1  0  0  0
 21 22  2  0  0  0
 22 23  1  0  0  0
 23 24  2  0  0  0
 24 25  1  0  0  0
 25 26  2  0  0  0
 24 27  1  0  0  0
 27 28  1  0  0  0
 27 29  2  0  0  0
  1  2  1  0  0  0
  2  3  2  0  0  0
  2  4  2  0  0  0
  2  5  1  0  0  0
  5  6  2  0  0  0
  6  7  1  0  0  0
  7  8  2  0  0  0
  8  9  1  0  0  0
  8 10  1  0  0  0
 10 11  2  0  0  0
 11 12  1  0  0  0
 26 21  1  0  0  0
 11  5  1  0  0  0
 14 18  1  0  0  0
 15 19  1  0  0  0
M  CHG 1  27   1
M  CHG 1  28  -1
M  END
> <minimizedAffinity>
-8.05598

> <CNNscore>
0.5267325640

> <CNNaffinity>
6.1926522255

> <CNN_VS>
3.2618715763

> <CNNaffinity_variance>
0.2600992620

$$$$
[H]ON([H])C(=O)C([H])([H])N(C([H])([H])c1c([H])c([H])c([N+](=O)[O-])c([H])c1[H])S(=O)(=O)c1c([H])c([H])c(Cl)c([H])c1Cl


 29 30  0  0  0  0  0  0  0  0999 V2000
  -88.9664   28.3810   -1.1054 N   0  0  0  0  0  0  0  0  0  0  0  0
  -88.4691   29.9916   -1.1758 S   0  0  0  0  0  0  0  0  0  0  0  0
  -88.5630   30.5245   -2.5819 O   0  0  0  0  0  0  0  0  0  0  0  0
  -89.5035   30.8152   -0.4023 O   0  0  0  0  0  0  0  0  0  0  0  0
  -86.8848   30.3302   -0.5637 C   0  0  0  0  0  0  0  0  0  0  0  0
  -85.9732   29.3774   -0.2249 C   0  0  0  0  0  0  0  0  0  0  0  0
  -84.7151   29.7374    0.2791 C   0  0  0  0  0  0  0  0  0  0  0  0
  -84.3702   31.0577    0.4443 C   0  0  0  0  0  0  0  0  0  0  0  0
  -82.7822   31.5095    1.0805 Cl  0  0  0  0  0  0  0  0  0  0  0  0
  -85.2885   32.0200    0.1035 C   0  0  0  0  0  0  0  0  0  0  0  0
  -86.5189   31.6497   -0.3901 C   0  0  0  0  0  0  0  0  0  0  0  0
  -87.6326   32.9565   -0.8003 Cl  0  0  0  0  0  0  0  0  0  0  0  0
  -89.2960   27.7861   -2.3742 C   0  0  0  0  0  0  0  0  0  0  0  0
  -92.5271   26.2188   -3.5387 O   0  0  0  0  0  0  0  0  0  0  0  0
  -91.1998   26.4949   -3.4166 N   0  0  0  0  0  0  0  0  0  0  0  0
  -90.6965   27.4612   -2.5355 C   0  0  0  0  0  0  0  0  0  0  0  0
  -91.5385   28.0970   -1.8272 O   0  0  0  0  0  0  0  0  0  0  0  0
  -92.9923   27.0107   -3.8802 H   0  0  0  0  0  0  0  0  0  0  0  0
  -90.5480   25.9572   -4.0081 H   0  0  0  0  0  0  0  0  0  0  0  0
  -88.1520   27.5375   -0.2937 C   0  0  0  0  0  0  0  0  0  0  0  0
  -88.6857   27.2595    1.0416 C   0  0  0  0  0  0  0  0  0  0  0  0
  -89.9312   27.7744    1.3748 C   0  0  0  0  0  0  0  0  0  0  0  0
  -90.5099   27.5692    2.5938 C   0  0  0  0  0  0  0  0  0  0  0  0
  -89.8399   26.8255    3.5318 C   0  0  0  0  0  0  0  0  0  0  0  0
  -88.6004   26.2868    3.2632 C   0  0  0  0  0  0  0  0  0  0  0  0
  -88.0487   26.5244    2.0005 C   0  0  0  0  0  0  0  0  0  0  0  0
  -90.4228   26.5964    4.8134 N   0  0  0  0  0  0  0  0  0  0  0  0
  -91.5530   25.8300    4.8782 O   0  0  0  0  0  0  0  0  0  0  0  0
  -89.9655   27.0493    5.8598 O   0  0  0  0  0  0  0  0  0  0  0  0
 14 15  1  0  0  0
 15 16  1  0  0  0
 16 17  2  0  0  0
 16 13  1  0  0  0
 13  1  1  0  0  0
  1 20  1  0  0  0
 20 21  1  0  0  0
 21 22  2  0  0  0
 22 23  1  0  0  0
 23 24  2  0  0  0
 24 25  1  0  0  0
 25 26  2  0  0  0
 24 27  1  0  0  0
 27 28  1  0  0  0
 27 29  2  0  0  0
  1  2  1  0  0  0
  2  3  2  0  0  0
  2  4  2  0  0  0
  2  5  1  0  0  0
  5  6  2  0  0  0
  6  7  1  0  0  0
  7  8  2  0  0  0
  8  9  1  0  0  0
  8 10  1  0  0  0
 10 11  2  0  0  0
 11 12  1  0  0  0
 26 21  1  0  0  0
 11  5  1  0  0  0
 14 18  1  0  0  0
 15 19  1  0  0  0
M  CHG 1  27   1
M  CHG 1  28  -1
M  END
> <minimizedAffinity>
-7.70264

> <CNNscore>
0.3162695467

> <CNNaffinity>
6.0221409798

> <CNN_VS>
1.9046198130

> <CNNaffinity_variance>
0.1946653575

$$$$
[H]ON([H])C(=O)C([H])([H])N(C([H])([H])c1c([H])c([H])c([N+](=O)[O-])c([H])c1[H])S(=O)(=O)c1c([H])c([H])c(Cl)c([H])c1Cl


 29 30  0  0  0  0  0  0  0  0999 V2000
  -87.6663   27.3901   -0.5376 N   0  0  0  0  0  0  0  0  0  0  0  0
  -86.9454   28.1334    0.7942 S   0  0  0  0  0  0  0  0  0  0  0  0
  -87.9711   28.4712    1.8447 O   0  0  0  0  0  0  0  0  0  0  0  0
  -86.0607   27.0817    1.4711 O   0  0  0  0  0  0  0  0  0  0  0  0
  -86.0083   29.5520    0.4639 C   0  0  0  0  0  0  0  0  0  0  0  0
  -84.6542   29.6227    0.5859 C   0  0  0  0  0  0  0  0  0  0  0  0
  -83.9723   30.8174    0.3129 C   0  0  0  0  0  0  0  0  0  0  0  0
  -84.6510   31.9450   -0.0834 C   0  0  0  0  0  0  0  0  0  0  0  0
  -83.7885   33.4512   -0.4273 Cl  0  0  0  0  0  0  0  0  0  0  0  0
  -86.0168   31.8756   -0.2066 C   0  0  0  0  0  0  0  0  0  0  0  0
  -86.6708   30.6951    0.0650 C   0  0  0  0  0  0  0  0  0  0  0  0
  -88.4262   30.7024   -0.1212 Cl  0  0  0  0  0  0  0  0  0  0  0  0
  -87.2005   27.8478   -1.8206 C   0  0  0  0  0  0  0  0  0  0  0  0
  -90.5363   28.8518   -3.2754 O   0  0  0  0  0  0  0  0  0  0  0  0
  -89.6035   28.2705   -2.4725 N   0  0  0  0  0  0  0  0  0  0  0  0
  -88.2246   28.4458   -2.6491 C   0  0  0  0  0  0  0  0  0  0  0  0
  -87.8514   29.1872   -3.6115 O   0  0  0  0  0  0  0  0  0  0  0  0
  -90.4418   28.5032   -4.1863 H   0  0  0  0  0  0  0  0  0  0  0  0
  -89.9462   27.6764   -1.7020 H   0  0  0  0  0  0  0  0  0  0  0  0
  -87.7547   25.9692   -0.4559 C   0  0  0  0  0  0  0  0  0  0  0  0
  -89.1115   25.4407   -0.2985 C   0  0  0  0  0  0  0  0  0  0  0  0
  -89.7306   25.5691    0.9374 C   0  0  0  0  0  0  0  0  0  0  0  0
  -90.9920   25.1078    1.1798 C   0  0  0  0  0  0  0  0  0  0  0  0
  -91.6815   24.4916    0.1665 C   0  0  0  0  0  0  0  0  0  0  0  0
  -91.1230   24.3329   -1.0832 C   0  0  0  0  0  0  0  0  0  0  0  0
  -89.8284   24.8220   -1.2829 C   0  0  0  0  0  0  0  0  0  0  0  0
  -93.0013   24.0006    0.3940 N   0  0  0  0  0  0  0  0  0  0  0  0
  -93.1820   23.0771    1.3856 O   0  0  0  0  0  0  0  0  0  0  0  0
  -93.9824   24.3617   -0.2513 O   0  0  0  0  0  0  0  0  0  0  0  0
 14 15  1  0  0  0
 15 16  1  0  0  0
 16 17  2  0  0  0
 16 13  1  0  0  0
 13  1  1  0  0  0
  1 20  1  0  0  0
 20 21  1  0  0  0
 21 22  2  0  0  0
 22 23  1  0  0  0
 23 24  2  0  0  0
 24 25  1  0  0  0
 25 26  2  0  0  0
 24 27  1  0  0  0
 27 28  1  0  0  0
 27 29  2  0  0  0
  1  2  1  0  0  0
  2  3  2  0  0  0
  2  4  2  0  0  0
  2  5  1  0  0  0
  5  6  2  0  0  0
  6  7  1  0  0  0
  7  8  2  0  0  0
  8  9  1  0  0  0
  8 10  1  0  0  0
 10 11  2  0  0  0
 11 12  1  0  0  0
 26 21  1  0  0  0
 11  5  1  0  0  0
 14 18  1  0  0  0
 15 19  1  0  0  0
M  CHG 1  27   1
M  CHG 1  28  -1
M  END
> <minimizedAffinity>
-7.00163

> <CNNscore>
0.2449110448

> <CNNaffinity>
6.1892080307

> <CNN_VS>
1.5158053637

> <CNNaffinity_variance>
0.2707322240

$$$$
[H]ON([H])C(=O)C([H])([H])N(C([H])([H])c1c([H])c([H])c([N+](=O)[O-])c([H])c1[H])S(=O)(=O)c1c([H])c([H])c(Cl)c([H])c1Cl


 29 30  0  0  0  0  0  0  0  0999 V2000
  -89.7071   28.6280   -1.8034 N   0  0  0  0  0  0  0  0  0  0  0  0
  -88.3007   29.3674   -2.3705 S   0  0  0  0  0  0  0  0  0  0  0  0
  -87.1509   29.1375   -1.4245 O   0  0  0  0  0  0  0  0  0  0  0  0
  -87.8832   28.6224   -3.6423 O   0  0  0  0  0  0  0  0  0  0  0  0
  -88.4093   31.0636   -2.7028 C   0  0  0  0  0  0  0  0  0  0  0  0
  -88.0592   31.6376   -3.8866 C   0  0  0  0  0  0  0  0  0  0  0  0
  -88.1635   33.0243   -4.0684 C   0  0  0  0  0  0  0  0  0  0  0  0
  -88.6200   33.8379   -3.0591 C   0  0  0  0  0  0  0  0  0  0  0  0
  -88.7507   35.5873   -3.2908 Cl  0  0  0  0  0  0  0  0  0  0  0  0
  -88.9731   33.2609   -1.8643 C   0  0  0  0  0  0  0  0  0  0  0  0
  -88.8650   31.8982   -1.7024 C   0  0  0  0  0  0  0  0  0  0  0  0
  -89.3422   31.2478   -0.1322 Cl  0  0  0  0  0  0  0  0  0  0  0  0
  -90.8196   28.6466   -2.7170 C   0  0  0  0  0  0  0  0  0  0  0  0
  -94.1755   29.6951   -1.3419 O   0  0  0  0  0  0  0  0  0  0  0  0
  -93.1377   28.9153   -1.7514 N   0  0  0  0  0  0  0  0  0  0  0  0
  -91.9456   29.4376   -2.2706 C   0  0  0  0  0  0  0  0  0  0  0  0
  -91.8523   30.7023   -2.3532 O   0  0  0  0  0  0  0  0  0  0  0  0
  -94.5327   30.1879   -2.1097 H   0  0  0  0  0  0  0  0  0  0  0  0
  -93.2516   27.8936   -1.6679 H   0  0  0  0  0  0  0  0  0  0  0  0
  -89.5107   27.3525   -1.1968 C   0  0  0  0  0  0  0  0  0  0  0  0
  -89.7198   27.3167    0.2524 C   0  0  0  0  0  0  0  0  0  0  0  0
  -90.7808   28.0370    0.7841 C   0  0  0  0  0  0  0  0  0  0  0  0
  -91.0546   28.0648    2.1209 C   0  0  0  0  0  0  0  0  0  0  0  0
  -90.2536   27.3551    2.9792 C   0  0  0  0  0  0  0  0  0  0  0  0
  -89.1847   26.6201    2.5146 C   0  0  0  0  0  0  0  0  0  0  0  0
  -88.9444   26.6225    1.1371 C   0  0  0  0  0  0  0  0  0  0  0  0
  -90.5184   27.3677    4.3808 N   0  0  0  0  0  0  0  0  0  0  0  0
  -91.1965   26.3086    4.9168 O   0  0  0  0  0  0  0  0  0  0  0  0
  -90.1710   28.2766    5.1308 O   0  0  0  0  0  0  0  0  0  0  0  0
 14 15  1  0  0  0
 15 16  1  0  0  0
 16 17  2  0  0  0
 16 13  1  0  0  0
 13  1  1  0  0  0
  1 20  1  0  0  0
 20 21  1  0  0  0
 21 22  2  0  0  0
 22 23  1  0  0  0
 23 24  2  0  0  0
 24 25  1  0  0  0
 25 26  2  0  0  0
 24 27  1  0  0  0
 27 28  1  0  0  0
 27 29  2  0  0  0
  1  2  1  0  0  0
  2  3  2  0  0  0
  2  4  2  0  0  0
  2  5  1  0  0  0
  5  6  2  0  0  0
  6  7  1  0  0  0
  7  8  2  0  0  0
  8  9  1  0  0  0
  8 10  1  0  0  0
 10 11  2  0  0  0
 11 12  1  0  0  0
 26 21  1  0  0  0
 11  5  1  0  0  0
 14 18  1  0  0  0
 15 19  1  0  0  0
M  CHG 1  27   1
M  CHG 1  28  -1
M  END
> <minimizedAffinity>
-7.31526

> <CNNscore>
0.2053327113

> <CNNaffinity>
5.6503410339

> <CNN_VS>
1.1601998806

> <CNNaffinity_variance>
0.2439388931

$$$$
[H]ON([H])C(=O)C([H])([H])N(C([H])([H])c1c([H])c([H])c([N+](=O)[O-])c([H])c1[H])S(=O)(=O)c1c([H])c([H])c(Cl)c([H])c1Cl


 29 30  0  0  0  0  0  0  0  0999 V2000
  -88.7592   28.8703   -1.0524 N   0  0  0  0  0  0  0  0  0  0  0  0
  -90.2334   28.3961   -0.3831 S   0  0  0  0  0  0  0  0  0  0  0  0
  -91.3056   29.4176   -0.6603 O   0  0  0  0  0  0  0  0  0  0  0  0
  -90.6993   27.1576   -1.1549 O   0  0  0  0  0  0  0  0  0  0  0  0
  -90.2271   28.0518    1.3142 C   0  0  0  0  0  0  0  0  0  0  0  0
  -91.0405   28.6568    2.2230 C   0  0  0  0  0  0  0  0  0  0  0  0
  -90.9605   28.3304    3.5845 C   0  0  0  0  0  0  0  0  0  0  0  0
  -90.0613   27.3941    4.0360 C   0  0  0  0  0  0  0  0  0  0  0  0
  -89.9621   26.9838    5.7544 Cl  0  0  0  0  0  0  0  0  0  0  0  0
  -89.2398   26.7831    3.1210 C   0  0  0  0  0  0  0  0  0  0  0  0
  -89.3313   27.1149    1.7882 C   0  0  0  0  0  0  0  0  0  0  0  0
  -88.2347   26.2771    0.6874 Cl  0  0  0  0  0  0  0  0  0  0  0  0
  -88.5660   28.5024   -2.4307 C   0  0  0  0  0  0  0  0  0  0  0  0
  -87.9634   31.2798   -4.9157 O   0  0  0  0  0  0  0  0  0  0  0  0
  -87.7357   30.2654   -4.0372 N   0  0  0  0  0  0  0  0  0  0  0  0
  -88.7630   29.5843   -3.3707 C   0  0  0  0  0  0  0  0  0  0  0  0
  -89.9558   29.9488   -3.6146 O   0  0  0  0  0  0  0  0  0  0  0  0
  -88.3784   32.0308   -4.4425 H   0  0  0  0  0  0  0  0  0  0  0  0
  -86.7541   29.9985   -3.8664 H   0  0  0  0  0  0  0  0  0  0  0  0
  -88.3848   30.2196   -0.7822 C   0  0  0  0  0  0  0  0  0  0  0  0
  -87.0151   30.3969   -0.2949 C   0  0  0  0  0  0  0  0  0  0  0  0
  -86.3532   29.2949    0.2291 C   0  0  0  0  0  0  0  0  0  0  0  0
  -85.0767   29.3623    0.7075 C   0  0  0  0  0  0  0  0  0  0  0  0
  -84.4154   30.5638    0.6723 C   0  0  0  0  0  0  0  0  0  0  0  0
  -85.0168   31.6949    0.1648 C   0  0  0  0  0  0  0  0  0  0  0  0
  -86.3253   31.5758   -0.3135 C   0  0  0  0  0  0  0  0  0  0  0  0
  -83.0807   30.6609    1.1662 N   0  0  0  0  0  0  0  0  0  0  0  0
  -82.5639   29.5886    1.8383 O   0  0  0  0  0  0  0  0  0  0  0  0
  -82.3718   31.6537    1.0206 O   0  0  0  0  0  0  0  0  0  0  0  0
 14 15  1  0  0  0
 15 16  1  0  0  0
 16 17  2  0  0  0
 16 13  1  0  0  0
 13  1  1  0  0  0
  1 20  1  0  0  0
 20 21  1  0  0  0
 21 22  2  0  0  0
 22 23  1  0  0  0
 23 24  2  0  0  0
 24 25  1  0  0  0
 25 26  2  0  0  0
 24 27  1  0  0  0
 27 28  1  0  0  0
 27 29  2  0  0  0
  1  2  1  0  0  0
  2  3  2  0  0  0
  2  4  2  0  0  0
  2  5  1  0  0  0
  5  6  2  0  0  0
  6  7  1  0  0  0
  7  8  2  0  0  0
  8  9  1  0  0  0
  8 10  1  0  0  0
 10 11  2  0  0  0
 11 12  1  0  0  0
 26 21  1  0  0  0
 11  5  1  0  0  0
 14 18  1  0  0  0
 15 19  1  0  0  0
M  CHG 1  27   1
M  CHG 1  28  -1
M  END
> <minimizedAffinity>
-8.19054

> <CNNscore>
0.1848375797

> <CNNaffinity>
6.2216415405

> <CNN_VS>
1.1499931812

> <CNNaffinity_variance>
0.0554988272

$$$$
[H]ON([H])C(=O)C([H])([H])N(C([H])([H])c1c([H])c([H])c([N+](=O)[O-])c([H])c1[H])S(=O)(=O)c1c([H])c([H])c(Cl)c([H])c1Cl


 29 30  0  0  0  0  0  0  0  0999 V2000
  -88.6923   29.3589   -1.3656 N   0  0  0  0  0  0  0  0  0  0  0  0
  -88.9690   27.7712   -0.8669 S   0  0  0  0  0  0  0  0  0  0  0  0
  -90.1366   27.1694   -1.6045 O   0  0  0  0  0  0  0  0  0  0  0  0
  -87.7715   26.9383   -1.3349 O   0  0  0  0  0  0  0  0  0  0  0  0
  -89.2101   27.5343    0.8318 C   0  0  0  0  0  0  0  0  0  0  0  0
  -88.3387   26.8780    1.6463 C   0  0  0  0  0  0  0  0  0  0  0  0
  -88.6178   26.7163    3.0111 C   0  0  0  0  0  0  0  0  0  0  0  0
  -89.7750   27.2143    3.5606 C   0  0  0  0  0  0  0  0  0  0  0  0
  -90.1250   27.0091    5.2829 Cl  0  0  0  0  0  0  0  0  0  0  0  0
  -90.6552   27.8762    2.7406 C   0  0  0  0  0  0  0  0  0  0  0  0
  -90.3660   28.0265    1.4031 C   0  0  0  0  0  0  0  0  0  0  0  0
  -91.5571   28.8913    0.4286 Cl  0  0  0  0  0  0  0  0  0  0  0  0
  -89.5876   29.8460   -2.3824 C   0  0  0  0  0  0  0  0  0  0  0  0
  -88.8494   31.3143   -5.7811 O   0  0  0  0  0  0  0  0  0  0  0  0
  -89.4886   31.0209   -4.6157 N   0  0  0  0  0  0  0  0  0  0  0  0
  -88.9437   30.1838   -3.6330 C   0  0  0  0  0  0  0  0  0  0  0  0
  -87.7970   29.6869   -3.8633 O   0  0  0  0  0  0  0  0  0  0  0  0
  -88.7405   30.4940   -6.3060 H   0  0  0  0  0  0  0  0  0  0  0  0
  -90.4173   31.4440   -4.4657 H   0  0  0  0  0  0  0  0  0  0  0  0
  -88.4963   30.2940   -0.3070 C   0  0  0  0  0  0  0  0  0  0  0  0
  -87.1384   30.8320   -0.1990 C   0  0  0  0  0  0  0  0  0  0  0  0
  -86.9195   32.1511   -0.5723 C   0  0  0  0  0  0  0  0  0  0  0  0
  -85.6898   32.7398   -0.5071 C   0  0  0  0  0  0  0  0  0  0  0  0
  -84.6232   32.0046   -0.0556 C   0  0  0  0  0  0  0  0  0  0  0  0
  -84.7742   30.6904    0.3300 C   0  0  0  0  0  0  0  0  0  0  0  0
  -86.0531   30.1315    0.2453 C   0  0  0  0  0  0  0  0  0  0  0  0
  -83.3276   32.5964    0.0221 N   0  0  0  0  0  0  0  0  0  0  0  0
  -82.3400   31.9006    0.6618 O   0  0  0  0  0  0  0  0  0  0  0  0
  -83.0516   33.6949   -0.4537 O   0  0  0  0  0  0  0  0  0  0  0  0
 14 15  1  0  0  0
 15 16  1  0  0  0
 16 17  2  0  0  0
 16 13  1  0  0  0
 13  1  1  0  0  0
  1 20  1  0  0  0
 20 21  1  0  0  0
 21 22  2  0  0  0
 22 23  1  0  0  0
 23 24  2  0  0  0
 24 25  1  0  0  0
 25 26  2  0  0  0
 24 27  1  0  0  0
 27 28  1  0  0  0
 27 29  2  0  0  0
  1  2  1  0  0  0
  2  3  2  0  0  0
  2  4  2  0  0  0
  2  5  1  0  0  0
  5  6  2  0  0  0
  6  7  1  0  0  0
  7  8  2  0  0  0
  8  9  1  0  0  0
  8 10  1  0  0  0
 10 11  2  0  0  0
 11 12  1  0  0  0
 26 21  1  0  0  0
 11  5  1  0  0  0
 14 18  1  0  0  0
 15 19  1  0  0  0
M  CHG 1  27   1
M  CHG 1  28  -1
M  END
> <minimizedAffinity>
-8.10734

> <CNNscore>
0.1694522053

> <CNNaffinity>
6.0256714821

> <CNN_VS>
1.0210633278

> <CNNaffinity_variance>
0.2723177671

$$$$
[H]ON([H])C(=O)C([H])([H])N(C([H])([H])c1c([H])c([H])c([N+](=O)[O-])c([H])c1[H])S(=O)(=O)c1c([H])c([H])c(Cl)c([H])c1Cl


 29 30  0  0  0  0  0  0  0  0999 V2000
  -89.5521   30.1741   -1.4359 N   0  0  0  0  0  0  0  0  0  0  0  0
  -89.8737   28.5847   -0.9705 S   0  0  0  0  0  0  0  0  0  0  0  0
  -91.1336   28.0760   -1.6215 O   0  0  0  0  0  0  0  0  0  0  0  0
  -88.7708   27.7085   -1.5729 O   0  0  0  0  0  0  0  0  0  0  0  0
  -89.9784   28.2932    0.7335 C   0  0  0  0  0  0  0  0  0  0  0  0
  -91.0597   28.6040    1.5001 C   0  0  0  0  0  0  0  0  0  0  0  0
  -91.0570   28.3482    2.8789 C   0  0  0  0  0  0  0  0  0  0  0  0
  -89.9658   27.7790    3.4909 C   0  0  0  0  0  0  0  0  0  0  0  0
  -89.9647   27.4572    5.2308 Cl  0  0  0  0  0  0  0  0  0  0  0  0
  -88.8741   27.4652    2.7194 C   0  0  0  0  0  0  0  0  0  0  0  0
  -88.8932   27.7227    1.3673 C   0  0  0  0  0  0  0  0  0  0  0  0
  -87.4446   27.2851    0.4583 Cl  0  0  0  0  0  0  0  0  0  0  0  0
  -90.5145   30.7553   -2.3352 C   0  0  0  0  0  0  0  0  0  0  0  0
  -88.5792   30.9989   -5.5674 O   0  0  0  0  0  0  0  0  0  0  0  0
  -88.8923   31.0717   -4.2447 N   0  0  0  0  0  0  0  0  0  0  0  0
  -90.1402   30.6942   -3.7312 C   0  0  0  0  0  0  0  0  0  0  0  0
  -91.0043   30.2666   -4.5591 O   0  0  0  0  0  0  0  0  0  0  0  0
  -89.1558   31.6108   -6.0707 H   0  0  0  0  0  0  0  0  0  0  0  0
  -88.1641   31.4234   -3.6045 H   0  0  0  0  0  0  0  0  0  0  0  0
  -89.1923   31.0496   -0.3694 C   0  0  0  0  0  0  0  0  0  0  0  0
  -87.8106   31.5341   -0.4046 C   0  0  0  0  0  0  0  0  0  0  0  0
  -86.8209   30.7480    0.1696 C   0  0  0  0  0  0  0  0  0  0  0  0
  -85.5065   31.1156    0.1860 C   0  0  0  0  0  0  0  0  0  0  0  0
  -85.1419   32.3080   -0.3859 C   0  0  0  0  0  0  0  0  0  0  0  0
  -86.0763   33.1337   -0.9722 C   0  0  0  0  0  0  0  0  0  0  0  0
  -87.4101   32.7140   -0.9641 C   0  0  0  0  0  0  0  0  0  0  0  0
  -83.7748   32.7153   -0.3821 N   0  0  0  0  0  0  0  0  0  0  0  0
  -82.8228   31.7702   -0.1186 O   0  0  0  0  0  0  0  0  0  0  0  0
  -83.4071   33.8667   -0.6022 O   0  0  0  0  0  0  0  0  0  0  0  0
 14 15  1  0  0  0
 15 16  1  0  0  0
 16 17  2  0  0  0
 16 13  1  0  0  0
 13  1  1  0  0  0
  1 20  1  0  0  0
 20 21  1  0  0  0
 21 22  2  0  0  0
 22 23  1  0  0  0
 23 24  2  0  0  0
 24 25  1  0  0  0
 25 26  2  0  0  0
 24 27  1  0  0  0
 27 28  1  0  0  0
 27 29  2  0  0  0
  1  2  1  0  0  0
  2  3  2  0  0  0
  2  4  2  0  0  0
  2  5  1  0  0  0
  5  6  2  0  0  0
  6  7  1  0  0  0
  7  8  2  0  0  0
  8  9  1  0  0  0
  8 10  1  0  0  0
 10 11  2  0  0  0
 11 12  1  0  0  0
 26 21  1  0  0  0
 11  5  1  0  0  0
 14 18  1  0  0  0
 15 19  1  0  0  0
M  CHG 1  27   1
M  CHG 1  28  -1
M  END
> <minimizedAffinity>
-8.34840

> <CNNscore>
0.1459703445

> <CNNaffinity>
6.1109662056

> <CNN_VS>
0.8920198679

> <CNNaffinity_variance>
0.0790532380

$$$$
[H]ON([H])C(=O)C([H])([H])N(C([H])([H])c1c([H])c([H])c([N+](=O)[O-])c([H])c1[H])S(=O)(=O)c1c([H])c([H])c(Cl)c([H])c1Cl


 29 30  0  0  0  0  0  0  0  0999 V2000
  -88.9969   29.0041   -0.4607 N   0  0  0  0  0  0  0  0  0  0  0  0
  -90.2248   28.4833    0.5724 S   0  0  0  0  0  0  0  0  0  0  0  0
  -90.9177   29.6537    1.2204 O   0  0  0  0  0  0  0  0  0  0  0  0
  -91.3120   27.8535   -0.3040 O   0  0  0  0  0  0  0  0  0  0  0  0
  -89.7596   27.3651    1.8104 C   0  0  0  0  0  0  0  0  0  0  0  0
  -88.9120   26.3170    1.6186 C   0  0  0  0  0  0  0  0  0  0  0  0
  -88.5986   25.4475    2.6734 C   0  0  0  0  0  0  0  0  0  0  0  0
  -89.1376   25.6297    3.9246 C   0  0  0  0  0  0  0  0  0  0  0  0
  -88.7408   24.5313    5.2539 Cl  0  0  0  0  0  0  0  0  0  0  0  0
  -89.9930   26.6859    4.1197 C   0  0  0  0  0  0  0  0  0  0  0  0
  -90.2900   27.5302    3.0738 C   0  0  0  0  0  0  0  0  0  0  0  0
  -91.3988   28.8593    3.4204 Cl  0  0  0  0  0  0  0  0  0  0  0  0
  -88.9698   28.3650   -1.7504 C   0  0  0  0  0  0  0  0  0  0  0  0
  -88.9501   24.6012   -2.0419 O   0  0  0  0  0  0  0  0  0  0  0  0
  -89.3728   25.8943   -2.0840 N   0  0  0  0  0  0  0  0  0  0  0  0
  -88.5615   26.9775   -1.7208 C   0  0  0  0  0  0  0  0  0  0  0  0
  -87.3787   26.7150   -1.3372 O   0  0  0  0  0  0  0  0  0  0  0  0
  -88.7532   24.3550   -1.1142 H   0  0  0  0  0  0  0  0  0  0  0  0
  -90.3390   26.0664   -2.4013 H   0  0  0  0  0  0  0  0  0  0  0  0
  -88.8416   30.4194   -0.5412 C   0  0  0  0  0  0  0  0  0  0  0  0
  -87.4753   30.9055   -0.3367 C   0  0  0  0  0  0  0  0  0  0  0  0
  -87.1723   32.2043   -0.7222 C   0  0  0  0  0  0  0  0  0  0  0  0
  -85.9281   32.7450   -0.5721 C   0  0  0  0  0  0  0  0  0  0  0  0
  -84.9325   31.9803   -0.0188 C   0  0  0  0  0  0  0  0  0  0  0  0
  -85.1687   30.6840    0.3843 C   0  0  0  0  0  0  0  0  0  0  0  0
  -86.4591   30.1745    0.2100 C   0  0  0  0  0  0  0  0  0  0  0  0
  -83.6236   32.5219    0.1490 N   0  0  0  0  0  0  0  0  0  0  0  0
  -83.2976   33.6468   -0.5559 O   0  0  0  0  0  0  0  0  0  0  0  0
  -82.7751   32.0334    0.8911 O   0  0  0  0  0  0  0  0  0  0  0  0
 14 15  1  0  0  0
 15 16  1  0  0  0
 16 17  2  0  0  0
 16 13  1  0  0  0
 13  1  1  0  0  0
  1 20  1  0  0  0
 20 21  1  0  0  0
 21 22  2  0  0  0
 22 23  1  0  0  0
 23 24  2  0  0  0
 24 25  1  0  0  0
 25 26  2  0  0  0
 24 27  1  0  0  0
 27 28  1  0  0  0
 27 29  2  0  0  0
  1  2  1  0  0  0
  2  3  2  0  0  0
  2  4  2  0  0  0
  2  5  1  0  0  0
  5  6  2  0  0  0
  6  7  1  0  0  0
  7  8  2  0  0  0
  8  9  1  0  0  0
  8 10  1  0  0  0
 10 11  2  0  0  0
 11 12  1  0  0  0
 26 21  1  0  0  0
 11  5  1  0  0  0
 14 18  1  0  0  0
 15 19  1  0  0  0
M  CHG 1  27   1
M  CHG 1  28  -1
M  END
> <minimizedAffinity>
-7.62850

> <CNNscore>
0.1422800273

> <CNNaffinity>
6.0094351768

> <CNN_VS>
0.8550226092

> <CNNaffinity_variance>
0.1436326206

$$$$
[H]OC([H])([H])[C@]1([H])N([H])C([H])([H])[C@]([H])(O[H])[C@]([H])(O[H])[C@@]([H])(O[H])[C@]([H])(O[H])[C@@]1([H])O[H]


 22 22  0  0  0  0  0  0  0  0999 V2000
  -85.4846   31.9390   -0.2605 C   0  0  0  0  0  0  0  0  0  0  0  0
  -84.7121   31.5650    1.0128 C   0  0  0  0  0  0  0  0  0  0  0  0
  -83.4594   32.1677    0.8883 O   0  0  0  0  0  0  0  0  0  0  0  0
  -84.4652   30.0708    1.0606 C   0  0  0  0  0  0  0  0  0  0  0  0
  -83.5161   29.7982    2.0171 O   0  0  0  0  0  0  0  0  0  0  0  0
  -85.7852   29.3701    1.3064 C   0  0  0  0  0  0  0  0  0  0  0  0
  -85.6346   28.3685    2.2944 O   0  0  0  0  0  0  0  0  0  0  0  0
  -86.1910   28.6988    0.0457 C   0  0  0  0  0  0  0  0  0  0  0  0
  -86.9233   27.5316    0.3590 O   0  0  0  0  0  0  0  0  0  0  0  0
  -86.8993   29.5686   -0.9414 C   0  0  0  0  0  0  0  0  0  0  0  0
  -87.8941   28.7446   -1.5267 O   0  0  0  0  0  0  0  0  0  0  0  0
  -87.5946   30.7411   -0.3783 C   0  0  0  0  0  0  0  0  0  0  0  0
  -86.8710   31.8950   -0.1057 N   0  0  0  0  0  0  0  0  0  0  0  0
  -83.0465   32.2636    1.7818 H   0  0  0  0  0  0  0  0  0  0  0  0
  -82.9680   29.0310    1.7066 H   0  0  0  0  0  0  0  0  0  0  0  0
  -84.7217   28.0039    2.2934 H   0  0  0  0  0  0  0  0  0  0  0  0
  -86.3077   26.7695    0.5040 H   0  0  0  0  0  0  0  0  0  0  0  0
  -87.7699   28.6129   -2.4776 H   0  0  0  0  0  0  0  0  0  0  0  0
  -87.1689   32.4589    0.7038 H   0  0  0  0  0  0  0  0  0  0  0  0
  -84.1384   33.4536   -1.5673 O   0  0  0  0  0  0  0  0  0  0  0  0
  -85.0826   33.3948   -0.5435 C   0  0  0  0  0  0  0  0  0  0  0  0
  -83.6818   34.3298   -1.4746 H   0  0  0  0  0  0  0  0  0  0  0  0
 20 21  1  0  0  0
 21  1  1  0  0  0
  1  2  1  0  0  0
  2  3  1  0  0  0
  2  4  1  0  0  0
  4  5  1  0  0  0
  4  6  1  0  0  0
  6  7  1  0  0  0
  6  8  1  0  0  0
  8  9  1  0  0  0
  8 10  1  0  0  0
 10 11  1  0  0  0
 10 12  1  0  0  0
 12 13  1  0  0  0
 13  1  1  0  0  0
 20 22  1  0  0  0
  3 14  1  0  0  0
  5 15  1  0  0  0
  7 16  1  0  0  0
  9 17  1  0  0  0
 11 18  1  0  0  0
 13 19  1  0  0  0
M  END
> <minimizedAffinity>
-5.57244

> <CNNscore>
0.4014486670

> <CNNaffinity>
3.3397693634

> <CNN_VS>
1.3407459259

> <CNNaffinity_variance>
0.2199805677

$$$$
[H]OC([H])([H])[C@]1([H])N([H])C([H])([H])[C@]([H])(O[H])[C@]([H])(O[H])[C@@]([H])(O[H])[C@]([H])(O[H])[C@@]1([H])O[H]


 22 22  0  0  0  0  0  0  0  0999 V2000
  -83.8950   30.6239    0.7093 C   0  0  0  0  0  0  0  0  0  0  0  0
  -83.8523   29.6757    1.9164 C   0  0  0  0  0  0  0  0  0  0  0  0
  -82.5354   29.2202    1.9954 O   0  0  0  0  0  0  0  0  0  0  0  0
  -84.7127   28.4553    1.6595 C   0  0  0  0  0  0  0  0  0  0  0  0
  -84.4157   27.4871    2.5894 O   0  0  0  0  0  0  0  0  0  0  0  0
  -86.1672   28.8771    1.6740 C   0  0  0  0  0  0  0  0  0  0  0  0
  -86.9370   27.9646    2.4334 O   0  0  0  0  0  0  0  0  0  0  0  0
  -86.6716   28.8361    0.2781 C   0  0  0  0  0  0  0  0  0  0  0  0
  -88.0462   28.5088    0.2932 O   0  0  0  0  0  0  0  0  0  0  0  0
  -86.3840   30.0524   -0.5406 C   0  0  0  0  0  0  0  0  0  0  0  0
  -87.5358   30.2489   -1.3442 O   0  0  0  0  0  0  0  0  0  0  0  0
  -86.1758   31.3001    0.2178 C   0  0  0  0  0  0  0  0  0  0  0  0
  -84.9285   31.5600    0.7709 N   0  0  0  0  0  0  0  0  0  0  0  0
  -82.3503   28.8959    2.9112 H   0  0  0  0  0  0  0  0  0  0  0  0
  -84.4976   26.5983    2.1550 H   0  0  0  0  0  0  0  0  0  0  0  0
  -86.5456   27.0632    2.4076 H   0  0  0  0  0  0  0  0  0  0  0  0
  -88.1641   27.5256    0.3081 H   0  0  0  0  0  0  0  0  0  0  0  0
  -87.3572   30.1735   -2.2926 H   0  0  0  0  0  0  0  0  0  0  0  0
  -84.9057   32.0751    1.6633 H   0  0  0  0  0  0  0  0  0  0  0  0
  -82.6576   32.5989    0.0913 O   0  0  0  0  0  0  0  0  0  0  0  0
  -82.5604   31.3831    0.7661 C   0  0  0  0  0  0  0  0  0  0  0  0
  -81.7288   32.8698   -0.1292 H   0  0  0  0  0  0  0  0  0  0  0  0
 20 21  1  0  0  0
 21  1  1  0  0  0
  1  2  1  0  0  0
  2  3  1  0  0  0
  2  4  1  0  0  0
  4  5  1  0  0  0
  4  6  1  0  0  0
  6  7  1  0  0  0
  6  8  1  0  0  0
  8  9  1  0  0  0
  8 10  1  0  0  0
 10 11  1  0  0  0
 10 12  1  0  0  0
 12 13  1  0  0  0
 13  1  1  0  0  0
 20 22  1  0  0  0
  3 14  1  0  0  0
  5 15  1  0  0  0
  7 16  1  0  0  0
  9 17  1  0  0  0
 11 18  1  0  0  0
 13 19  1  0  0  0
M  END
> <minimizedAffinity>
-6.01574

> <CNNscore>
0.3886654973

> <CNNaffinity>
3.7131137848

> <CNN_VS>
1.4431592226

> <CNNaffinity_variance>
0.4299077988

$$$$
[H]OC([H])([H])[C@]1([H])N([H])C([H])([H])[C@]([H])(O[H])[C@]([H])(O[H])[C@@]([H])(O[H])[C@]([H])(O[H])[C@@]1([H])O[H]


 22 22  0  0  0  0  0  0  0  0999 V2000
  -85.0347   29.6451    1.0164 C   0  0  0  0  0  0  0  0  0  0  0  0
  -86.3775   30.2719    0.6141 C   0  0  0  0  0  0  0  0  0  0  0  0
  -87.1384   29.2306    0.0806 O   0  0  0  0  0  0  0  0  0  0  0  0
  -86.1781   31.2733   -0.5054 C   0  0  0  0  0  0  0  0  0  0  0  0
  -87.3972   31.5797   -1.0624 O   0  0  0  0  0  0  0  0  0  0  0  0
  -85.4499   32.4799    0.0489 C   0  0  0  0  0  0  0  0  0  0  0  0
  -86.0593   33.6739   -0.4039 O   0  0  0  0  0  0  0  0  0  0  0  0
  -84.0607   32.4592   -0.4750 C   0  0  0  0  0  0  0  0  0  0  0  0
  -83.5997   33.7877   -0.6143 O   0  0  0  0  0  0  0  0  0  0  0  0
  -83.1040   31.6005    0.2867 C   0  0  0  0  0  0  0  0  0  0  0  0
  -81.8749   32.3079    0.2829 O   0  0  0  0  0  0  0  0  0  0  0  0
  -83.4495   31.3545    1.6992 C   0  0  0  0  0  0  0  0  0  0  0  0
  -84.3628   30.3558    2.0122 N   0  0  0  0  0  0  0  0  0  0  0  0
  -88.0981   29.4664    0.1195 H   0  0  0  0  0  0  0  0  0  0  0  0
  -87.2692   31.7320   -2.0349 H   0  0  0  0  0  0  0  0  0  0  0  0
  -86.4820   33.5453   -1.2820 H   0  0  0  0  0  0  0  0  0  0  0  0
  -83.8693   34.1532   -1.4944 H   0  0  0  0  0  0  0  0  0  0  0  0
  -81.1643   31.8362   -0.1750 H   0  0  0  0  0  0  0  0  0  0  0  0
  -84.9731   30.5128    2.8277 H   0  0  0  0  0  0  0  0  0  0  0  0
  -84.5742   27.9339    2.6516 O   0  0  0  0  0  0  0  0  0  0  0  0
  -85.4057   28.2660    1.5832 C   0  0  0  0  0  0  0  0  0  0  0  0
  -84.6238   26.9474    2.7465 H   0  0  0  0  0  0  0  0  0  0  0  0
 20 21  1  0  0  0
 21  1  1  0  0  0
  1  2  1  0  0  0
  2  3  1  0  0  0
  2  4  1  0  0  0
  4  5  1  0  0  0
  4  6  1  0  0  0
  6  7  1  0  0  0
  6  8  1  0  0  0
  8  9  1  0  0  0
  8 10  1  0  0  0
 10 11  1  0  0  0
 10 12  1  0  0  0
 12 13  1  0  0  0
 13  1  1  0  0  0
 20 22  1  0  0  0
  3 14  1  0  0  0
  5 15  1  0  0  0
  7 16  1  0  0  0
  9 17  1  0  0  0
 11 18  1  0  0  0
 13 19  1  0  0  0
M  END
> <minimizedAffinity>
-6.09522

> <CNNscore>
0.3827154040

> <CNNaffinity>
3.6573252678

> <CNN_VS>
1.3997147083

> <CNNaffinity_variance>
0.2531749606

$$$$
[H]OC([H])([H])[C@]1([H])N([H])C([H])([H])[C@]([H])(O[H])[C@]([H])(O[H])[C@@]([H])(O[H])[C@]([H])(O[H])[C@@]1([H])O[H]


 22 22  0  0  0  0  0  0  0  0999 V2000
  -88.8129   28.3649   -1.4212 C   0  0  0  0  0  0  0  0  0  0  0  0
  -90.2511   28.8465   -1.6611 C   0  0  0  0  0  0  0  0  0  0  0  0
  -90.1962   30.2406   -1.6246 O   0  0  0  0  0  0  0  0  0  0  0  0
  -91.1474   28.4234   -0.5150 C   0  0  0  0  0  0  0  0  0  0  0  0
  -92.3300   29.1213   -0.5825 O   0  0  0  0  0  0  0  0  0  0  0  0
  -91.3315   26.9213   -0.5740 C   0  0  0  0  0  0  0  0  0  0  0  0
  -92.6923   26.5840   -0.3833 O   0  0  0  0  0  0  0  0  0  0  0  0
  -90.5597   26.3194    0.5425 C   0  0  0  0  0  0  0  0  0  0  0  0
  -91.2131   25.1432    0.9744 O   0  0  0  0  0  0  0  0  0  0  0  0
  -89.1078   26.0971    0.2682 C   0  0  0  0  0  0  0  0  0  0  0  0
  -88.7862   24.8700    0.9023 O   0  0  0  0  0  0  0  0  0  0  0  0
  -88.7398   25.9517   -1.1526 C   0  0  0  0  0  0  0  0  0  0  0  0
  -88.5592   27.0896   -1.9285 N   0  0  0  0  0  0  0  0  0  0  0  0
  -90.9794   30.6166   -2.0972 H   0  0  0  0  0  0  0  0  0  0  0  0
  -92.6440   29.2980    0.3425 H   0  0  0  0  0  0  0  0  0  0  0  0
  -93.1472   27.2500    0.1787 H   0  0  0  0  0  0  0  0  0  0  0  0
  -91.9082   25.3638    1.6445 H   0  0  0  0  0  0  0  0  0  0  0  0
  -88.1311   24.9654    1.6085 H   0  0  0  0  0  0  0  0  0  0  0  0
  -88.8235   27.0298   -2.9229 H   0  0  0  0  0  0  0  0  0  0  0  0
  -88.0904   29.2001   -3.5646 O   0  0  0  0  0  0  0  0  0  0  0  0
  -87.9363   29.3662   -2.1892 C   0  0  0  0  0  0  0  0  0  0  0  0
  -87.2888   29.6066   -3.9854 H   0  0  0  0  0  0  0  0  0  0  0  0
 20 21  1  0  0  0
 21  1  1  0  0  0
  1  2  1  0  0  0
  2  3  1  0  0  0
  2  4  1  0  0  0
  4  5  1  0  0  0
  4  6  1  0  0  0
  6  7  1  0  0  0
  6  8  1  0  0  0
  8  9  1  0  0  0
  8 10  1  0  0  0
 10 11  1  0  0  0
 10 12  1  0  0  0
 12 13  1  0  0  0
 13  1  1  0  0  0
 20 22  1  0  0  0
  3 14  1  0  0  0
  5 15  1  0  0  0
  7 16  1  0  0  0
  9 17  1  0  0  0
 11 18  1  0  0  0
 13 19  1  0  0  0
M  END
> <minimizedAffinity>
-5.09232

> <CNNscore>
0.3710950911

> <CNNaffinity>
3.0838143826

> <CNN_VS>
1.1443884373

> <CNNaffinity_variance>
0.1427826583

$$$$
[H]OC([H])([H])[C@]1([H])N([H])C([H])([H])[C@]([H])(O[H])[C@]([H])(O[H])[C@@]([H])(O[H])[C@]([H])(O[H])[C@@]1([H])O[H]


 22 22  0  0  0  0  0  0  0  0999 V2000
  -85.9496   32.4926   -1.1784 C   0  0  0  0  0  0  0  0  0  0  0  0
  -84.7453   32.9994   -0.3716 C   0  0  0  0  0  0  0  0  0  0  0  0
  -84.0353   33.8364   -1.2337 O   0  0  0  0  0  0  0  0  0  0  0  0
  -83.8180   31.8509   -0.0299 C   0  0  0  0  0  0  0  0  0  0  0  0
  -82.6128   32.3535    0.4002 O   0  0  0  0  0  0  0  0  0  0  0  0
  -84.5000   30.9662    0.9927 C   0  0  0  0  0  0  0  0  0  0  0  0
  -83.5985   30.6257    2.0287 O   0  0  0  0  0  0  0  0  0  0  0  0
  -84.9017   29.7069    0.3162 C   0  0  0  0  0  0  0  0  0  0  0  0
  -84.8567   28.6467    1.2493 O   0  0  0  0  0  0  0  0  0  0  0  0
  -86.2008   29.7640   -0.4199 C   0  0  0  0  0  0  0  0  0  0  0  0
  -86.8099   28.5004   -0.2113 O   0  0  0  0  0  0  0  0  0  0  0  0
  -87.1590   30.7817    0.0507 C   0  0  0  0  0  0  0  0  0  0  0  0
  -87.0259   32.0941   -0.3842 N   0  0  0  0  0  0  0  0  0  0  0  0
  -83.4669   34.4508   -0.7070 H   0  0  0  0  0  0  0  0  0  0  0  0
  -81.8912   31.7430    0.0970 H   0  0  0  0  0  0  0  0  0  0  0  0
  -82.6722   30.6055    1.7003 H   0  0  0  0  0  0  0  0  0  0  0  0
  -83.9426   28.2683    1.2941 H   0  0  0  0  0  0  0  0  0  0  0  0
  -86.9354   27.9975   -1.0288 H   0  0  0  0  0  0  0  0  0  0  0  0
  -87.2921   32.8395    0.2759 H   0  0  0  0  0  0  0  0  0  0  0  0
  -85.9403   33.5922   -3.3242 O   0  0  0  0  0  0  0  0  0  0  0  0
  -86.3950   33.7045   -2.0113 C   0  0  0  0  0  0  0  0  0  0  0  0
  -85.9536   34.5094   -3.7027 H   0  0  0  0  0  0  0  0  0  0  0  0
 20 21  1  0  0  0
 21  1  1  0  0  0
  1  2  1  0  0  0
  2  3  1  0  0  0
  2  4  1  0  0  0
  4  5  1  0  0  0
  4  6  1  0  0  0
  6  7  1  0  0  0
  6  8  1  0  0  0
  8  9  1  0  0  0
  8 10  1  0  0  0
 10 11  1  0  0  0
 10 12  1  0  0  0
 12 13  1  0  0  0
 13  1  1  0  0  0
 20 22  1  0  0  0
  3 14  1  0  0  0
  5 15  1  0  0  0
  7 16  1  0  0  0
  9 17  1  0  0  0
 11 18  1  0  0  0
 13 19  1  0  0  0
M  END
> <minimizedAffinity>
-6.20551

> <CNNscore>
0.3508669734

> <CNNaffinity>
3.3044800758

> <CNN_VS>
1.1594328880

> <CNNaffinity_variance>
0.3213843107

$$$$
[H]OC([H])([H])[C@]1([H])N([H])C([H])([H])[C@]([H])(O[H])[C@]([H])(O[H])[C@@]([H])(O[H])[C@]([H])(O[H])[C@@]1([H])O[H]


 22 22  0  0  0  0  0  0  0  0999 V2000
  -90.0480   27.1033    3.0214 C   0  0  0  0  0  0  0  0  0  0  0  0
  -90.0618   25.7017    2.3943 C   0  0  0  0  0  0  0  0  0  0  0  0
  -89.2758   24.9046    3.2278 O   0  0  0  0  0  0  0  0  0  0  0  0
  -89.3722   25.7204    1.0452 C   0  0  0  0  0  0  0  0  0  0  0  0
  -89.1116   24.4293    0.6511 O   0  0  0  0  0  0  0  0  0  0  0  0
  -90.2419   26.4835    0.0679 C   0  0  0  0  0  0  0  0  0  0  0  0
  -90.3321   25.7858   -1.1597 O   0  0  0  0  0  0  0  0  0  0  0  0
  -89.5898   27.7891   -0.2053 C   0  0  0  0  0  0  0  0  0  0  0  0
  -89.8947   28.1904   -1.5254 O   0  0  0  0  0  0  0  0  0  0  0  0
  -89.8674   28.8632    0.7957 C   0  0  0  0  0  0  0  0  0  0  0  0
  -89.9809   30.0607    0.0444 O   0  0  0  0  0  0  0  0  0  0  0  0
  -91.1214   28.7186    1.5587 C   0  0  0  0  0  0  0  0  0  0  0  0
  -91.1500   27.8838    2.6684 N   0  0  0  0  0  0  0  0  0  0  0  0
  -89.5093   23.9529    3.0942 H   0  0  0  0  0  0  0  0  0  0  0  0
  -88.2547   24.4205    0.1500 H   0  0  0  0  0  0  0  0  0  0  0  0
  -89.5232   25.2521   -1.3244 H   0  0  0  0  0  0  0  0  0  0  0  0
  -89.2475   27.7945   -2.1619 H   0  0  0  0  0  0  0  0  0  0  0  0
  -89.3031   30.7156    0.2651 H   0  0  0  0  0  0  0  0  0  0  0  0
  -92.0311   27.3852    2.8616 H   0  0  0  0  0  0  0  0  0  0  0  0
  -91.2690   26.1543    4.8714 O   0  0  0  0  0  0  0  0  0  0  0  0
  -90.1088   26.8502    4.5358 C   0  0  0  0  0  0  0  0  0  0  0  0
  -91.4207   26.3165    5.8386 H   0  0  0  0  0  0  0  0  0  0  0  0
 20 21  1  0  0  0
 21  1  1  0  0  0
  1  2  1  0  0  0
  2  3  1  0  0  0
  2  4  1  0  0  0
  4  5  1  0  0  0
  4  6  1  0  0  0
  6  7  1  0  0  0
  6  8  1  0  0  0
  8  9  1  0  0  0
  8 10  1  0  0  0
 10 11  1  0  0  0
 10 12  1  0  0  0
 12 13  1  0  0  0
 13  1  1  0  0  0
 20 22  1  0  0  0
  3 14  1  0  0  0
  5 15  1  0  0  0
  7 16  1  0  0  0
  9 17  1  0  0  0
 11 18  1  0  0  0
 13 19  1  0  0  0
M  END
> <minimizedAffinity>
-5.41404

> <CNNscore>
0.3364660740

> <CNNaffinity>
3.0478470325

> <CNN_VS>
1.0254970789

> <CNNaffinity_variance>
0.1149739027

$$$$
[H]OC([H])([H])[C@]1([H])N([H])C([H])([H])[C@]([H])(O[H])[C@]([H])(O[H])[C@@]([H])(O[H])[C@]([H])(O[H])[C@@]1([H])O[H]


 22 22  0  0  0  0  0  0  0  0999 V2000
  -86.6391   28.3994    1.0705 C   0  0  0  0  0  0  0  0  0  0  0  0
  -85.5133   27.5061    1.6113 C   0  0  0  0  0  0  0  0  0  0  0  0
  -86.1331   26.5811    2.4529 O   0  0  0  0  0  0  0  0  0  0  0  0
  -84.5715   28.3128    2.4819 C   0  0  0  0  0  0  0  0  0  0  0  0
  -83.7743   27.4558    3.2031 O   0  0  0  0  0  0  0  0  0  0  0  0
  -83.7890   29.2616    1.5980 C   0  0  0  0  0  0  0  0  0  0  0  0
  -82.4182   29.2432    1.9480 O   0  0  0  0  0  0  0  0  0  0  0  0
  -84.2946   30.6367    1.8386 C   0  0  0  0  0  0  0  0  0  0  0  0
  -83.2374   31.5562    1.6555 O   0  0  0  0  0  0  0  0  0  0  0  0
  -85.5170   31.0118    1.0654 C   0  0  0  0  0  0  0  0  0  0  0  0
  -85.3370   32.3727    0.7095 O   0  0  0  0  0  0  0  0  0  0  0  0
  -85.7337   30.2683   -0.1898 C   0  0  0  0  0  0  0  0  0  0  0  0
  -86.3295   29.0144   -0.1435 N   0  0  0  0  0  0  0  0  0  0  0  0
  -85.5520   25.7882    2.5606 H   0  0  0  0  0  0  0  0  0  0  0  0
  -83.5987   27.8624    4.0915 H   0  0  0  0  0  0  0  0  0  0  0  0
  -82.2982   29.0301    2.9001 H   0  0  0  0  0  0  0  0  0  0  0  0
  -82.7215   31.6565    2.4949 H   0  0  0  0  0  0  0  0  0  0  0  0
  -86.0031   32.9596    1.0952 H   0  0  0  0  0  0  0  0  0  0  0  0
  -86.0222   28.3197   -0.8401 H   0  0  0  0  0  0  0  0  0  0  0  0
  -88.7883   27.6004    1.8163 O   0  0  0  0  0  0  0  0  0  0  0  0
  -87.8145   27.4390    0.8321 C   0  0  0  0  0  0  0  0  0  0  0  0
  -89.3254   26.7659    1.8158 H   0  0  0  0  0  0  0  0  0  0  0  0
 20 21  1  0  0  0
 21  1  1  0  0  0
  1  2  1  0  0  0
  2  3  1  0  0  0
  2  4  1  0  0  0
  4  5  1  0  0  0
  4  6  1  0  0  0
  6  7  1  0  0  0
  6  8  1  0  0  0
  8  9  1  0  0  0
  8 10  1  0  0  0
 10 11  1  0  0  0
 10 12  1  0  0  0
 12 13  1  0  0  0
 13  1  1  0  0  0
 20 22  1  0  0  0
  3 14  1  0  0  0
  5 15  1  0  0  0
  7 16  1  0  0  0
  9 17  1  0  0  0
 11 18  1  0  0  0
 13 19  1  0  0  0
M  END
> <minimizedAffinity>
-5.89943

> <CNNscore>
0.3293301165

> <CNNaffinity>
3.5309543610

> <CNN_VS>
1.1628496647

> <CNNaffinity_variance>
0.2605413795

$$$$
[H]OC([H])([H])[C@]1([H])N([H])C([H])([H])[C@]([H])(O[H])[C@]([H])(O[H])[C@@]([H])(O[H])[C@]([H])(O[H])[C@@]1([H])O[H]


 22 22  0  0  0  0  0  0  0  0999 V2000
  -85.9639   31.2372    0.5609 C   0  0  0  0  0  0  0  0  0  0  0  0
  -84.7767   31.8182   -0.2206 C   0  0  0  0  0  0  0  0  0  0  0  0
  -83.7770   32.0518    0.7249 O   0  0  0  0  0  0  0  0  0  0  0  0
  -85.1389   33.1692   -0.8032 C   0  0  0  0  0  0  0  0  0  0  0  0
  -83.9930   33.8076   -1.2148 O   0  0  0  0  0  0  0  0  0  0  0  0
  -86.1448   32.9621   -1.9163 C   0  0  0  0  0  0  0  0  0  0  0  0
  -85.7956   33.7386   -3.0464 O   0  0  0  0  0  0  0  0  0  0  0  0
  -87.4665   33.4386   -1.4360 C   0  0  0  0  0  0  0  0  0  0  0  0
  -88.2050   33.9356   -2.5335 O   0  0  0  0  0  0  0  0  0  0  0  0
  -88.2439   32.4537   -0.6246 C   0  0  0  0  0  0  0  0  0  0  0  0
  -89.5982   32.6360   -1.0038 O   0  0  0  0  0  0  0  0  0  0  0  0
  -87.9226   31.0338   -0.8614 C   0  0  0  0  0  0  0  0  0  0  0  0
  -86.8261   30.4688   -0.2229 N   0  0  0  0  0  0  0  0  0  0  0  0
  -82.8974   32.0945    0.2748 H   0  0  0  0  0  0  0  0  0  0  0  0
  -84.1033   34.7821   -1.0609 H   0  0  0  0  0  0  0  0  0  0  0  0
  -85.3119   34.5524   -2.7817 H   0  0  0  0  0  0  0  0  0  0  0  0
  -87.9806   34.8865   -2.6949 H   0  0  0  0  0  0  0  0  0  0  0  0
  -90.1619   32.9337   -0.2753 H   0  0  0  0  0  0  0  0  0  0  0  0
  -86.3075   29.7385   -0.7327 H   0  0  0  0  0  0  0  0  0  0  0  0
  -85.1618   30.9842    2.8207 O   0  0  0  0  0  0  0  0  0  0  0  0
  -85.3229   30.3143    1.6089 C   0  0  0  0  0  0  0  0  0  0  0  0
  -84.4666   30.4859    3.3238 H   0  0  0  0  0  0  0  0  0  0  0  0
 20 21  1  0  0  0
 21  1  1  0  0  0
  1  2  1  0  0  0
  2  3  1  0  0  0
  2  4  1  0  0  0
  4  5  1  0  0  0
  4  6  1  0  0  0
  6  7  1  0  0  0
  6  8  1  0  0  0
  8  9  1  0  0  0
  8 10  1  0  0  0
 10 11  1  0  0  0
 10 12  1  0  0  0
 12 13  1  0  0  0
 13  1  1  0  0  0
 20 22  1  0  0  0
  3 14  1  0  0  0
  5 15  1  0  0  0
  7 16  1  0  0  0
  9 17  1  0  0  0
 11 18  1  0  0  0
 13 19  1  0  0  0
M  END
> <minimizedAffinity>
-6.02141

> <CNNscore>
0.3134584725

> <CNNaffinity>
3.1545057297

> <CNN_VS>
0.9888065457

> <CNNaffinity_variance>
0.1922487468

$$$$
[H]OC([H])([H])[C@]1([H])N([H])C([H])([H])[C@]([H])(O[H])[C@]([H])(O[H])[C@@]([H])(O[H])[C@]([H])(O[H])[C@@]1([H])O[H]


 22 22  0  0  0  0  0  0  0  0999 V2000
  -90.0497   27.1302   -1.5893 C   0  0  0  0  0  0  0  0  0  0  0  0
  -88.9083   28.1453   -1.7466 C   0  0  0  0  0  0  0  0  0  0  0  0
  -88.6557   28.2240   -3.1170 O   0  0  0  0  0  0  0  0  0  0  0  0
  -87.6403   27.6169   -1.1073 C   0  0  0  0  0  0  0  0  0  0  0  0
  -86.5714   28.3725   -1.5277 O   0  0  0  0  0  0  0  0  0  0  0  0
  -87.8211   27.6151    0.3964 C   0  0  0  0  0  0  0  0  0  0  0  0
  -86.6732   28.1456    1.0311 O   0  0  0  0  0  0  0  0  0  0  0  0
  -87.9676   26.2058    0.8401 C   0  0  0  0  0  0  0  0  0  0  0  0
  -87.4344   26.0736    2.1421 O   0  0  0  0  0  0  0  0  0  0  0  0
  -89.3467   25.6414    0.7287 C   0  0  0  0  0  0  0  0  0  0  0  0
  -89.5109   24.8152    1.8696 O   0  0  0  0  0  0  0  0  0  0  0  0
  -90.4450   26.6255    0.7538 C   0  0  0  0  0  0  0  0  0  0  0  0
  -90.7855   27.2948   -0.4148 N   0  0  0  0  0  0  0  0  0  0  0  0
  -88.1965   29.0755   -3.3219 H   0  0  0  0  0  0  0  0  0  0  0  0
  -85.7793   27.7796   -1.6075 H   0  0  0  0  0  0  0  0  0  0  0  0
  -85.8647   27.9816    0.4964 H   0  0  0  0  0  0  0  0  0  0  0  0
  -86.4600   25.9022    2.0974 H   0  0  0  0  0  0  0  0  0  0  0  0
  -89.6451   23.8822    1.6492 H   0  0  0  0  0  0  0  0  0  0  0  0
  -91.1194   28.2655   -0.3227 H   0  0  0  0  0  0  0  0  0  0  0  0
  -90.7464   26.5015   -3.8104 O   0  0  0  0  0  0  0  0  0  0  0  0
  -90.9819   27.4087   -2.7786 C   0  0  0  0  0  0  0  0  0  0  0  0
  -91.1058   26.9194   -4.6356 H   0  0  0  0  0  0  0  0  0  0  0  0
 20 21  1  0  0  0
 21  1  1  0  0  0
  1  2  1  0  0  0
  2  3  1  0  0  0
  2  4  1  0  0  0
  4  5  1  0  0  0
  4  6  1  0  0  0
  6  7  1  0  0  0
  6  8  1  0  0  0
  8  9  1  0  0  0
  8 10  1  0  0  0
 10 11  1  0  0  0
 10 12  1  0  0  0
 12 13  1  0  0  0
 13  1  1  0  0  0
 20 22  1  0  0  0
  3 14  1  0  0  0
  5 15  1  0  0  0
  7 16  1  0  0  0
  9 17  1  0  0  0
 11 18  1  0  0  0
 13 19  1  0  0  0
M  END
> <minimizedAffinity>
-5.08275

> <CNNscore>
0.3112896085

> <CNNaffinity>
2.9708490372

> <CNN_VS>
0.9247944355

> <CNNaffinity_variance>
0.1810794324

$$$$
[H]c1c([H])c(S(=O)(=O)N([H])c2c([H])c(C(=O)N([H])[H])c([H])c(C(F)(F)F)c2[H])c([H])c(OC([H])([H])[H])c1OC([H])([H])[H]


 30 31  0  0  0  0  0  0  0  0999 V2000
  -89.1243   30.0727   -1.1410 N   0  0  0  0  0  0  0  0  0  0  0  0
  -90.0557   30.0662   -0.7060 H   0  0  0  0  0  0  0  0  0  0  0  0
  -87.9981   29.7321   -0.3425 C   0  0  0  0  0  0  0  0  0  0  0  0
  -87.8130   28.5405    0.2683 C   0  0  0  0  0  0  0  0  0  0  0  0
  -86.6768   28.3074    1.0747 C   0  0  0  0  0  0  0  0  0  0  0  0
  -85.7332   29.2827    1.2542 C   0  0  0  0  0  0  0  0  0  0  0  0
  -85.9026   30.4996    0.6396 C   0  0  0  0  0  0  0  0  0  0  0  0
  -87.0148   30.7186   -0.1431 C   0  0  0  0  0  0  0  0  0  0  0  0
  -86.4502   27.0439    1.7463 C   0  0  0  0  0  0  0  0  0  0  0  0
  -87.4770   26.1022    1.8979 N   0  0  0  0  0  0  0  0  0  0  0  0
  -85.3017   26.8144    2.1922 O   0  0  0  0  0  0  0  0  0  0  0  0
  -88.2514   25.9649    1.2126 H   0  0  0  0  0  0  0  0  0  0  0  0
  -87.5394   25.4532    2.7347 H   0  0  0  0  0  0  0  0  0  0  0  0
  -84.8872   31.5921    0.7527 C   0  0  0  0  0  0  0  0  0  0  0  0
  -85.4106   32.8142    0.3333 F   0  0  0  0  0  0  0  0  0  0  0  0
  -83.8014   31.3117   -0.0375 F   0  0  0  0  0  0  0  0  0  0  0  0
  -84.5314   31.7787    2.0853 F   0  0  0  0  0  0  0  0  0  0  0  0
  -88.8639   30.4729   -2.7946 S   0  0  0  0  0  0  0  0  0  0  0  0
  -87.6408   29.6929   -3.2936 O   0  0  0  0  0  0  0  0  0  0  0  0
  -90.0253   29.9767   -3.5986 O   0  0  0  0  0  0  0  0  0  0  0  0
  -87.8983   34.8406   -3.5676 C   0  0  0  0  0  0  0  0  0  0  0  0
  -86.9619   33.9104   -3.2249 C   0  0  0  0  0  0  0  0  0  0  0  0
  -87.2738   32.6021   -2.9886 C   0  0  0  0  0  0  0  0  0  0  0  0
  -88.5980   32.1658   -3.0849 C   0  0  0  0  0  0  0  0  0  0  0  0
  -89.5627   33.0857   -3.4316 C   0  0  0  0  0  0  0  0  0  0  0  0
  -89.2471   34.4243   -3.6817 C   0  0  0  0  0  0  0  0  0  0  0  0
  -86.8235   36.5486   -4.9511 C   0  0  0  0  0  0  0  0  0  0  0  0
  -87.5460   36.1597   -3.7983 O   0  0  0  0  0  0  0  0  0  0  0  0
  -90.1415   35.3312   -4.0237 O   0  0  0  0  0  0  0  0  0  0  0  0
  -91.1394   36.1482   -4.0304 C   0  0  0  0  0  0  0  0  0  0  0  0
 27 28  1  0  0  0
 28 21  1  0  0  0
 21 22  2  0  0  0
 22 23  1  0  0  0
 23 24  2  0  0  0
 24 25  1  0  0  0
 25 26  2  0  0  0
 26 29  1  0  0  0
 29 30  1  0  0  0
 24 18  1  0  0  0
 18 19  2  0  0  0
 18 20  2  0  0  0
 18  1  1  0  0  0
  1  3  1  0  0  0
  3  4  2  0  0  0
  4  5  1  0  0  0
  5  6  2  0  0  0
  6  7  1  0  0  0
  7  8  2  0  0  0
  7 14  1  0  0  0
 14 15  1  0  0  0
 14 16  1  0  0  0
 14 17  1  0  0  0
  5  9  1  0  0  0
  9 10  1  0  0  0
  9 11  2  0  0  0
 26 21  1  0  0  0
  8  3  1  0  0  0
  1  2  1  0  0  0
 10 12  1  0  0  0
 10 13  1  0  0  0
M  END
> <minimizedAffinity>
-7.60381

> <CNNscore>
0.3879040480

> <CNNaffinity>
6.1204719543

> <CNN_VS>
2.3741557598

> <CNNaffinity_variance>
0.1772162914

$$$$
[H]c1c([H])c(S(=O)(=O)N([H])c2c([H])c(C(=O)N([H])[H])c([H])c(C(F)(F)F)c2[H])c([H])c(OC([H])([H])[H])c1OC([H])([H])[H]


 30 31  0  0  0  0  0  0  0  0999 V2000
  -87.9287   29.2823    0.1915 N   0  0  0  0  0  0  0  0  0  0  0  0
  -88.6627   29.4824    0.8828 H   0  0  0  0  0  0  0  0  0  0  0  0
  -86.5699   29.4612    0.5706 C   0  0  0  0  0  0  0  0  0  0  0  0
  -85.8255   28.5519    1.2385 C   0  0  0  0  0  0  0  0  0  0  0  0
  -84.4912   28.8356    1.6058 C   0  0  0  0  0  0  0  0  0  0  0  0
  -83.9186   30.0383    1.2907 C   0  0  0  0  0  0  0  0  0  0  0  0
  -84.6585   30.9745    0.6101 C   0  0  0  0  0  0  0  0  0  0  0  0
  -85.9595   30.6899    0.2579 C   0  0  0  0  0  0  0  0  0  0  0  0
  -83.6676   27.8853    2.3252 C   0  0  0  0  0  0  0  0  0  0  0  0
  -82.2892   28.0843    2.4822 N   0  0  0  0  0  0  0  0  0  0  0  0
  -84.2259   26.8718    2.8066 O   0  0  0  0  0  0  0  0  0  0  0  0
  -81.8384   29.0216    2.5615 H   0  0  0  0  0  0  0  0  0  0  0  0
  -81.5971   27.2819    2.5312 H   0  0  0  0  0  0  0  0  0  0  0  0
  -84.0805   32.2889    0.1910 C   0  0  0  0  0  0  0  0  0  0  0  0
  -83.4800   32.2002   -1.0639 F   0  0  0  0  0  0  0  0  0  0  0  0
  -83.1195   32.6888    1.0845 F   0  0  0  0  0  0  0  0  0  0  0  0
  -85.0926   33.2342    0.0519 F   0  0  0  0  0  0  0  0  0  0  0  0
  -88.2675   28.7355   -1.4049 S   0  0  0  0  0  0  0  0  0  0  0  0
  -87.0084   28.0581   -1.9610 O   0  0  0  0  0  0  0  0  0  0  0  0
  -89.3140   27.6670   -1.3357 O   0  0  0  0  0  0  0  0  0  0  0  0
  -89.7876   31.9280   -4.2516 C   0  0  0  0  0  0  0  0  0  0  0  0
  -90.5129   30.8305   -3.8925 C   0  0  0  0  0  0  0  0  0  0  0  0
  -90.0346   29.8767   -3.0404 C   0  0  0  0  0  0  0  0  0  0  0  0
  -88.7502   29.9941   -2.5020 C   0  0  0  0  0  0  0  0  0  0  0  0
  -87.9979   31.0949   -2.8477 C   0  0  0  0  0  0  0  0  0  0  0  0
  -88.4861   32.0775   -3.7136 C   0  0  0  0  0  0  0  0  0  0  0  0
  -91.6870   32.9446   -5.4114 C   0  0  0  0  0  0  0  0  0  0  0  0
  -90.3042   32.8748   -5.1200 O   0  0  0  0  0  0  0  0  0  0  0  0
  -87.7989   33.1483   -4.0606 O   0  0  0  0  0  0  0  0  0  0  0  0
  -87.3535   34.3534   -4.1735 C   0  0  0  0  0  0  0  0  0  0  0  0
 27 28  1  0  0  0
 28 21  1  0  0  0
 21 22  2  0  0  0
 22 23  1  0  0  0
 23 24  2  0  0  0
 24 25  1  0  0  0
 25 26  2  0  0  0
 26 29  1  0  0  0
 29 30  1  0  0  0
 24 18  1  0  0  0
 18 19  2  0  0  0
 18 20  2  0  0  0
 18  1  1  0  0  0
  1  3  1  0  0  0
  3  4  2  0  0  0
  4  5  1  0  0  0
  5  6  2  0  0  0
  6  7  1  0  0  0
  7  8  2  0  0  0
  7 14  1  0  0  0
 14 15  1  0  0  0
 14 16  1  0  0  0
 14 17  1  0  0  0
  5  9  1  0  0  0
  9 10  1  0  0  0
  9 11  2  0  0  0
 26 21  1  0  0  0
  8  3  1  0  0  0
  1  2  1  0  0  0
 10 12  1  0  0  0
 10 13  1  0  0  0
M  END
> <minimizedAffinity>
-7.40604

> <CNNscore>
0.2471193373

> <CNNaffinity>
5.9018754959

> <CNN_VS>
1.4584676027

> <CNNaffinity_variance>
0.1305844784

$$$$
[H]c1c([H])c(S(=O)(=O)N([H])c2c([H])c(C(=O)N([H])[H])c([H])c(C(F)(F)F)c2[H])c([H])c(OC([H])([H])[H])c1OC([H])([H])[H]


 30 31  0  0  0  0  0  0  0  0999 V2000
  -87.9123   30.3710   -0.2399 N   0  0  0  0  0  0  0  0  0  0  0  0
  -88.5891   31.1039    0.0081 H   0  0  0  0  0  0  0  0  0  0  0  0
  -86.5564   30.5347    0.1561 C   0  0  0  0  0  0  0  0  0  0  0  0
  -85.7379   31.5217   -0.2716 C   0  0  0  0  0  0  0  0  0  0  0  0
  -84.3907   31.5804    0.1495 C   0  0  0  0  0  0  0  0  0  0  0  0
  -83.8824   30.6398    1.0043 C   0  0  0  0  0  0  0  0  0  0  0  0
  -84.6996   29.6303    1.4518 C   0  0  0  0  0  0  0  0  0  0  0  0
  -86.0113   29.5799    1.0342 C   0  0  0  0  0  0  0  0  0  0  0  0
  -83.4860   32.6220   -0.2928 C   0  0  0  0  0  0  0  0  0  0  0  0
  -82.1426   32.6411    0.1057 N   0  0  0  0  0  0  0  0  0  0  0  0
  -83.9416   33.5129   -1.0473 O   0  0  0  0  0  0  0  0  0  0  0  0
  -81.5761   31.7862    0.2960 H   0  0  0  0  0  0  0  0  0  0  0  0
  -81.5997   33.5419    0.2446 H   0  0  0  0  0  0  0  0  0  0  0  0
  -84.2238   28.5987    2.4249 C   0  0  0  0  0  0  0  0  0  0  0  0
  -84.6189   27.3189    2.0385 F   0  0  0  0  0  0  0  0  0  0  0  0
  -84.7542   28.8404    3.6668 F   0  0  0  0  0  0  0  0  0  0  0  0
  -82.8325   28.5668    2.4464 F   0  0  0  0  0  0  0  0  0  0  0  0
  -88.3448   28.9502   -1.1097 S   0  0  0  0  0  0  0  0  0  0  0  0
  -89.4236   29.3211   -2.1354 O   0  0  0  0  0  0  0  0  0  0  0  0
  -87.1609   28.4928   -1.9038 O   0  0  0  0  0  0  0  0  0  0  0  0
  -89.7859   25.4031    1.3292 C   0  0  0  0  0  0  0  0  0  0  0  0
  -89.2219   25.2891    0.0930 C   0  0  0  0  0  0  0  0  0  0  0  0
  -88.8017   26.3695   -0.6286 C   0  0  0  0  0  0  0  0  0  0  0  0
  -88.9478   27.6602   -0.1130 C   0  0  0  0  0  0  0  0  0  0  0  0
  -89.5129   27.8022    1.1351 C   0  0  0  0  0  0  0  0  0  0  0  0
  -89.9377   26.6988    1.8805 C   0  0  0  0  0  0  0  0  0  0  0  0
  -91.4400   23.6535    1.7647 C   0  0  0  0  0  0  0  0  0  0  0  0
  -90.2023   24.2851    2.0321 O   0  0  0  0  0  0  0  0  0  0  0  0
  -90.4751   26.7948    3.0811 O   0  0  0  0  0  0  0  0  0  0  0  0
  -90.7083   27.0847    4.3160 C   0  0  0  0  0  0  0  0  0  0  0  0
 27 28  1  0  0  0
 28 21  1  0  0  0
 21 22  2  0  0  0
 22 23  1  0  0  0
 23 24  2  0  0  0
 24 25  1  0  0  0
 25 26  2  0  0  0
 26 29  1  0  0  0
 29 30  1  0  0  0
 24 18  1  0  0  0
 18 19  2  0  0  0
 18 20  2  0  0  0
 18  1  1  0  0  0
  1  3  1  0  0  0
  3  4  2  0  0  0
  4  5  1  0  0  0
  5  6  2  0  0  0
  6  7  1  0  0  0
  7  8  2  0  0  0
  7 14  1  0  0  0
 14 15  1  0  0  0
 14 16  1  0  0  0
 14 17  1  0  0  0
  5  9  1  0  0  0
  9 10  1  0  0  0
  9 11  2  0  0  0
 26 21  1  0  0  0
  8  3  1  0  0  0
  1  2  1  0  0  0
 10 12  1  0  0  0
 10 13  1  0  0  0
M  END
> <minimizedAffinity>
-8.36644

> <CNNscore>
0.2392408997

> <CNNaffinity>
5.9948363304

> <CNN_VS>
1.4342100620

> <CNNaffinity_variance>
0.1921177208

$$$$
[H]c1c([H])c(S(=O)(=O)N([H])c2c([H])c(C(=O)N([H])[H])c([H])c(C(F)(F)F)c2[H])c([H])c(OC([H])([H])[H])c1OC([H])([H])[H]


 30 31  0  0  0  0  0  0  0  0999 V2000
  -87.9808   30.2337   -0.0759 N   0  0  0  0  0  0  0  0  0  0  0  0
  -88.6973   30.5438    0.5929 H   0  0  0  0  0  0  0  0  0  0  0  0
  -86.6118   30.4386    0.2499 C   0  0  0  0  0  0  0  0  0  0  0  0
  -85.8450   31.4462   -0.2231 C   0  0  0  0  0  0  0  0  0  0  0  0
  -84.4805   31.5460    0.1285 C   0  0  0  0  0  0  0  0  0  0  0  0
  -83.9023   30.6253    0.9603 C   0  0  0  0  0  0  0  0  0  0  0  0
  -84.6661   29.5952    1.4530 C   0  0  0  0  0  0  0  0  0  0  0  0
  -85.9953   29.5048    1.1030 C   0  0  0  0  0  0  0  0  0  0  0  0
  -83.6301   32.6107   -0.3637 C   0  0  0  0  0  0  0  0  0  0  0  0
  -82.2916   32.7215    0.0368 N   0  0  0  0  0  0  0  0  0  0  0  0
  -84.1283   33.4368   -1.1636 O   0  0  0  0  0  0  0  0  0  0  0  0
  -81.6816   31.9086    0.2717 H   0  0  0  0  0  0  0  0  0  0  0  0
  -81.7980   33.6558    0.1313 H   0  0  0  0  0  0  0  0  0  0  0  0
  -84.1117   28.5833    2.4049 C   0  0  0  0  0  0  0  0  0  0  0  0
  -84.4708   27.2888    2.0324 F   0  0  0  0  0  0  0  0  0  0  0  0
  -84.6017   28.8038    3.6671 F   0  0  0  0  0  0  0  0  0  0  0  0
  -82.7205   28.6065    2.3714 F   0  0  0  0  0  0  0  0  0  0  0  0
  -88.3608   29.4726   -1.5720 S   0  0  0  0  0  0  0  0  0  0  0  0
  -87.1197   28.7116   -2.0559 O   0  0  0  0  0  0  0  0  0  0  0  0
  -89.4125   28.4347   -1.3307 O   0  0  0  0  0  0  0  0  0  0  0  0
  -89.3995   32.3956   -4.8862 C   0  0  0  0  0  0  0  0  0  0  0  0
  -88.1652   32.3137   -4.3123 C   0  0  0  0  0  0  0  0  0  0  0  0
  -87.8746   31.4325   -3.3105 C   0  0  0  0  0  0  0  0  0  0  0  0
  -88.8607   30.5703   -2.8234 C   0  0  0  0  0  0  0  0  0  0  0  0
  -90.1156   30.6320   -3.3879 C   0  0  0  0  0  0  0  0  0  0  0  0
  -90.4157   31.5271   -4.4186 C   0  0  0  0  0  0  0  0  0  0  0  0
  -89.8575   34.6791   -5.6363 C   0  0  0  0  0  0  0  0  0  0  0  0
  -89.6590   33.3030   -5.8994 O   0  0  0  0  0  0  0  0  0  0  0  0
  -91.6021   31.6091   -4.9888 O   0  0  0  0  0  0  0  0  0  0  0  0
  -92.8120   31.3812   -5.3730 C   0  0  0  0  0  0  0  0  0  0  0  0
 27 28  1  0  0  0
 28 21  1  0  0  0
 21 22  2  0  0  0
 22 23  1  0  0  0
 23 24  2  0  0  0
 24 25  1  0  0  0
 25 26  2  0  0  0
 26 29  1  0  0  0
 29 30  1  0  0  0
 24 18  1  0  0  0
 18 19  2  0  0  0
 18 20  2  0  0  0
 18  1  1  0  0  0
  1  3  1  0  0  0
  3  4  2  0  0  0
  4  5  1  0  0  0
  5  6  2  0  0  0
  6  7  1  0  0  0
  7  8  2  0  0  0
  7 14  1  0  0  0
 14 15  1  0  0  0
 14 16  1  0  0  0
 14 17  1  0  0  0
  5  9  1  0  0  0
  9 10  1  0  0  0
  9 11  2  0  0  0
 26 21  1  0  0  0
  8  3  1  0  0  0
  1  2  1  0  0  0
 10 12  1  0  0  0
 10 13  1  0  0  0
M  END
> <minimizedAffinity>
-8.09737

> <CNNscore>
0.1922146976

> <CNNaffinity>
5.6809110641

> <CNN_VS>
1.0919545889

> <CNNaffinity_variance>
0.1708277166

$$$$
[H]c1c([H])c(S(=O)(=O)N([H])c2c([H])c(C(=O)N([H])[H])c([H])c(C(F)(F)F)c2[H])c([H])c(OC([H])([H])[H])c1OC([H])([H])[H]


 30 31  0  0  0  0  0  0  0  0999 V2000
  -90.0813   31.9930   -1.2518 N   0  0  0  0  0  0  0  0  0  0  0  0
  -90.7904   32.5506   -0.7588 H   0  0  0  0  0  0  0  0  0  0  0  0
  -88.9125   32.6473   -1.7293 C   0  0  0  0  0  0  0  0  0  0  0  0
  -88.8606   33.4420   -2.8215 C   0  0  0  0  0  0  0  0  0  0  0  0
  -87.6417   34.0197   -3.2411 C   0  0  0  0  0  0  0  0  0  0  0  0
  -86.4832   33.7910   -2.5488 C   0  0  0  0  0  0  0  0  0  0  0  0
  -86.5163   32.9879   -1.4347 C   0  0  0  0  0  0  0  0  0  0  0  0
  -87.7091   32.4271   -1.0343 C   0  0  0  0  0  0  0  0  0  0  0  0
  -87.5506   34.8725   -4.4088 C   0  0  0  0  0  0  0  0  0  0  0  0
  -86.6699   35.9618   -4.4516 N   0  0  0  0  0  0  0  0  0  0  0  0
  -88.2874   34.6075   -5.3873 O   0  0  0  0  0  0  0  0  0  0  0  0
  -85.7482   35.9889   -3.9640 H   0  0  0  0  0  0  0  0  0  0  0  0
  -86.8837   36.8497   -4.9913 H   0  0  0  0  0  0  0  0  0  0  0  0
  -85.2984   32.7359   -0.6036 C   0  0  0  0  0  0  0  0  0  0  0  0
  -84.1348   33.0541   -1.3022 F   0  0  0  0  0  0  0  0  0  0  0  0
  -85.2273   31.4097   -0.2597 F   0  0  0  0  0  0  0  0  0  0  0  0
  -85.3002   33.5674    0.5125 F   0  0  0  0  0  0  0  0  0  0  0  0
  -90.2402   30.3009   -1.5230 S   0  0  0  0  0  0  0  0  0  0  0  0
  -91.6658   30.0224   -2.0164 O   0  0  0  0  0  0  0  0  0  0  0  0
  -89.3311   29.9057   -2.6450 O   0  0  0  0  0  0  0  0  0  0  0  0
  -89.7263   27.7402    2.1899 C   0  0  0  0  0  0  0  0  0  0  0  0
  -90.8848   28.3863    1.8738 C   0  0  0  0  0  0  0  0  0  0  0  0
  -91.0171   29.1588    0.7557 C   0  0  0  0  0  0  0  0  0  0  0  0
  -89.9389   29.3226   -0.1183 C   0  0  0  0  0  0  0  0  0  0  0  0
  -88.7579   28.6785    0.1775 C   0  0  0  0  0  0  0  0  0  0  0  0
  -88.6200   27.8807    1.3170 C   0  0  0  0  0  0  0  0  0  0  0  0
  -90.0846   27.4290    4.5902 C   0  0  0  0  0  0  0  0  0  0  0  0
  -89.6275   26.9660    3.3337 O   0  0  0  0  0  0  0  0  0  0  0  0
  -87.5087   27.2425    1.6285 O   0  0  0  0  0  0  0  0  0  0  0  0
  -86.2732   26.9101    1.7905 C   0  0  0  0  0  0  0  0  0  0  0  0
 27 28  1  0  0  0
 28 21  1  0  0  0
 21 22  2  0  0  0
 22 23  1  0  0  0
 23 24  2  0  0  0
 24 25  1  0  0  0
 25 26  2  0  0  0
 26 29  1  0  0  0
 29 30  1  0  0  0
 24 18  1  0  0  0
 18 19  2  0  0  0
 18 20  2  0  0  0
 18  1  1  0  0  0
  1  3  1  0  0  0
  3  4  2  0  0  0
  4  5  1  0  0  0
  5  6  2  0  0  0
  6  7  1  0  0  0
  7  8  2  0  0  0
  7 14  1  0  0  0
 14 15  1  0  0  0
 14 16  1  0  0  0
 14 17  1  0  0  0
  5  9  1  0  0  0
  9 10  1  0  0  0
  9 11  2  0  0  0
 26 21  1  0  0  0
  8  3  1  0  0  0
  1  2  1  0  0  0
 10 12  1  0  0  0
 10 13  1  0  0  0
M  END
> <minimizedAffinity>
-7.28293

> <CNNscore>
0.1801196635

> <CNNaffinity>
5.5127639771

> <CNN_VS>
0.9929571748

> <CNNaffinity_variance>
0.2883556485

$$$$
[H]c1c([H])c(S(=O)(=O)N([H])c2c([H])c(C(=O)N([H])[H])c([H])c(C(F)(F)F)c2[H])c([H])c(OC([H])([H])[H])c1OC([H])([H])[H]


 30 31  0  0  0  0  0  0  0  0999 V2000
  -87.7102   33.1596   -1.0419 N   0  0  0  0  0  0  0  0  0  0  0  0
  -87.9302   33.9329   -0.4012 H   0  0  0  0  0  0  0  0  0  0  0  0
  -86.9516   32.0625   -0.5489 C   0  0  0  0  0  0  0  0  0  0  0  0
  -87.4462   30.8308   -0.2934 C   0  0  0  0  0  0  0  0  0  0  0  0
  -86.6205   29.8122    0.2322 C   0  0  0  0  0  0  0  0  0  0  0  0
  -85.2975   30.0475    0.4925 C   0  0  0  0  0  0  0  0  0  0  0  0
  -84.7759   31.2925    0.2372 C   0  0  0  0  0  0  0  0  0  0  0  0
  -85.5891   32.2803   -0.2733 C   0  0  0  0  0  0  0  0  0  0  0  0
  -87.1196   28.4831    0.5210 C   0  0  0  0  0  0  0  0  0  0  0  0
  -88.4741   28.1603    0.3619 N   0  0  0  0  0  0  0  0  0  0  0  0
  -86.3004   27.6231    0.9208 O   0  0  0  0  0  0  0  0  0  0  0  0
  -89.0963   28.5850   -0.3596 H   0  0  0  0  0  0  0  0  0  0  0  0
  -88.9691   27.4502    0.9752 H   0  0  0  0  0  0  0  0  0  0  0  0
  -83.3287   31.6041    0.4516 C   0  0  0  0  0  0  0  0  0  0  0  0
  -82.5647   30.4398    0.5149 F   0  0  0  0  0  0  0  0  0  0  0  0
  -83.1605   32.2766    1.6354 F   0  0  0  0  0  0  0  0  0  0  0  0
  -82.8272   32.3183   -0.6326 F   0  0  0  0  0  0  0  0  0  0  0  0
  -88.2217   33.1282   -2.6849 S   0  0  0  0  0  0  0  0  0  0  0  0
  -87.2424   32.2543   -3.4792 O   0  0  0  0  0  0  0  0  0  0  0  0
  -89.5475   32.4371   -2.7632 O   0  0  0  0  0  0  0  0  0  0  0  0
  -88.6889   37.2425   -4.5451 C   0  0  0  0  0  0  0  0  0  0  0  0
  -89.7295   36.5210   -4.0392 C   0  0  0  0  0  0  0  0  0  0  0  0
  -89.5695   35.2809   -3.4905 C   0  0  0  0  0  0  0  0  0  0  0  0
  -88.3027   34.6933   -3.4363 C   0  0  0  0  0  0  0  0  0  0  0  0
  -87.2344   35.4027   -3.9389 C   0  0  0  0  0  0  0  0  0  0  0  0
  -87.3922   36.6755   -4.4948 C   0  0  0  0  0  0  0  0  0  0  0  0
  -90.1702   39.0945   -5.1475 C   0  0  0  0  0  0  0  0  0  0  0  0
  -88.8885   38.4972   -5.0959 O   0  0  0  0  0  0  0  0  0  0  0  0
  -86.3927   37.3876   -4.9779 O   0  0  0  0  0  0  0  0  0  0  0  0
  -85.3992   38.1988   -5.1126 C   0  0  0  0  0  0  0  0  0  0  0  0
 27 28  1  0  0  0
 28 21  1  0  0  0
 21 22  2  0  0  0
 22 23  1  0  0  0
 23 24  2  0  0  0
 24 25  1  0  0  0
 25 26  2  0  0  0
 26 29  1  0  0  0
 29 30  1  0  0  0
 24 18  1  0  0  0
 18 19  2  0  0  0
 18 20  2  0  0  0
 18  1  1  0  0  0
  1  3  1  0  0  0
  3  4  2  0  0  0
  4  5  1  0  0  0
  5  6  2  0  0  0
  6  7  1  0  0  0
  7  8  2  0  0  0
  7 14  1  0  0  0
 14 15  1  0  0  0
 14 16  1  0  0  0
 14 17  1  0  0  0
  5  9  1  0  0  0
  9 10  1  0  0  0
  9 11  2  0  0  0
 26 21  1  0  0  0
  8  3  1  0  0  0
  1  2  1  0  0  0
 10 12  1  0  0  0
 10 13  1  0  0  0
M  END
> <minimizedAffinity>
-7.35358

> <CNNscore>
0.1756680757

> <CNNaffinity>
5.3034024239

> <CNN_VS>
0.9316384792

> <CNNaffinity_variance>
0.3803712726

$$$$
[H]c1c([H])c(S(=O)(=O)N([H])c2c([H])c(C(=O)N([H])[H])c([H])c(C(F)(F)F)c2[H])c([H])c(OC([H])([H])[H])c1OC([H])([H])[H]


 30 31  0  0  0  0  0  0  0  0999 V2000
  -88.1055   30.6850   -0.2264 N   0  0  0  0  0  0  0  0  0  0  0  0
  -88.7979   31.0335    0.4488 H   0  0  0  0  0  0  0  0  0  0  0  0
  -86.7286   30.7304    0.1262 C   0  0  0  0  0  0  0  0  0  0  0  0
  -85.8560   31.6803   -0.2781 C   0  0  0  0  0  0  0  0  0  0  0  0
  -84.4946   31.6203    0.0941 C   0  0  0  0  0  0  0  0  0  0  0  0
  -84.0268   30.5994    0.8768 C   0  0  0  0  0  0  0  0  0  0  0  0
  -84.8989   29.6258    1.2995 C   0  0  0  0  0  0  0  0  0  0  0  0
  -86.2243   29.6914    0.9298 C   0  0  0  0  0  0  0  0  0  0  0  0
  -83.5327   32.6194   -0.3251 C   0  0  0  0  0  0  0  0  0  0  0  0
  -82.1870   32.5450    0.0591 N   0  0  0  0  0  0  0  0  0  0  0  0
  -83.9405   33.5598   -1.0461 O   0  0  0  0  0  0  0  0  0  0  0  0
  -81.6715   31.6519    0.2162 H   0  0  0  0  0  0  0  0  0  0  0  0
  -81.5895   33.4066    0.2203 H   0  0  0  0  0  0  0  0  0  0  0  0
  -84.4660   28.5098    2.1964 C   0  0  0  0  0  0  0  0  0  0  0  0
  -83.0773   28.3902    2.2205 F   0  0  0  0  0  0  0  0  0  0  0  0
  -84.9783   27.3184    1.7491 F   0  0  0  0  0  0  0  0  0  0  0  0
  -84.8379   28.7799    3.5101 F   0  0  0  0  0  0  0  0  0  0  0  0
  -88.5355   30.0435   -1.7645 S   0  0  0  0  0  0  0  0  0  0  0  0
  -89.7406   30.8298   -2.2963 O   0  0  0  0  0  0  0  0  0  0  0  0
  -87.4168   30.3046   -2.7248 O   0  0  0  0  0  0  0  0  0  0  0  0
  -89.3930   25.5921   -1.5264 C   0  0  0  0  0  0  0  0  0  0  0  0
  -88.2584   26.1688   -1.0370 C   0  0  0  0  0  0  0  0  0  0  0  0
  -88.0152   27.5096   -1.1255 C   0  0  0  0  0  0  0  0  0  0  0  0
  -88.9416   28.3537   -1.7438 C   0  0  0  0  0  0  0  0  0  0  0  0
  -90.0971   27.7959   -2.2447 C   0  0  0  0  0  0  0  0  0  0  0  0
  -90.3538   26.4251   -2.1499 C   0  0  0  0  0  0  0  0  0  0  0  0
  -90.0722   23.6359   -0.2231 C   0  0  0  0  0  0  0  0  0  0  0  0
  -89.6057   24.2280   -1.4206 O   0  0  0  0  0  0  0  0  0  0  0  0
  -91.4514   25.8568   -2.6098 O   0  0  0  0  0  0  0  0  0  0  0  0
  -92.2923   25.1478   -3.2833 C   0  0  0  0  0  0  0  0  0  0  0  0
 27 28  1  0  0  0
 28 21  1  0  0  0
 21 22  2  0  0  0
 22 23  1  0  0  0
 23 24  2  0  0  0
 24 25  1  0  0  0
 25 26  2  0  0  0
 26 29  1  0  0  0
 29 30  1  0  0  0
 24 18  1  0  0  0
 18 19  2  0  0  0
 18 20  2  0  0  0
 18  1  1  0  0  0
  1  3  1  0  0  0
  3  4  2  0  0  0
  4  5  1  0  0  0
  5  6  2  0  0  0
  6  7  1  0  0  0
  7  8  2  0  0  0
  7 14  1  0  0  0
 14 15  1  0  0  0
 14 16  1  0  0  0
 14 17  1  0  0  0
  5  9  1  0  0  0
  9 10  1  0  0  0
  9 11  2  0  0  0
 26 21  1  0  0  0
  8  3  1  0  0  0
  1  2  1  0  0  0
 10 12  1  0  0  0
 10 13  1  0  0  0
M  END
> <minimizedAffinity>
-7.89797

> <CNNscore>
0.1572360545

> <CNNaffinity>
5.6253209114

> <CNN_VS>
0.8845032454

> <CNNaffinity_variance>
0.3998339772

$$$$
[H]c1c([H])c(S(=O)(=O)N([H])c2c([H])c(C(=O)N([H])[H])c([H])c(C(F)(F)F)c2[H])c([H])c(OC([H])([H])[H])c1OC([H])([H])[H]


 30 31  0  0  0  0  0  0  0  0999 V2000
  -90.3687   32.1379   -2.2819 N   0  0  0  0  0  0  0  0  0  0  0  0
  -91.1490   32.5966   -1.7947 H   0  0  0  0  0  0  0  0  0  0  0  0
  -89.1812   32.8838   -2.5180 C   0  0  0  0  0  0  0  0  0  0  0  0
  -89.0006   33.7504   -3.5396 C   0  0  0  0  0  0  0  0  0  0  0  0
  -87.7685   34.4189   -3.7145 C   0  0  0  0  0  0  0  0  0  0  0  0
  -86.7280   34.2074   -2.8506 C   0  0  0  0  0  0  0  0  0  0  0  0
  -86.8932   33.3321   -1.8048 C   0  0  0  0  0  0  0  0  0  0  0  0
  -88.0975   32.6830   -1.6434 C   0  0  0  0  0  0  0  0  0  0  0  0
  -87.5406   35.3504   -4.8005 C   0  0  0  0  0  0  0  0  0  0  0  0
  -86.5827   36.3686   -4.7013 N   0  0  0  0  0  0  0  0  0  0  0  0
  -88.2294   35.2200   -5.8393 O   0  0  0  0  0  0  0  0  0  0  0  0
  -85.6950   36.2865   -4.1597 H   0  0  0  0  0  0  0  0  0  0  0  0
  -86.6964   37.3096   -5.1776 H   0  0  0  0  0  0  0  0  0  0  0  0
  -85.8157   33.0913   -0.7957 C   0  0  0  0  0  0  0  0  0  0  0  0
  -84.5510   33.1793   -1.3756 F   0  0  0  0  0  0  0  0  0  0  0  0
  -85.9414   31.8343   -0.2610 F   0  0  0  0  0  0  0  0  0  0  0  0
  -85.8453   34.0819    0.1816 F   0  0  0  0  0  0  0  0  0  0  0  0
  -90.4300   30.5049   -2.8220 S   0  0  0  0  0  0  0  0  0  0  0  0
  -91.7791   30.2756   -3.5154 O   0  0  0  0  0  0  0  0  0  0  0  0
  -89.3857   30.3071   -3.8765 O   0  0  0  0  0  0  0  0  0  0  0  0
  -89.7596   27.3146    0.3371 C   0  0  0  0  0  0  0  0  0  0  0  0
  -89.2516   27.2434   -0.9264 C   0  0  0  0  0  0  0  0  0  0  0  0
  -89.4713   28.2102   -1.8653 C   0  0  0  0  0  0  0  0  0  0  0  0
  -90.2507   29.3281   -1.5556 C   0  0  0  0  0  0  0  0  0  0  0  0
  -90.7739   29.4247   -0.2851 C   0  0  0  0  0  0  0  0  0  0  0  0
  -90.5456   28.4412    0.6816 C   0  0  0  0  0  0  0  0  0  0  0  0
  -88.3375   26.2888    2.0435 C   0  0  0  0  0  0  0  0  0  0  0  0
  -89.5177   26.3143    1.2634 O   0  0  0  0  0  0  0  0  0  0  0  0
  -91.0225   28.5033    1.9096 O   0  0  0  0  0  0  0  0  0  0  0  0
  -91.2079   28.7797    3.1556 C   0  0  0  0  0  0  0  0  0  0  0  0
 27 28  1  0  0  0
 28 21  1  0  0  0
 21 22  2  0  0  0
 22 23  1  0  0  0
 23 24  2  0  0  0
 24 25  1  0  0  0
 25 26  2  0  0  0
 26 29  1  0  0  0
 29 30  1  0  0  0
 24 18  1  0  0  0
 18 19  2  0  0  0
 18 20  2  0  0  0
 18  1  1  0  0  0
  1  3  1  0  0  0
  3  4  2  0  0  0
  4  5  1  0  0  0
  5  6  2  0  0  0
  6  7  1  0  0  0
  7  8  2  0  0  0
  7 14  1  0  0  0
 14 15  1  0  0  0
 14 16  1  0  0  0
 14 17  1  0  0  0
  5  9  1  0  0  0
  9 10  1  0  0  0
  9 11  2  0  0  0
 26 21  1  0  0  0
  8  3  1  0  0  0
  1  2  1  0  0  0
 10 12  1  0  0  0
 10 13  1  0  0  0
M  END
> <minimizedAffinity>
-7.08036

> <CNNscore>
0.1475684196

> <CNNaffinity>
5.2799119949

> <CNN_VS>
0.7791482806

> <CNNaffinity_variance>
0.3701813817

$$$$
[H]c1c([H])c(S(=O)(=O)N([H])c2c([H])c(C(=O)N([H])[H])c([H])c(C(F)(F)F)c2[H])c([H])c(OC([H])([H])[H])c1OC([H])([H])[H]


 30 31  0  0  0  0  0  0  0  0999 V2000
  -88.2267   32.6227   -1.0215 N   0  0  0  0  0  0  0  0  0  0  0  0
  -88.7352   33.2942   -0.4323 H   0  0  0  0  0  0  0  0  0  0  0  0
  -87.0099   32.0730   -0.5322 C   0  0  0  0  0  0  0  0  0  0  0  0
  -85.8160   32.7068   -0.5367 C   0  0  0  0  0  0  0  0  0  0  0  0
  -84.6513   32.0633   -0.0624 C   0  0  0  0  0  0  0  0  0  0  0  0
  -84.7047   30.7822    0.4168 C   0  0  0  0  0  0  0  0  0  0  0  0
  -85.9095   30.1224    0.4316 C   0  0  0  0  0  0  0  0  0  0  0  0
  -87.0396   30.7571   -0.0349 C   0  0  0  0  0  0  0  0  0  0  0  0
  -83.3560   32.7124   -0.0569 C   0  0  0  0  0  0  0  0  0  0  0  0
  -82.2276   32.0875    0.4911 N   0  0  0  0  0  0  0  0  0  0  0  0
  -83.2718   33.8574   -0.5592 O   0  0  0  0  0  0  0  0  0  0  0  0
  -82.0680   31.0567    0.4842 H   0  0  0  0  0  0  0  0  0  0  0  0
  -81.4447   32.6288    0.9596 H   0  0  0  0  0  0  0  0  0  0  0  0
  -86.0489   28.7404    0.9865 C   0  0  0  0  0  0  0  0  0  0  0  0
  -86.6217   27.8766    0.0542 F   0  0  0  0  0  0  0  0  0  0  0  0
  -86.8597   28.7550    2.0929 F   0  0  0  0  0  0  0  0  0  0  0  0
  -84.7935   28.2071    1.2638 F   0  0  0  0  0  0  0  0  0  0  0  0
  -88.7822   32.1279   -2.5736 S   0  0  0  0  0  0  0  0  0  0  0  0
  -89.5669   33.2885   -3.1986 O   0  0  0  0  0  0  0  0  0  0  0  0
  -87.5969   31.9065   -3.4611 O   0  0  0  0  0  0  0  0  0  0  0  0
  -91.2141   28.2960   -2.4761 C   0  0  0  0  0  0  0  0  0  0  0  0
  -89.8577   28.3251   -2.6138 C   0  0  0  0  0  0  0  0  0  0  0  0
  -89.1447   29.4892   -2.6488 C   0  0  0  0  0  0  0  0  0  0  0  0
  -89.8003   30.7194   -2.5505 C   0  0  0  0  0  0  0  0  0  0  0  0
  -91.1704   30.7171   -2.4086 C   0  0  0  0  0  0  0  0  0  0  0  0
  -91.9037   29.5279   -2.3648 C   0  0  0  0  0  0  0  0  0  0  0  0
  -91.2416   25.8503   -2.5427 C   0  0  0  0  0  0  0  0  0  0  0  0
  -91.9050   27.0964   -2.4462 O   0  0  0  0  0  0  0  0  0  0  0  0
  -93.2141   29.4858   -2.2217 O   0  0  0  0  0  0  0  0  0  0  0  0
  -94.4635   29.7954   -2.1414 C   0  0  0  0  0  0  0  0  0  0  0  0
 27 28  1  0  0  0
 28 21  1  0  0  0
 21 22  2  0  0  0
 22 23  1  0  0  0
 23 24  2  0  0  0
 24 25  1  0  0  0
 25 26  2  0  0  0
 26 29  1  0  0  0
 29 30  1  0  0  0
 24 18  1  0  0  0
 18 19  2  0  0  0
 18 20  2  0  0  0
 18  1  1  0  0  0
  1  3  1  0  0  0
  3  4  2  0  0  0
  4  5  1  0  0  0
  5  6  2  0  0  0
  6  7  1  0  0  0
  7  8  2  0  0  0
  7 14  1  0  0  0
 14 15  1  0  0  0
 14 16  1  0  0  0
 14 17  1  0  0  0
  5  9  1  0  0  0
  9 10  1  0  0  0
  9 11  2  0  0  0
 26 21  1  0  0  0
  8  3  1  0  0  0
  1  2  1  0  0  0
 10 12  1  0  0  0
 10 13  1  0  0  0
M  END
> <minimizedAffinity>
-7.06425

> <CNNscore>
0.1319220811

> <CNNaffinity>
5.6471357346

> <CNN_VS>
0.7449818850

> <CNNaffinity_variance>
0.2756189108

$$$$
[H]N=C(N([H])[H])N([H])C([H])([H])C([H])([H])C([H])([H])[C@@]([H])(C(=O)O[H])N([H])C(=O)[C@]([H])(N([H])C(=O)[C@@]([H])(N([H])C(=O)[C@]([H])(N([H])C(=O)[C@@]([H])(N([H])C(=O)[C@@]([H])(N([H])C(=O)[C@@]([H])(N([H])C(=O)C([H])(C([H])([H])O[H])C([H])([H])O[H])C([H])([H])O[H])C([H])([H])O[H])C([H])([H])O[H])C([H])([H])O[H])C([H])([H])O[H])C([H])([H])O[H]


 75 74  0  0  0  0  0  0  0  0999 V2000
  -91.0431   25.2897    0.8550 C   0  0  0  0  0  0  0  0  0  0  0  0
  -91.9930   23.5743   -0.7122 N   0  0  0  0  0  0  0  0  0  0  0  0
  -91.9521   24.8938   -0.2465 C   0  0  0  0  0  0  0  0  0  0  0  0
  -92.6896   25.7683   -0.7569 O   0  0  0  0  0  0  0  0  0  0  0  0
  -91.3688   22.8508   -0.2963 H   0  0  0  0  0  0  0  0  0  0  0  0
  -92.8888   23.1915   -1.7633 C   0  0  0  0  0  0  0  0  0  0  0  0
  -94.8219   21.5604   -1.8023 N   0  0  0  0  0  0  0  0  0  0  0  0
  -93.4667   21.8478   -1.5792 C   0  0  0  0  0  0  0  0  0  0  0  0
  -92.6558   20.9372   -1.2020 O   0  0  0  0  0  0  0  0  0  0  0  0
  -95.4612   22.3417   -2.0944 H   0  0  0  0  0  0  0  0  0  0  0  0
  -95.3786   20.2162   -1.6464 C   0  0  0  0  0  0  0  0  0  0  0  0
  -94.0192   18.6317   -3.1118 N   0  0  0  0  0  0  0  0  0  0  0  0
  -95.1436   19.4301   -2.8628 C   0  0  0  0  0  0  0  0  0  0  0  0
  -96.0426   19.4714   -3.7837 O   0  0  0  0  0  0  0  0  0  0  0  0
  -93.2043   18.5200   -2.4722 H   0  0  0  0  0  0  0  0  0  0  0  0
  -93.8889   17.8398   -4.3462 C   0  0  0  0  0  0  0  0  0  0  0  0
  -93.8142   16.4204   -4.0094 C   0  0  0  0  0  0  0  0  0  0  0  0
  -93.6677   16.0277   -2.6935 O   0  0  0  0  0  0  0  0  0  0  0  0
  -93.8817   15.5144   -4.9041 O   0  0  0  0  0  0  0  0  0  0  0  0
  -93.6440   15.0656   -2.3772 H   0  0  0  0  0  0  0  0  0  0  0  0
  -92.7425   18.3471   -5.1968 C   0  0  0  0  0  0  0  0  0  0  0  0
  -93.1667   18.8914   -6.5109 C   0  0  0  0  0  0  0  0  0  0  0  0
  -92.3877   18.4693   -7.7042 C   0  0  0  0  0  0  0  0  0  0  0  0
  -91.8326   19.4661   -8.5311 N   0  0  0  0  0  0  0  0  0  0  0  0
  -90.8308   19.7831   -8.3386 H   0  0  0  0  0  0  0  0  0  0  0  0
  -93.5196   21.0342   -9.5052 N   0  0  0  0  0  0  0  0  0  0  0  0
  -92.4548   20.1056   -9.6155 C   0  0  0  0  0  0  0  0  0  0  0  0
  -92.0245   19.8415  -10.8172 N   0  0  0  0  0  0  0  0  0  0  0  0
  -94.4364   20.8710   -9.9393 H   0  0  0  0  0  0  0  0  0  0  0  0
  -93.3474   21.9071   -8.9671 H   0  0  0  0  0  0  0  0  0  0  0  0
  -91.2499   19.1741  -10.9754 H   0  0  0  0  0  0  0  0  0  0  0  0
  -95.0071   19.6202   -0.3436 C   0  0  0  0  0  0  0  0  0  0  0  0
  -95.9954   18.8706    0.2450 O   0  0  0  0  0  0  0  0  0  0  0  0
  -96.7843   19.4482    0.3549 H   0  0  0  0  0  0  0  0  0  0  0  0
  -92.0434   23.0501   -3.0688 C   0  0  0  0  0  0  0  0  0  0  0  0
  -92.4857   21.9877   -3.8181 O   0  0  0  0  0  0  0  0  0  0  0  0
  -92.2420   22.0368   -4.7692 H   0  0  0  0  0  0  0  0  0  0  0  0
  -89.8643   25.9156    0.2881 N   0  0  0  0  0  0  0  0  0  0  0  0
  -89.6094   27.3017    0.2544 C   0  0  0  0  0  0  0  0  0  0  0  0
  -90.5196   28.0501    0.7602 O   0  0  0  0  0  0  0  0  0  0  0  0
  -89.1707   25.2635   -0.1255 H   0  0  0  0  0  0  0  0  0  0  0  0
  -88.4183   27.9526   -0.2961 C   0  0  0  0  0  0  0  0  0  0  0  0
  -88.7978   29.2722   -0.8050 N   0  0  0  0  0  0  0  0  0  0  0  0
  -88.6496   29.5798   -2.1797 C   0  0  0  0  0  0  0  0  0  0  0  0
  -88.1928   28.7233   -2.9553 O   0  0  0  0  0  0  0  0  0  0  0  0
  -89.1693   29.9578   -0.1535 H   0  0  0  0  0  0  0  0  0  0  0  0
  -89.0291   30.9078   -2.6925 C   0  0  0  0  0  0  0  0  0  0  0  0
  -87.8519   31.7603   -2.4554 N   0  0  0  0  0  0  0  0  0  0  0  0
  -87.7277   32.5841   -1.3480 C   0  0  0  0  0  0  0  0  0  0  0  0
  -88.6839   32.6156   -0.4985 O   0  0  0  0  0  0  0  0  0  0  0  0
  -87.1005   31.7121   -3.1712 H   0  0  0  0  0  0  0  0  0  0  0  0
  -86.5230   33.4187   -1.1267 C   0  0  0  0  0  0  0  0  0  0  0  0
  -85.7039   32.9056   -0.0600 N   0  0  0  0  0  0  0  0  0  0  0  0
  -85.3864   31.5794    0.2220 C   0  0  0  0  0  0  0  0  0  0  0  0
  -85.8829   30.6936   -0.5670 O   0  0  0  0  0  0  0  0  0  0  0  0
  -85.2996   33.6542    0.5845 H   0  0  0  0  0  0  0  0  0  0  0  0
  -84.5487   31.1068    1.3201 C   0  0  0  0  0  0  0  0  0  0  0  0
  -84.1745   29.6537    1.2131 C   0  0  0  0  0  0  0  0  0  0  0  0
  -84.3805   29.0861    2.4756 O   0  0  0  0  0  0  0  0  0  0  0  0
  -85.0389   28.3343    2.3369 H   0  0  0  0  0  0  0  0  0  0  0  0
  -83.3070   31.9335    1.5233 C   0  0  0  0  0  0  0  0  0  0  0  0
  -82.6893   32.2539    0.3171 O   0  0  0  0  0  0  0  0  0  0  0  0
  -82.8093   33.2147    0.1598 H   0  0  0  0  0  0  0  0  0  0  0  0
  -85.7545   33.3504   -2.4607 C   0  0  0  0  0  0  0  0  0  0  0  0
  -86.4147   34.1187   -3.4236 O   0  0  0  0  0  0  0  0  0  0  0  0
  -86.0994   33.8194   -4.3049 H   0  0  0  0  0  0  0  0  0  0  0  0
  -89.2000   30.8997   -4.2039 C   0  0  0  0  0  0  0  0  0  0  0  0
  -88.0011   30.7447   -4.8862 O   0  0  0  0  0  0  0  0  0  0  0  0
  -87.2978   30.3909   -4.2845 H   0  0  0  0  0  0  0  0  0  0  0  0
  -87.4603   28.1606    0.8831 C   0  0  0  0  0  0  0  0  0  0  0  0
  -87.8097   27.2684    1.8761 O   0  0  0  0  0  0  0  0  0  0  0  0
  -87.7762   26.3590    1.4590 H   0  0  0  0  0  0  0  0  0  0  0  0
  -90.7528   24.2076    1.8350 C   0  0  0  0  0  0  0  0  0  0  0  0
  -89.6290   24.5875    2.5916 O   0  0  0  0  0  0  0  0  0  0  0  0
  -89.8840   25.2031    3.3402 H   0  0  0  0  0  0  0  0  0  0  0  0
 26 27  1  0  0  0
 27 28  2  0  0  0
 27 24  1  0  0  0
 24 23  1  0  0  0
 23 22  1  0  0  0
 22 21  1  0  0  0
 21 16  1  0  0  0
 16 12  1  0  0  0
 12 13  1  0  0  0
 13 14  2  0  0  0
 13 11  1  0  0  0
 11 32  1  0  0  0
 32 33  1  0  0  0
 11  7  1  0  0  0
  7  8  1  0  0  0
  8  9  2  0  0  0
  8  6  1  0  0  0
  6 35  1  0  0  0
 35 36  1  0  0  0
  6  2  1  0  0  0
  2  3  1  0  0  0
  3  4  2  0  0  0
  3  1  1  0  0  0
  1 73  1  0  0  0
 73 74  1  0  0  0
  1 38  1  0  0  0
 38 39  1  0  0  0
 39 40  2  0  0  0
 39 42  1  0  0  0
 42 70  1  0  0  0
 70 71  1  0  0  0
 42 43  1  0  0  0
 43 44  1  0  0  0
 44 45  2  0  0  0
 44 47  1  0  0  0
 47 67  1  0  0  0
 67 68  1  0  0  0
 47 48  1  0  0  0
 48 49  1  0  0  0
 49 50  2  0  0  0
 49 52  1  0  0  0
 52 64  1  0  0  0
 64 65  1  0  0  0
 52 53  1  0  0  0
 53 54  1  0  0  0
 54 55  2  0  0  0
 54 57  1  0  0  0
 57 61  1  0  0  0
 61 62  1  0  0  0
 57 58  1  0  0  0
 58 59  1  0  0  0
 16 17  1  0  0  0
 17 18  1  0  0  0
 17 19  2  0  0  0
 26 29  1  0  0  0
 26 30  1  0  0  0
 28 31  1  0  0  0
 24 25  1  0  0  0
 12 15  1  0  0  0
 33 34  1  0  0  0
  7 10  1  0  0  0
 36 37  1  0  0  0
  2  5  1  0  0  0
 74 75  1  0  0  0
 38 41  1  0  0  0
 71 72  1  0  0  0
 43 46  1  0  0  0
 68 69  1  0  0  0
 48 51  1  0  0  0
 65 66  1  0  0  0
 53 56  1  0  0  0
 62 63  1  0  0  0
 59 60  1  0  0  0
 18 20  1  0  0  0
M  END
> <minimizedAffinity>
-7.04977

> <CNNscore>
0.3571123779

> <CNNaffinity>
5.3910727501

> <CNN_VS>
1.9252188206

> <CNNaffinity_variance>
0.4331755638

$$$$
[H]N=C(N([H])[H])N([H])C([H])([H])C([H])([H])C([H])([H])[C@@]([H])(C(=O)O[H])N([H])C(=O)[C@]([H])(N([H])C(=O)[C@@]([H])(N([H])C(=O)[C@]([H])(N([H])C(=O)[C@@]([H])(N([H])C(=O)[C@@]([H])(N([H])C(=O)[C@@]([H])(N([H])C(=O)C([H])(C([H])([H])O[H])C([H])([H])O[H])C([H])([H])O[H])C([H])([H])O[H])C([H])([H])O[H])C([H])([H])O[H])C([H])([H])O[H])C([H])([H])O[H]


 75 74  0  0  0  0  0  0  0  0999 V2000
  -87.0808   33.0654   -3.2508 C   0  0  0  0  0  0  0  0  0  0  0  0
  -88.5469   34.3375   -4.8426 N   0  0  0  0  0  0  0  0  0  0  0  0
  -87.7495   34.3121   -3.6923 C   0  0  0  0  0  0  0  0  0  0  0  0
  -87.5874   35.3511   -3.0115 O   0  0  0  0  0  0  0  0  0  0  0  0
  -88.6694   33.4760   -5.4160 H   0  0  0  0  0  0  0  0  0  0  0  0
  -89.2086   35.5403   -5.2538 C   0  0  0  0  0  0  0  0  0  0  0  0
  -91.1291   34.2703   -6.3017 N   0  0  0  0  0  0  0  0  0  0  0  0
  -90.6403   35.3489   -5.5489 C   0  0  0  0  0  0  0  0  0  0  0  0
  -91.4320   36.2295   -5.0727 O   0  0  0  0  0  0  0  0  0  0  0  0
  -90.4431   33.5764   -6.6919 H   0  0  0  0  0  0  0  0  0  0  0  0
  -92.5554   34.0732   -6.5624 C   0  0  0  0  0  0  0  0  0  0  0  0
  -92.0299   35.1997   -8.7896 N   0  0  0  0  0  0  0  0  0  0  0  0
  -92.8778   34.4844   -7.9334 C   0  0  0  0  0  0  0  0  0  0  0  0
  -94.0356   34.1637   -8.3966 O   0  0  0  0  0  0  0  0  0  0  0  0
  -91.0778   35.5458   -8.5461 H   0  0  0  0  0  0  0  0  0  0  0  0
  -92.4220   35.5310  -10.1696 C   0  0  0  0  0  0  0  0  0  0  0  0
  -91.3374   35.1791  -11.0826 C   0  0  0  0  0  0  0  0  0  0  0  0
  -90.8772   33.8783  -11.1425 O   0  0  0  0  0  0  0  0  0  0  0  0
  -90.7912   36.0465  -11.8410 O   0  0  0  0  0  0  0  0  0  0  0  0
  -90.1557   33.5496  -11.7730 H   0  0  0  0  0  0  0  0  0  0  0  0
  -92.8889   36.9687  -10.2698 C   0  0  0  0  0  0  0  0  0  0  0  0
  -94.2295   37.1215  -10.8884 C   0  0  0  0  0  0  0  0  0  0  0  0
  -94.3891   36.6490  -12.2885 C   0  0  0  0  0  0  0  0  0  0  0  0
  -95.1640   35.4960  -12.5242 N   0  0  0  0  0  0  0  0  0  0  0  0
  -96.1328   35.6174  -12.9575 H   0  0  0  0  0  0  0  0  0  0  0  0
  -95.2494   33.4122  -11.1444 N   0  0  0  0  0  0  0  0  0  0  0  0
  -94.8005   34.1661  -12.2571 C   0  0  0  0  0  0  0  0  0  0  0  0
  -93.9988   33.5661  -13.0916 N   0  0  0  0  0  0  0  0  0  0  0  0
  -94.6014   33.0247  -10.4475 H   0  0  0  0  0  0  0  0  0  0  0  0
  -96.2722   33.2513  -11.0489 H   0  0  0  0  0  0  0  0  0  0  0  0
  -93.6310   34.0532  -13.9270 H   0  0  0  0  0  0  0  0  0  0  0  0
  -93.0147   32.7434   -6.1028 C   0  0  0  0  0  0  0  0  0  0  0  0
  -93.1889   31.8209   -7.1045 O   0  0  0  0  0  0  0  0  0  0  0  0
  -93.8348   32.1937   -7.7463 H   0  0  0  0  0  0  0  0  0  0  0  0
  -88.6041   35.9578   -6.6321 C   0  0  0  0  0  0  0  0  0  0  0  0
  -89.5892   36.4129   -7.4737 O   0  0  0  0  0  0  0  0  0  0  0  0
  -89.2628   36.9868   -8.2021 H   0  0  0  0  0  0  0  0  0  0  0  0
  -88.0931   32.0718   -2.9496 N   0  0  0  0  0  0  0  0  0  0  0  0
  -88.5718   31.0935   -3.8446 C   0  0  0  0  0  0  0  0  0  0  0  0
  -88.0641   31.1163   -5.0220 O   0  0  0  0  0  0  0  0  0  0  0  0
  -88.4836   32.1128   -1.9887 H   0  0  0  0  0  0  0  0  0  0  0  0
  -89.5790   30.0701   -3.5552 C   0  0  0  0  0  0  0  0  0  0  0  0
  -89.1802   29.3485   -2.3450 N   0  0  0  0  0  0  0  0  0  0  0  0
  -89.3728   27.9484   -2.2494 C   0  0  0  0  0  0  0  0  0  0  0  0
  -89.8851   27.3323   -3.1990 O   0  0  0  0  0  0  0  0  0  0  0  0
  -88.7631   29.8717   -1.5804 H   0  0  0  0  0  0  0  0  0  0  0  0
  -88.9740   27.2216   -1.0316 C   0  0  0  0  0  0  0  0  0  0  0  0
  -89.0940   25.7958   -1.3802 N   0  0  0  0  0  0  0  0  0  0  0  0
  -89.9826   24.9377   -0.7522 C   0  0  0  0  0  0  0  0  0  0  0  0
  -90.7246   25.4012    0.1814 O   0  0  0  0  0  0  0  0  0  0  0  0
  -88.4697   25.4560   -2.1380 H   0  0  0  0  0  0  0  0  0  0  0  0
  -90.0936   23.5105   -1.1361 C   0  0  0  0  0  0  0  0  0  0  0  0
  -90.5382   22.6930   -0.0379 N   0  0  0  0  0  0  0  0  0  0  0  0
  -89.8824   21.6192    0.5588 C   0  0  0  0  0  0  0  0  0  0  0  0
  -88.7314   21.3128    0.0740 O   0  0  0  0  0  0  0  0  0  0  0  0
  -91.4947   22.9615    0.3525 H   0  0  0  0  0  0  0  0  0  0  0  0
  -90.3764   20.8175    1.6743 C   0  0  0  0  0  0  0  0  0  0  0  0
  -91.2223   19.6480    1.2505 C   0  0  0  0  0  0  0  0  0  0  0  0
  -90.7934   19.2776   -0.0291 O   0  0  0  0  0  0  0  0  0  0  0  0
  -90.5113   18.3116    0.0424 H   0  0  0  0  0  0  0  0  0  0  0  0
  -89.2864   20.3430    2.5981 C   0  0  0  0  0  0  0  0  0  0  0  0
  -88.7575   19.1189    2.1968 O   0  0  0  0  0  0  0  0  0  0  0  0
  -87.8470   19.2747    1.8666 H   0  0  0  0  0  0  0  0  0  0  0  0
  -91.1432   23.4936   -2.2643 C   0  0  0  0  0  0  0  0  0  0  0  0
  -91.4486   24.8041   -2.6420 O   0  0  0  0  0  0  0  0  0  0  0  0
  -92.3090   24.7802   -3.1161 H   0  0  0  0  0  0  0  0  0  0  0  0
  -87.4989   27.4178   -0.7167 C   0  0  0  0  0  0  0  0  0  0  0  0
  -87.0343   26.5592    0.2700 O   0  0  0  0  0  0  0  0  0  0  0  0
  -87.6552   25.7967    0.3929 H   0  0  0  0  0  0  0  0  0  0  0  0
  -90.8788   30.8233   -3.2472 C   0  0  0  0  0  0  0  0  0  0  0  0
  -90.7631   32.0978   -3.7635 O   0  0  0  0  0  0  0  0  0  0  0  0
  -90.5585   31.9873   -4.7371 H   0  0  0  0  0  0  0  0  0  0  0  0
  -86.0677   33.2553   -2.1769 C   0  0  0  0  0  0  0  0  0  0  0  0
  -86.7415   33.3378   -0.9445 O   0  0  0  0  0  0  0  0  0  0  0  0
  -86.9583   32.4275   -0.5853 H   0  0  0  0  0  0  0  0  0  0  0  0
 26 27  1  0  0  0
 27 28  2  0  0  0
 27 24  1  0  0  0
 24 23  1  0  0  0
 23 22  1  0  0  0
 22 21  1  0  0  0
 21 16  1  0  0  0
 16 12  1  0  0  0
 12 13  1  0  0  0
 13 14  2  0  0  0
 13 11  1  0  0  0
 11 32  1  0  0  0
 32 33  1  0  0  0
 11  7  1  0  0  0
  7  8  1  0  0  0
  8  9  2  0  0  0
  8  6  1  0  0  0
  6 35  1  0  0  0
 35 36  1  0  0  0
  6  2  1  0  0  0
  2  3  1  0  0  0
  3  4  2  0  0  0
  3  1  1  0  0  0
  1 73  1  0  0  0
 73 74  1  0  0  0
  1 38  1  0  0  0
 38 39  1  0  0  0
 39 40  2  0  0  0
 39 42  1  0  0  0
 42 70  1  0  0  0
 70 71  1  0  0  0
 42 43  1  0  0  0
 43 44  1  0  0  0
 44 45  2  0  0  0
 44 47  1  0  0  0
 47 67  1  0  0  0
 67 68  1  0  0  0
 47 48  1  0  0  0
 48 49  1  0  0  0
 49 50  2  0  0  0
 49 52  1  0  0  0
 52 64  1  0  0  0
 64 65  1  0  0  0
 52 53  1  0  0  0
 53 54  1  0  0  0
 54 55  2  0  0  0
 54 57  1  0  0  0
 57 61  1  0  0  0
 61 62  1  0  0  0
 57 58  1  0  0  0
 58 59  1  0  0  0
 16 17  1  0  0  0
 17 18  1  0  0  0
 17 19  2  0  0  0
 26 29  1  0  0  0
 26 30  1  0  0  0
 28 31  1  0  0  0
 24 25  1  0  0  0
 12 15  1  0  0  0
 33 34  1  0  0  0
  7 10  1  0  0  0
 36 37  1  0  0  0
  2  5  1  0  0  0
 74 75  1  0  0  0
 38 41  1  0  0  0
 71 72  1  0  0  0
 43 46  1  0  0  0
 68 69  1  0  0  0
 48 51  1  0  0  0
 65 66  1  0  0  0
 53 56  1  0  0  0
 62 63  1  0  0  0
 59 60  1  0  0  0
 18 20  1  0  0  0
M  END
> <minimizedAffinity>
-5.78639

> <CNNscore>
0.1143293679

> <CNNaffinity>
4.8661398888

> <CNN_VS>
0.5563427210

> <CNNaffinity_variance>
0.5918131471

$$$$
[H]N=C(N([H])[H])N([H])C([H])([H])C([H])([H])C([H])([H])[C@@]([H])(C(=O)O[H])N([H])C(=O)[C@]([H])(N([H])C(=O)[C@@]([H])(N([H])C(=O)[C@]([H])(N([H])C(=O)[C@@]([H])(N([H])C(=O)[C@@]([H])(N([H])C(=O)[C@@]([H])(N([H])C(=O)C([H])(C([H])([H])O[H])C([H])([H])O[H])C([H])([H])O[H])C([H])([H])O[H])C([H])([H])O[H])C([H])([H])O[H])C([H])([H])O[H])C([H])([H])O[H]


 75 74  0  0  0  0  0  0  0  0999 V2000
  -90.1358   30.2079   -2.5367 C   0  0  0  0  0  0  0  0  0  0  0  0
  -88.3995   31.9826   -2.1666 N   0  0  0  0  0  0  0  0  0  0  0  0
  -88.8815   30.9014   -2.9138 C   0  0  0  0  0  0  0  0  0  0  0  0
  -88.2551   30.4989   -3.9212 O   0  0  0  0  0  0  0  0  0  0  0  0
  -88.9290   32.3256   -1.3371 H   0  0  0  0  0  0  0  0  0  0  0  0
  -87.1752   32.6367   -2.5227 C   0  0  0  0  0  0  0  0  0  0  0  0
  -85.5323   31.8312   -0.7760 N   0  0  0  0  0  0  0  0  0  0  0  0
  -86.2755   32.8590   -1.3761 C   0  0  0  0  0  0  0  0  0  0  0  0
  -86.2009   34.0592   -0.9484 O   0  0  0  0  0  0  0  0  0  0  0  0
  -85.6355   30.8529   -1.1457 H   0  0  0  0  0  0  0  0  0  0  0  0
  -84.6187   32.0686    0.3421 C   0  0  0  0  0  0  0  0  0  0  0  0
  -84.8600   29.6294    1.0476 N   0  0  0  0  0  0  0  0  0  0  0  0
  -84.7495   30.9964    1.3350 C   0  0  0  0  0  0  0  0  0  0  0  0
  -84.7636   31.3320    2.5782 O   0  0  0  0  0  0  0  0  0  0  0  0
  -84.8864   29.2133    0.0928 H   0  0  0  0  0  0  0  0  0  0  0  0
  -84.9422   28.6174    2.1139 C   0  0  0  0  0  0  0  0  0  0  0  0
  -83.5971   28.1698    2.4663 C   0  0  0  0  0  0  0  0  0  0  0  0
  -82.5068   28.9730    2.1952 O   0  0  0  0  0  0  0  0  0  0  0  0
  -83.3905   27.0432    3.0266 O   0  0  0  0  0  0  0  0  0  0  0  0
  -81.5497   28.7495    2.4406 H   0  0  0  0  0  0  0  0  0  0  0  0
  -85.8970   27.5048    1.7322 C   0  0  0  0  0  0  0  0  0  0  0  0
  -87.2969   27.7421    2.1648 C   0  0  0  0  0  0  0  0  0  0  0  0
  -88.2014   26.5638    2.2144 C   0  0  0  0  0  0  0  0  0  0  0  0
  -88.7685   26.1011    1.0104 N   0  0  0  0  0  0  0  0  0  0  0  0
  -88.8335   26.7799    0.1881 H   0  0  0  0  0  0  0  0  0  0  0  0
  -90.1985   24.1270    1.5687 N   0  0  0  0  0  0  0  0  0  0  0  0
  -89.2657   24.8134    0.7521 C   0  0  0  0  0  0  0  0  0  0  0  0
  -88.8538   24.1965   -0.3198 N   0  0  0  0  0  0  0  0  0  0  0  0
  -89.9802   23.2262    2.0120 H   0  0  0  0  0  0  0  0  0  0  0  0
  -91.1323   24.5623    1.7086 H   0  0  0  0  0  0  0  0  0  0  0  0
  -88.1735   24.6356   -0.9639 H   0  0  0  0  0  0  0  0  0  0  0  0
  -83.2620   32.4262   -0.1293 C   0  0  0  0  0  0  0  0  0  0  0  0
  -83.0954   33.7535   -0.4384 O   0  0  0  0  0  0  0  0  0  0  0  0
  -83.7598   33.9869   -1.1254 H   0  0  0  0  0  0  0  0  0  0  0  0
  -87.5369   34.0827   -2.9891 C   0  0  0  0  0  0  0  0  0  0  0  0
  -86.5563   34.5855   -3.8086 O   0  0  0  0  0  0  0  0  0  0  0  0
  -86.8551   35.3195   -4.3901 H   0  0  0  0  0  0  0  0  0  0  0  0
  -91.2566   30.9089   -3.1325 N   0  0  0  0  0  0  0  0  0  0  0  0
  -91.9009   30.5509   -4.3342 C   0  0  0  0  0  0  0  0  0  0  0  0
  -91.4262   29.5245   -4.9389 O   0  0  0  0  0  0  0  0  0  0  0  0
  -91.5862   31.7437   -2.6110 H   0  0  0  0  0  0  0  0  0  0  0  0
  -93.0449   31.2334   -4.9431 C   0  0  0  0  0  0  0  0  0  0  0  0
  -94.1993   30.3330   -4.9117 N   0  0  0  0  0  0  0  0  0  0  0  0
  -94.5995   29.7231   -3.6975 C   0  0  0  0  0  0  0  0  0  0  0  0
  -93.9640   29.9541   -2.6551 O   0  0  0  0  0  0  0  0  0  0  0  0
  -94.7049   30.1580   -5.7755 H   0  0  0  0  0  0  0  0  0  0  0  0
  -95.7595   28.8154   -3.6651 C   0  0  0  0  0  0  0  0  0  0  0  0
  -95.1950   27.4667   -3.8418 N   0  0  0  0  0  0  0  0  0  0  0  0
  -95.8903   26.4310   -4.4454 C   0  0  0  0  0  0  0  0  0  0  0  0
  -97.0813   26.6519   -4.8573 O   0  0  0  0  0  0  0  0  0  0  0  0
  -94.2286   27.3253   -3.4878 H   0  0  0  0  0  0  0  0  0  0  0  0
  -95.2900   25.0879   -4.6250 C   0  0  0  0  0  0  0  0  0  0  0  0
  -94.2978   24.8056   -3.6210 N   0  0  0  0  0  0  0  0  0  0  0  0
  -92.9788   25.2484   -3.5634 C   0  0  0  0  0  0  0  0  0  0  0  0
  -92.5895   26.0081   -4.5252 O   0  0  0  0  0  0  0  0  0  0  0  0
  -94.6380   24.1745   -2.8302 H   0  0  0  0  0  0  0  0  0  0  0  0
  -92.0069   24.9333   -2.5208 C   0  0  0  0  0  0  0  0  0  0  0  0
  -92.0984   25.8312   -1.3173 C   0  0  0  0  0  0  0  0  0  0  0  0
  -93.1290   26.7442   -1.5679 O   0  0  0  0  0  0  0  0  0  0  0  0
  -93.7912   26.6273   -0.8158 H   0  0  0  0  0  0  0  0  0  0  0  0
  -92.0481   23.4942   -2.0805 C   0  0  0  0  0  0  0  0  0  0  0  0
  -92.1040   22.6183   -3.1617 O   0  0  0  0  0  0  0  0  0  0  0  0
  -91.2439   22.1501   -3.2185 H   0  0  0  0  0  0  0  0  0  0  0  0
  -96.4746   24.1124   -4.4839 C   0  0  0  0  0  0  0  0  0  0  0  0
  -97.0435   23.8790   -5.7390 O   0  0  0  0  0  0  0  0  0  0  0  0
  -97.9476   23.5239   -5.5902 H   0  0  0  0  0  0  0  0  0  0  0  0
  -96.4105   28.7830   -2.2908 C   0  0  0  0  0  0  0  0  0  0  0  0
  -97.7605   28.4632   -2.3356 O   0  0  0  0  0  0  0  0  0  0  0  0
  -97.9935   28.0446   -3.2031 H   0  0  0  0  0  0  0  0  0  0  0  0
  -93.3586   32.4325   -4.0400 C   0  0  0  0  0  0  0  0  0  0  0  0
  -92.3617   33.3698   -4.2178 O   0  0  0  0  0  0  0  0  0  0  0  0
  -92.3402   33.5723   -5.1979 H   0  0  0  0  0  0  0  0  0  0  0  0
  -90.2811   29.9441   -1.0789 C   0  0  0  0  0  0  0  0  0  0  0  0
  -91.5262   29.3250   -0.8646 O   0  0  0  0  0  0  0  0  0  0  0  0
  -91.4795   28.3397   -1.0427 H   0  0  0  0  0  0  0  0  0  0  0  0
 26 27  1  0  0  0
 27 28  2  0  0  0
 27 24  1  0  0  0
 24 23  1  0  0  0
 23 22  1  0  0  0
 22 21  1  0  0  0
 21 16  1  0  0  0
 16 12  1  0  0  0
 12 13  1  0  0  0
 13 14  2  0  0  0
 13 11  1  0  0  0
 11 32  1  0  0  0
 32 33  1  0  0  0
 11  7  1  0  0  0
  7  8  1  0  0  0
  8  9  2  0  0  0
  8  6  1  0  0  0
  6 35  1  0  0  0
 35 36  1  0  0  0
  6  2  1  0  0  0
  2  3  1  0  0  0
  3  4  2  0  0  0
  3  1  1  0  0  0
  1 73  1  0  0  0
 73 74  1  0  0  0
  1 38  1  0  0  0
 38 39  1  0  0  0
 39 40  2  0  0  0
 39 42  1  0  0  0
 42 70  1  0  0  0
 70 71  1  0  0  0
 42 43  1  0  0  0
 43 44  1  0  0  0
 44 45  2  0  0  0
 44 47  1  0  0  0
 47 67  1  0  0  0
 67 68  1  0  0  0
 47 48  1  0  0  0
 48 49  1  0  0  0
 49 50  2  0  0  0
 49 52  1  0  0  0
 52 64  1  0  0  0
 64 65  1  0  0  0
 52 53  1  0  0  0
 53 54  1  0  0  0
 54 55  2  0  0  0
 54 57  1  0  0  0
 57 61  1  0  0  0
 61 62  1  0  0  0
 57 58  1  0  0  0
 58 59  1  0  0  0
 16 17  1  0  0  0
 17 18  1  0  0  0
 17 19  2  0  0  0
 26 29  1  0  0  0
 26 30  1  0  0  0
 28 31  1  0  0  0
 24 25  1  0  0  0
 12 15  1  0  0  0
 33 34  1  0  0  0
  7 10  1  0  0  0
 36 37  1  0  0  0
  2  5  1  0  0  0
 74 75  1  0  0  0
 38 41  1  0  0  0
 71 72  1  0  0  0
 43 46  1  0  0  0
 68 69  1  0  0  0
 48 51  1  0  0  0
 65 66  1  0  0  0
 53 56  1  0  0  0
 62 63  1  0  0  0
 59 60  1  0  0  0
 18 20  1  0  0  0
M  END
> <minimizedAffinity>
-6.47139

> <CNNscore>
0.0789259374

> <CNNaffinity>
5.4279217720

> <CNN_VS>
0.4284038246

> <CNNaffinity_variance>
1.0878164768

$$$$
[H]N=C(N([H])[H])N([H])C([H])([H])C([H])([H])C([H])([H])[C@@]([H])(C(=O)O[H])N([H])C(=O)[C@]([H])(N([H])C(=O)[C@@]([H])(N([H])C(=O)[C@]([H])(N([H])C(=O)[C@@]([H])(N([H])C(=O)[C@@]([H])(N([H])C(=O)[C@@]([H])(N([H])C(=O)C([H])(C([H])([H])O[H])C([H])([H])O[H])C([H])([H])O[H])C([H])([H])O[H])C([H])([H])O[H])C([H])([H])O[H])C([H])([H])O[H])C([H])([H])O[H]


 75 74  0  0  0  0  0  0  0  0999 V2000
  -87.7868   27.3342    0.4315 C   0  0  0  0  0  0  0  0  0  0  0  0
  -89.1513   27.4275    2.5364 N   0  0  0  0  0  0  0  0  0  0  0  0
  -87.9763   27.0529    1.8741 C   0  0  0  0  0  0  0  0  0  0  0  0
  -87.0586   26.4685    2.4951 O   0  0  0  0  0  0  0  0  0  0  0  0
  -89.9080   27.9264    2.0220 H   0  0  0  0  0  0  0  0  0  0  0  0
  -89.3388   27.1346    3.9266 C   0  0  0  0  0  0  0  0  0  0  0  0
  -89.3202   24.6084    3.7956 N   0  0  0  0  0  0  0  0  0  0  0  0
  -89.9398   25.8105    4.1697 C   0  0  0  0  0  0  0  0  0  0  0  0
  -91.0749   25.8103    4.7533 O   0  0  0  0  0  0  0  0  0  0  0  0
  -88.3942   24.6517    3.3005 H   0  0  0  0  0  0  0  0  0  0  0  0
  -89.9116   23.2983    4.0695 C   0  0  0  0  0  0  0  0  0  0  0  0
  -90.1412   21.9678    1.9055 N   0  0  0  0  0  0  0  0  0  0  0  0
  -90.6482   22.8229    2.8931 C   0  0  0  0  0  0  0  0  0  0  0  0
  -91.8648   23.2199    2.7495 O   0  0  0  0  0  0  0  0  0  0  0  0
  -89.1720   21.5865    1.8765 H   0  0  0  0  0  0  0  0  0  0  0  0
  -90.9705   21.5058    0.7801 C   0  0  0  0  0  0  0  0  0  0  0  0
  -90.9874   20.0453    0.7541 C   0  0  0  0  0  0  0  0  0  0  0  0
  -90.2015   19.3279    1.6345 O   0  0  0  0  0  0  0  0  0  0  0  0
  -91.7165   19.3977   -0.0674 O   0  0  0  0  0  0  0  0  0  0  0  0
  -90.1851   18.3173    1.7021 H   0  0  0  0  0  0  0  0  0  0  0  0
  -90.5328   22.1543   -0.5172 C   0  0  0  0  0  0  0  0  0  0  0  0
  -91.4013   23.2783   -0.9479 C   0  0  0  0  0  0  0  0  0  0  0  0
  -90.8706   24.1812   -2.0024 C   0  0  0  0  0  0  0  0  0  0  0  0
  -91.5884   25.3553   -2.3053 N   0  0  0  0  0  0  0  0  0  0  0  0
  -91.0589   26.1730   -2.7435 H   0  0  0  0  0  0  0  0  0  0  0  0
  -93.5154   26.1993   -0.9533 N   0  0  0  0  0  0  0  0  0  0  0  0
  -92.9591   25.5823   -2.1014 C   0  0  0  0  0  0  0  0  0  0  0  0
  -93.7914   25.2113   -3.0334 N   0  0  0  0  0  0  0  0  0  0  0  0
  -94.1880   25.7178   -0.3439 H   0  0  0  0  0  0  0  0  0  0  0  0
  -93.2253   27.1745   -0.7388 H   0  0  0  0  0  0  0  0  0  0  0  0
  -93.4581   24.7549   -3.9001 H   0  0  0  0  0  0  0  0  0  0  0  0
  -88.9372   22.3825    4.7041 C   0  0  0  0  0  0  0  0  0  0  0  0
  -87.9302   23.0089    5.3958 O   0  0  0  0  0  0  0  0  0  0  0  0
  -87.4655   23.6095    4.7702 H   0  0  0  0  0  0  0  0  0  0  0  0
  -90.4122   28.1290    4.4726 C   0  0  0  0  0  0  0  0  0  0  0  0
  -91.3669   28.3812    3.5183 O   0  0  0  0  0  0  0  0  0  0  0  0
  -92.2195   28.7115    3.8794 H   0  0  0  0  0  0  0  0  0  0  0  0
  -88.5806   28.4931    0.0716 N   0  0  0  0  0  0  0  0  0  0  0  0
  -89.9485   28.4748   -0.2684 C   0  0  0  0  0  0  0  0  0  0  0  0
  -90.5099   27.3219   -0.2666 O   0  0  0  0  0  0  0  0  0  0  0  0
  -88.0702   29.3970    0.0669 H   0  0  0  0  0  0  0  0  0  0  0  0
  -90.7726   29.6347   -0.6166 C   0  0  0  0  0  0  0  0  0  0  0  0
  -89.9211   30.6400   -1.2560 N   0  0  0  0  0  0  0  0  0  0  0  0
  -89.2421   30.3411   -2.4627 C   0  0  0  0  0  0  0  0  0  0  0  0
  -89.3704   29.2178   -2.9780 O   0  0  0  0  0  0  0  0  0  0  0  0
  -89.8302   31.5522   -0.8178 H   0  0  0  0  0  0  0  0  0  0  0  0
  -88.3835   31.3509   -3.1058 C   0  0  0  0  0  0  0  0  0  0  0  0
  -87.2387   31.5163   -2.1944 N   0  0  0  0  0  0  0  0  0  0  0  0
  -87.1647   32.5301   -1.2524 C   0  0  0  0  0  0  0  0  0  0  0  0
  -88.1284   33.3683   -1.1785 O   0  0  0  0  0  0  0  0  0  0  0  0
  -86.4733   30.8204   -2.2902 H   0  0  0  0  0  0  0  0  0  0  0  0
  -86.0070   32.6617   -0.3363 C   0  0  0  0  0  0  0  0  0  0  0  0
  -85.4504   31.3806    0.0117 N   0  0  0  0  0  0  0  0  0  0  0  0
  -84.9402   30.9667    1.2395 C   0  0  0  0  0  0  0  0  0  0  0  0
  -84.9670   31.8328    2.1897 O   0  0  0  0  0  0  0  0  0  0  0  0
  -85.4366   30.6740   -0.7882 H   0  0  0  0  0  0  0  0  0  0  0  0
  -84.3838   29.6521    1.5445 C   0  0  0  0  0  0  0  0  0  0  0  0
  -82.8810   29.6315    1.6085 C   0  0  0  0  0  0  0  0  0  0  0  0
  -82.4370   30.8795    1.1570 O   0  0  0  0  0  0  0  0  0  0  0  0
  -81.8910   31.2684    1.9110 H   0  0  0  0  0  0  0  0  0  0  0  0
  -84.9503   29.0393    2.7975 C   0  0  0  0  0  0  0  0  0  0  0  0
  -84.3466   27.8221    3.1031 O   0  0  0  0  0  0  0  0  0  0  0  0
  -83.7948   27.9491    3.9042 H   0  0  0  0  0  0  0  0  0  0  0  0
  -84.9758   33.4857   -1.1316 C   0  0  0  0  0  0  0  0  0  0  0  0
  -85.4258   33.6624   -2.4430 O   0  0  0  0  0  0  0  0  0  0  0  0
  -84.6466   33.9042   -2.9908 H   0  0  0  0  0  0  0  0  0  0  0  0
  -87.7740   30.8304   -4.3985 C   0  0  0  0  0  0  0  0  0  0  0  0
  -88.6549   30.8710   -5.4705 O   0  0  0  0  0  0  0  0  0  0  0  0
  -89.4136   31.4789   -5.2787 H   0  0  0  0  0  0  0  0  0  0  0  0
  -91.7848   29.1437   -1.6587 C   0  0  0  0  0  0  0  0  0  0  0  0
  -93.0394   29.1899   -1.0860 O   0  0  0  0  0  0  0  0  0  0  0  0
  -93.1718   30.1335   -0.7791 H   0  0  0  0  0  0  0  0  0  0  0  0
  -87.9811   26.1564   -0.4578 C   0  0  0  0  0  0  0  0  0  0  0  0
  -88.3859   25.0670    0.3351 O   0  0  0  0  0  0  0  0  0  0  0  0
  -89.3707   25.0957    0.5197 H   0  0  0  0  0  0  0  0  0  0  0  0
 26 27  1  0  0  0
 27 28  2  0  0  0
 27 24  1  0  0  0
 24 23  1  0  0  0
 23 22  1  0  0  0
 22 21  1  0  0  0
 21 16  1  0  0  0
 16 12  1  0  0  0
 12 13  1  0  0  0
 13 14  2  0  0  0
 13 11  1  0  0  0
 11 32  1  0  0  0
 32 33  1  0  0  0
 11  7  1  0  0  0
  7  8  1  0  0  0
  8  9  2  0  0  0
  8  6  1  0  0  0
  6 35  1  0  0  0
 35 36  1  0  0  0
  6  2  1  0  0  0
  2  3  1  0  0  0
  3  4  2  0  0  0
  3  1  1  0  0  0
  1 73  1  0  0  0
 73 74  1  0  0  0
  1 38  1  0  0  0
 38 39  1  0  0  0
 39 40  2  0  0  0
 39 42  1  0  0  0
 42 70  1  0  0  0
 70 71  1  0  0  0
 42 43  1  0  0  0
 43 44  1  0  0  0
 44 45  2  0  0  0
 44 47  1  0  0  0
 47 67  1  0  0  0
 67 68  1  0  0  0
 47 48  1  0  0  0
 48 49  1  0  0  0
 49 50  2  0  0  0
 49 52  1  0  0  0
 52 64  1  0  0  0
 64 65  1  0  0  0
 52 53  1  0  0  0
 53 54  1  0  0  0
 54 55  2  0  0  0
 54 57  1  0  0  0
 57 61  1  0  0  0
 61 62  1  0  0  0
 57 58  1  0  0  0
 58 59  1  0  0  0
 16 17  1  0  0  0
 17 18  1  0  0  0
 17 19  2  0  0  0
 26 29  1  0  0  0
 26 30  1  0  0  0
 28 31  1  0  0  0
 24 25  1  0  0  0
 12 15  1  0  0  0
 33 34  1  0  0  0
  7 10  1  0  0  0
 36 37  1  0  0  0
  2  5  1  0  0  0
 74 75  1  0  0  0
 38 41  1  0  0  0
 71 72  1  0  0  0
 43 46  1  0  0  0
 68 69  1  0  0  0
 48 51  1  0  0  0
 65 66  1  0  0  0
 53 56  1  0  0  0
 62 63  1  0  0  0
 59 60  1  0  0  0
 18 20  1  0  0  0
M  END
> <minimizedAffinity>
-8.09543

> <CNNscore>
0.0750266910

> <CNNaffinity>
5.4970564842

> <CNN_VS>
0.4124259651

> <CNNaffinity_variance>
2.2203204632

$$$$
[H]N=C(N([H])[H])N([H])C([H])([H])C([H])([H])C([H])([H])[C@@]([H])(C(=O)O[H])N([H])C(=O)[C@]([H])(N([H])C(=O)[C@@]([H])(N([H])C(=O)[C@]([H])(N([H])C(=O)[C@@]([H])(N([H])C(=O)[C@@]([H])(N([H])C(=O)[C@@]([H])(N([H])C(=O)C([H])(C([H])([H])O[H])C([H])([H])O[H])C([H])([H])O[H])C([H])([H])O[H])C([H])([H])O[H])C([H])([H])O[H])C([H])([H])O[H])C([H])([H])O[H]


 75 74  0  0  0  0  0  0  0  0999 V2000
  -90.1238   29.7318   -1.2142 C   0  0  0  0  0  0  0  0  0  0  0  0
  -88.6746   31.5859   -2.0879 N   0  0  0  0  0  0  0  0  0  0  0  0
  -88.7986   30.2906   -1.5718 C   0  0  0  0  0  0  0  0  0  0  0  0
  -87.7831   29.5771   -1.4019 O   0  0  0  0  0  0  0  0  0  0  0  0
  -89.5216   32.1732   -2.2421 H   0  0  0  0  0  0  0  0  0  0  0  0
  -87.3891   32.1297   -2.4124 C   0  0  0  0  0  0  0  0  0  0  0  0
  -85.5371   31.7109   -0.7409 N   0  0  0  0  0  0  0  0  0  0  0  0
  -86.5929   32.4969   -1.2272 C   0  0  0  0  0  0  0  0  0  0  0  0
  -86.9153   33.5907   -0.6539 O   0  0  0  0  0  0  0  0  0  0  0  0
  -85.3146   30.8078   -1.2301 H   0  0  0  0  0  0  0  0  0  0  0  0
  -84.7334   32.1005    0.4181 C   0  0  0  0  0  0  0  0  0  0  0  0
  -84.7035   29.6706    1.1932 N   0  0  0  0  0  0  0  0  0  0  0  0
  -84.7800   31.0481    1.4393 C   0  0  0  0  0  0  0  0  0  0  0  0
  -84.9002   31.4131    2.6683 O   0  0  0  0  0  0  0  0  0  0  0  0
  -84.6284   29.2285    0.2527 H   0  0  0  0  0  0  0  0  0  0  0  0
  -84.7134   28.6860    2.2879 C   0  0  0  0  0  0  0  0  0  0  0  0
  -83.3586   28.1846    2.5050 C   0  0  0  0  0  0  0  0  0  0  0  0
  -83.1619   26.9714    3.1348 O   0  0  0  0  0  0  0  0  0  0  0  0
  -82.3324   28.8395    2.1256 O   0  0  0  0  0  0  0  0  0  0  0  0
  -82.2581   26.5410    3.2895 H   0  0  0  0  0  0  0  0  0  0  0  0
  -85.7513   27.6107    2.0398 C   0  0  0  0  0  0  0  0  0  0  0  0
  -87.1145   27.9767    2.4990 C   0  0  0  0  0  0  0  0  0  0  0  0
  -88.2515   27.2030    1.9353 C   0  0  0  0  0  0  0  0  0  0  0  0
  -88.3736   27.1124    0.5345 N   0  0  0  0  0  0  0  0  0  0  0  0
  -88.6936   27.9786   -0.0025 H   0  0  0  0  0  0  0  0  0  0  0  0
  -87.4900   26.0284   -1.5385 N   0  0  0  0  0  0  0  0  0  0  0  0
  -88.1090   25.9883   -0.2644 C   0  0  0  0  0  0  0  0  0  0  0  0
  -88.4440   24.8142    0.1921 N   0  0  0  0  0  0  0  0  0  0  0  0
  -87.9590   25.6873   -2.3867 H   0  0  0  0  0  0  0  0  0  0  0  0
  -86.5265   26.4146   -1.5971 H   0  0  0  0  0  0  0  0  0  0  0  0
  -88.8993   24.7069    1.1149 H   0  0  0  0  0  0  0  0  0  0  0  0
  -83.4105   32.6257    0.0123 C   0  0  0  0  0  0  0  0  0  0  0  0
  -82.3474   32.0852    0.6924 O   0  0  0  0  0  0  0  0  0  0  0  0
  -82.4913   32.2482    1.6519 H   0  0  0  0  0  0  0  0  0  0  0  0
  -87.6278   33.4962   -3.1300 C   0  0  0  0  0  0  0  0  0  0  0  0
  -86.4376   34.0327   -3.5559 O   0  0  0  0  0  0  0  0  0  0  0  0
  -86.5290   34.6904   -4.2807 H   0  0  0  0  0  0  0  0  0  0  0  0
  -91.1240   30.2920   -2.1023 N   0  0  0  0  0  0  0  0  0  0  0  0
  -91.6469   29.6599   -3.2487 C   0  0  0  0  0  0  0  0  0  0  0  0
  -91.1697   28.4996   -3.5144 O   0  0  0  0  0  0  0  0  0  0  0  0
  -91.4596   31.2414   -1.8506 H   0  0  0  0  0  0  0  0  0  0  0  0
  -92.6697   30.1995   -4.1477 C   0  0  0  0  0  0  0  0  0  0  0  0
  -93.3012   29.0874   -4.8611 N   0  0  0  0  0  0  0  0  0  0  0  0
  -93.9629   29.3103   -6.0936 C   0  0  0  0  0  0  0  0  0  0  0  0
  -94.0076   30.4575   -6.5685 O   0  0  0  0  0  0  0  0  0  0  0  0
  -93.2528   28.1573   -4.4550 H   0  0  0  0  0  0  0  0  0  0  0  0
  -94.6004   28.1926   -6.8112 C   0  0  0  0  0  0  0  0  0  0  0  0
  -95.0660   27.2765   -5.7563 N   0  0  0  0  0  0  0  0  0  0  0  0
  -94.6760   25.9487   -5.6840 C   0  0  0  0  0  0  0  0  0  0  0  0
  -93.8850   25.4936   -6.5807 O   0  0  0  0  0  0  0  0  0  0  0  0
  -95.7126   27.6816   -5.0512 H   0  0  0  0  0  0  0  0  0  0  0  0
  -95.1476   25.0542   -4.6004 C   0  0  0  0  0  0  0  0  0  0  0  0
  -94.3514   25.1898   -3.4088 N   0  0  0  0  0  0  0  0  0  0  0  0
  -93.2503   24.4329   -3.0165 C   0  0  0  0  0  0  0  0  0  0  0  0
  -92.8913   23.4914   -3.8155 O   0  0  0  0  0  0  0  0  0  0  0  0
  -94.6629   25.9761   -2.7576 H   0  0  0  0  0  0  0  0  0  0  0  0
  -92.4729   24.6089   -1.7936 C   0  0  0  0  0  0  0  0  0  0  0  0
  -91.1174   23.9581   -1.8397 C   0  0  0  0  0  0  0  0  0  0  0  0
  -91.3139   22.5914   -1.6116 O   0  0  0  0  0  0  0  0  0  0  0  0
  -90.9332   22.1189   -2.4176 H   0  0  0  0  0  0  0  0  0  0  0  0
  -92.3269   26.0492   -1.3803 C   0  0  0  0  0  0  0  0  0  0  0  0
  -91.3544   26.2148   -0.3974 O   0  0  0  0  0  0  0  0  0  0  0  0
  -90.5902   26.6791   -0.8010 H   0  0  0  0  0  0  0  0  0  0  0  0
  -96.5930   25.5110   -4.3230 C   0  0  0  0  0  0  0  0  0  0  0  0
  -97.3347   25.4691   -5.5069 O   0  0  0  0  0  0  0  0  0  0  0  0
  -98.1253   26.0385   -5.3785 H   0  0  0  0  0  0  0  0  0  0  0  0
  -95.8689   28.6331   -7.5256 C   0  0  0  0  0  0  0  0  0  0  0  0
  -95.7602   28.5819   -8.9085 O   0  0  0  0  0  0  0  0  0  0  0  0
  -94.9953   28.0133   -9.1798 H   0  0  0  0  0  0  0  0  0  0  0  0
  -93.7314   30.8460   -3.2497 C   0  0  0  0  0  0  0  0  0  0  0  0
  -93.3891   32.1713   -3.0747 O   0  0  0  0  0  0  0  0  0  0  0  0
  -93.3147   32.5642   -3.9923 H   0  0  0  0  0  0  0  0  0  0  0  0
  -90.4641   29.8269    0.2318 C   0  0  0  0  0  0  0  0  0  0  0  0
  -91.6421   29.0912    0.4570 O   0  0  0  0  0  0  0  0  0  0  0  0
  -91.4475   28.1136    0.5625 H   0  0  0  0  0  0  0  0  0  0  0  0
 26 27  1  0  0  0
 27 28  2  0  0  0
 27 24  1  0  0  0
 24 23  1  0  0  0
 23 22  1  0  0  0
 22 21  1  0  0  0
 21 16  1  0  0  0
 16 12  1  0  0  0
 12 13  1  0  0  0
 13 14  2  0  0  0
 13 11  1  0  0  0
 11 32  1  0  0  0
 32 33  1  0  0  0
 11  7  1  0  0  0
  7  8  1  0  0  0
  8  9  2  0  0  0
  8  6  1  0  0  0
  6 35  1  0  0  0
 35 36  1  0  0  0
  6  2  1  0  0  0
  2  3  1  0  0  0
  3  4  2  0  0  0
  3  1  1  0  0  0
  1 73  1  0  0  0
 73 74  1  0  0  0
  1 38  1  0  0  0
 38 39  1  0  0  0
 39 40  2  0  0  0
 39 42  1  0  0  0
 42 70  1  0  0  0
 70 71  1  0  0  0
 42 43  1  0  0  0
 43 44  1  0  0  0
 44 45  2  0  0  0
 44 47  1  0  0  0
 47 67  1  0  0  0
 67 68  1  0  0  0
 47 48  1  0  0  0
 48 49  1  0  0  0
 49 50  2  0  0  0
 49 52  1  0  0  0
 52 64  1  0  0  0
 64 65  1  0  0  0
 52 53  1  0  0  0
 53 54  1  0  0  0
 54 55  2  0  0  0
 54 57  1  0  0  0
 57 61  1  0  0  0
 61 62  1  0  0  0
 57 58  1  0  0  0
 58 59  1  0  0  0
 16 17  1  0  0  0
 17 18  1  0  0  0
 17 19  2  0  0  0
 26 29  1  0  0  0
 26 30  1  0  0  0
 28 31  1  0  0  0
 24 25  1  0  0  0
 12 15  1  0  0  0
 33 34  1  0  0  0
  7 10  1  0  0  0
 36 37  1  0  0  0
  2  5  1  0  0  0
 74 75  1  0  0  0
 38 41  1  0  0  0
 71 72  1  0  0  0
 43 46  1  0  0  0
 68 69  1  0  0  0
 48 51  1  0  0  0
 65 66  1  0  0  0
 53 56  1  0  0  0
 62 63  1  0  0  0
 59 60  1  0  0  0
 18 20  1  0  0  0
M  END
> <minimizedAffinity>
-6.95661

> <CNNscore>
0.0687895194

> <CNNaffinity>
5.2280220985

> <CNN_VS>
0.3596331179

> <CNNaffinity_variance>
1.8015689850

$$$$
[H]N=C(N([H])[H])N([H])C([H])([H])C([H])([H])C([H])([H])[C@@]([H])(C(=O)O[H])N([H])C(=O)[C@]([H])(N([H])C(=O)[C@@]([H])(N([H])C(=O)[C@]([H])(N([H])C(=O)[C@@]([H])(N([H])C(=O)[C@@]([H])(N([H])C(=O)[C@@]([H])(N([H])C(=O)C([H])(C([H])([H])O[H])C([H])([H])O[H])C([H])([H])O[H])C([H])([H])O[H])C([H])([H])O[H])C([H])([H])O[H])C([H])([H])O[H])C([H])([H])O[H]


 75 74  0  0  0  0  0  0  0  0999 V2000
  -90.4024   29.4610   -1.8651 C   0  0  0  0  0  0  0  0  0  0  0  0
  -88.7511   31.3182   -2.2191 N   0  0  0  0  0  0  0  0  0  0  0  0
  -89.0303   29.9487   -2.1404 C   0  0  0  0  0  0  0  0  0  0  0  0
  -88.1173   29.1063   -2.3020 O   0  0  0  0  0  0  0  0  0  0  0  0
  -89.5141   32.0177   -2.0985 H   0  0  0  0  0  0  0  0  0  0  0  0
  -87.4187   31.7854   -2.4645 C   0  0  0  0  0  0  0  0  0  0  0  0
  -85.4690   31.6655   -0.8572 N   0  0  0  0  0  0  0  0  0  0  0  0
  -86.7090   32.1992   -1.2403 C   0  0  0  0  0  0  0  0  0  0  0  0
  -87.2881   33.0888   -0.5317 O   0  0  0  0  0  0  0  0  0  0  0  0
  -85.0335   30.9214   -1.4580 H   0  0  0  0  0  0  0  0  0  0  0  0
  -84.7587   32.1059    0.3439 C   0  0  0  0  0  0  0  0  0  0  0  0
  -84.8891   29.6779    1.1147 N   0  0  0  0  0  0  0  0  0  0  0  0
  -84.7976   31.0536    1.3656 C   0  0  0  0  0  0  0  0  0  0  0  0
  -84.7422   31.4169    2.5998 O   0  0  0  0  0  0  0  0  0  0  0  0
  -84.9646   29.2397    0.1724 H   0  0  0  0  0  0  0  0  0  0  0  0
  -84.8766   28.6887    2.2051 C   0  0  0  0  0  0  0  0  0  0  0  0
  -83.5045   28.2527    2.4523 C   0  0  0  0  0  0  0  0  0  0  0  0
  -82.4447   29.0544    2.0760 O   0  0  0  0  0  0  0  0  0  0  0  0
  -83.2461   27.1378    3.0146 O   0  0  0  0  0  0  0  0  0  0  0  0
  -81.4694   28.8390    2.2447 H   0  0  0  0  0  0  0  0  0  0  0  0
  -85.8548   27.5654    1.9287 C   0  0  0  0  0  0  0  0  0  0  0  0
  -86.8974   27.9112    0.9303 C   0  0  0  0  0  0  0  0  0  0  0  0
  -88.3149   27.7248    1.3364 C   0  0  0  0  0  0  0  0  0  0  0  0
  -89.1335   26.8871    0.5531 N   0  0  0  0  0  0  0  0  0  0  0  0
  -90.1926   27.0098    0.6187 H   0  0  0  0  0  0  0  0  0  0  0  0
  -88.4666   24.5365    0.0207 N   0  0  0  0  0  0  0  0  0  0  0  0
  -88.7103   25.8861   -0.3362 C   0  0  0  0  0  0  0  0  0  0  0  0
  -88.5338   26.2066   -1.5873 N   0  0  0  0  0  0  0  0  0  0  0  0
  -87.5463   24.0956   -0.0986 H   0  0  0  0  0  0  0  0  0  0  0  0
  -89.2592   23.9877    0.4102 H   0  0  0  0  0  0  0  0  0  0  0  0
  -88.6930   27.1727   -1.9216 H   0  0  0  0  0  0  0  0  0  0  0  0
  -83.4502   32.7126    0.0116 C   0  0  0  0  0  0  0  0  0  0  0  0
  -82.4086   32.2946    0.8023 O   0  0  0  0  0  0  0  0  0  0  0  0
  -82.6422   32.4957    1.7366 H   0  0  0  0  0  0  0  0  0  0  0  0
  -87.5320   33.1088   -3.2861 C   0  0  0  0  0  0  0  0  0  0  0  0
  -86.3198   33.7522   -3.3353 O   0  0  0  0  0  0  0  0  0  0  0  0
  -86.2300   34.3847   -4.0825 H   0  0  0  0  0  0  0  0  0  0  0  0
  -91.2883   29.9399   -2.9085 N   0  0  0  0  0  0  0  0  0  0  0  0
  -91.8982   29.1395   -3.8957 C   0  0  0  0  0  0  0  0  0  0  0  0
  -91.6168   27.8891   -3.8544 O   0  0  0  0  0  0  0  0  0  0  0  0
  -91.4647   30.9628   -2.9064 H   0  0  0  0  0  0  0  0  0  0  0  0
  -92.8097   29.5997   -4.9459 C   0  0  0  0  0  0  0  0  0  0  0  0
  -92.2177   30.7674   -5.6022 N   0  0  0  0  0  0  0  0  0  0  0  0
  -92.4457   32.0687   -5.0913 C   0  0  0  0  0  0  0  0  0  0  0  0
  -93.1540   32.2170   -4.0814 O   0  0  0  0  0  0  0  0  0  0  0  0
  -91.6417   30.6235   -6.4268 H   0  0  0  0  0  0  0  0  0  0  0  0
  -91.8525   33.2443   -5.7519 C   0  0  0  0  0  0  0  0  0  0  0  0
  -92.9777   34.1690   -5.9702 N   0  0  0  0  0  0  0  0  0  0  0  0
  -93.9257   33.9824   -6.9637 C   0  0  0  0  0  0  0  0  0  0  0  0
  -93.8125   32.9677   -7.7348 O   0  0  0  0  0  0  0  0  0  0  0  0
  -93.0310   34.9843   -5.3286 H   0  0  0  0  0  0  0  0  0  0  0  0
  -95.0577   34.9210   -7.1490 C   0  0  0  0  0  0  0  0  0  0  0  0
  -95.1649   35.8537   -6.0577 N   0  0  0  0  0  0  0  0  0  0  0  0
  -95.8636   35.7057   -4.8623 C   0  0  0  0  0  0  0  0  0  0  0  0
  -96.4955   34.5969   -4.7041 O   0  0  0  0  0  0  0  0  0  0  0  0
  -94.6341   36.7679   -6.2054 H   0  0  0  0  0  0  0  0  0  0  0  0
  -95.9432   36.6842   -3.7819 C   0  0  0  0  0  0  0  0  0  0  0  0
  -97.3135   36.8021   -3.1726 C   0  0  0  0  0  0  0  0  0  0  0  0
  -97.4622   38.1307   -2.7587 O   0  0  0  0  0  0  0  0  0  0  0  0
  -98.2752   38.4817   -3.2422 H   0  0  0  0  0  0  0  0  0  0  0  0
  -94.9259   36.4587   -2.6952 C   0  0  0  0  0  0  0  0  0  0  0  0
  -95.5175   36.3557   -1.4388 O   0  0  0  0  0  0  0  0  0  0  0  0
  -95.4389   35.4243   -1.1411 H   0  0  0  0  0  0  0  0  0  0  0  0
  -94.7281   35.6722   -8.4536 C   0  0  0  0  0  0  0  0  0  0  0  0
  -93.3418   35.7610   -8.6075 O   0  0  0  0  0  0  0  0  0  0  0  0
  -93.1631   36.4839   -9.2487 H   0  0  0  0  0  0  0  0  0  0  0  0
  -90.9112   33.9964   -4.8234 C   0  0  0  0  0  0  0  0  0  0  0  0
  -90.7029   33.3448   -3.6156 O   0  0  0  0  0  0  0  0  0  0  0  0
  -90.9700   32.3927   -3.6795 H   0  0  0  0  0  0  0  0  0  0  0  0
  -92.8822   28.4668   -5.9769 C   0  0  0  0  0  0  0  0  0  0  0  0
  -93.8694   27.5903   -5.5752 O   0  0  0  0  0  0  0  0  0  0  0  0
  -94.7051   28.1336   -5.4840 H   0  0  0  0  0  0  0  0  0  0  0  0
  -90.8848   29.7233   -0.4815 C   0  0  0  0  0  0  0  0  0  0  0  0
  -92.1343   29.0959   -0.3237 O   0  0  0  0  0  0  0  0  0  0  0  0
  -92.0295   28.1228   -0.1076 H   0  0  0  0  0  0  0  0  0  0  0  0
 26 27  1  0  0  0
 27 28  2  0  0  0
 27 24  1  0  0  0
 24 23  1  0  0  0
 23 22  1  0  0  0
 22 21  1  0  0  0
 21 16  1  0  0  0
 16 12  1  0  0  0
 12 13  1  0  0  0
 13 14  2  0  0  0
 13 11  1  0  0  0
 11 32  1  0  0  0
 32 33  1  0  0  0
 11  7  1  0  0  0
  7  8  1  0  0  0
  8  9  2  0  0  0
  8  6  1  0  0  0
  6 35  1  0  0  0
 35 36  1  0  0  0
  6  2  1  0  0  0
  2  3  1  0  0  0
  3  4  2  0  0  0
  3  1  1  0  0  0
  1 73  1  0  0  0
 73 74  1  0  0  0
  1 38  1  0  0  0
 38 39  1  0  0  0
 39 40  2  0  0  0
 39 42  1  0  0  0
 42 70  1  0  0  0
 70 71  1  0  0  0
 42 43  1  0  0  0
 43 44  1  0  0  0
 44 45  2  0  0  0
 44 47  1  0  0  0
 47 67  1  0  0  0
 67 68  1  0  0  0
 47 48  1  0  0  0
 48 49  1  0  0  0
 49 50  2  0  0  0
 49 52  1  0  0  0
 52 64  1  0  0  0
 64 65  1  0  0  0
 52 53  1  0  0  0
 53 54  1  0  0  0
 54 55  2  0  0  0
 54 57  1  0  0  0
 57 61  1  0  0  0
 61 62  1  0  0  0
 57 58  1  0  0  0
 58 59  1  0  0  0
 16 17  1  0  0  0
 17 18  1  0  0  0
 17 19  2  0  0  0
 26 29  1  0  0  0
 26 30  1  0  0  0
 28 31  1  0  0  0
 24 25  1  0  0  0
 12 15  1  0  0  0
 33 34  1  0  0  0
  7 10  1  0  0  0
 36 37  1  0  0  0
  2  5  1  0  0  0
 74 75  1  0  0  0
 38 41  1  0  0  0
 71 72  1  0  0  0
 43 46  1  0  0  0
 68 69  1  0  0  0
 48 51  1  0  0  0
 65 66  1  0  0  0
 53 56  1  0  0  0
 62 63  1  0  0  0
 59 60  1  0  0  0
 18 20  1  0  0  0
M  END
> <minimizedAffinity>
-6.43407

> <CNNscore>
0.0640184060

> <CNNaffinity>
5.2176465988

> <CNN_VS>
0.3340254128

> <CNNaffinity_variance>
1.2044855356

$$$$
[H]N=C(N([H])[H])N([H])C([H])([H])C([H])([H])C([H])([H])[C@@]([H])(C(=O)O[H])N([H])C(=O)[C@]([H])(N([H])C(=O)[C@@]([H])(N([H])C(=O)[C@]([H])(N([H])C(=O)[C@@]([H])(N([H])C(=O)[C@@]([H])(N([H])C(=O)[C@@]([H])(N([H])C(=O)C([H])(C([H])([H])O[H])C([H])([H])O[H])C([H])([H])O[H])C([H])([H])O[H])C([H])([H])O[H])C([H])([H])O[H])C([H])([H])O[H])C([H])([H])O[H]


 75 74  0  0  0  0  0  0  0  0999 V2000
  -85.8647   32.4208   -0.7263 C   0  0  0  0  0  0  0  0  0  0  0  0
  -85.8047   30.4324    0.8047 N   0  0  0  0  0  0  0  0  0  0  0  0
  -85.1442   31.3060   -0.0671 C   0  0  0  0  0  0  0  0  0  0  0  0
  -83.9235   31.1581   -0.3067 O   0  0  0  0  0  0  0  0  0  0  0  0
  -86.8169   30.5652    1.0143 H   0  0  0  0  0  0  0  0  0  0  0  0
  -85.1087   29.3432    1.4234 C   0  0  0  0  0  0  0  0  0  0  0  0
  -87.0624   27.9205    0.6763 N   0  0  0  0  0  0  0  0  0  0  0  0
  -85.8133   28.0539    1.3016 C   0  0  0  0  0  0  0  0  0  0  0  0
  -85.2173   27.0416    1.8004 O   0  0  0  0  0  0  0  0  0  0  0  0
  -87.5291   28.7812    0.2943 H   0  0  0  0  0  0  0  0  0  0  0  0
  -87.7386   26.6307    0.5335 C   0  0  0  0  0  0  0  0  0  0  0  0
  -88.9782   26.3845    2.7491 N   0  0  0  0  0  0  0  0  0  0  0  0
  -88.9471   26.6016    1.3650 C   0  0  0  0  0  0  0  0  0  0  0  0
  -90.0788   26.7917    0.7809 O   0  0  0  0  0  0  0  0  0  0  0  0
  -88.1480   26.1942    3.3492 H   0  0  0  0  0  0  0  0  0  0  0  0
  -90.2378   26.4173    3.5106 C   0  0  0  0  0  0  0  0  0  0  0  0
  -90.5619   27.7986    3.8582 C   0  0  0  0  0  0  0  0  0  0  0  0
  -91.3927   28.5413    3.0423 O   0  0  0  0  0  0  0  0  0  0  0  0
  -90.0969   28.3526    4.9082 O   0  0  0  0  0  0  0  0  0  0  0  0
  -91.6918   29.4900    3.2332 H   0  0  0  0  0  0  0  0  0  0  0  0
  -90.1830   25.4669    4.6892 C   0  0  0  0  0  0  0  0  0  0  0  0
  -88.9139   24.7030    4.7842 C   0  0  0  0  0  0  0  0  0  0  0  0
  -88.2991   24.5723    6.1310 C   0  0  0  0  0  0  0  0  0  0  0  0
  -87.3465   23.5552    6.3388 N   0  0  0  0  0  0  0  0  0  0  0  0
  -87.0888   22.9273    5.5139 H   0  0  0  0  0  0  0  0  0  0  0  0
  -85.3158   23.5925    7.7977 N   0  0  0  0  0  0  0  0  0  0  0  0
  -86.6691   23.2650    7.5342 C   0  0  0  0  0  0  0  0  0  0  0  0
  -87.3249   22.6582    8.4833 N   0  0  0  0  0  0  0  0  0  0  0  0
  -84.6095   22.8764    8.0074 H   0  0  0  0  0  0  0  0  0  0  0  0
  -85.0479   24.5969    7.7789 H   0  0  0  0  0  0  0  0  0  0  0  0
  -88.3165   22.3886    8.3631 H   0  0  0  0  0  0  0  0  0  0  0  0
  -87.8548   26.2305   -0.8867 C   0  0  0  0  0  0  0  0  0  0  0  0
  -87.8744   27.2765   -1.7758 O   0  0  0  0  0  0  0  0  0  0  0  0
  -88.6255   27.8632   -1.5318 H   0  0  0  0  0  0  0  0  0  0  0  0
  -85.0981   29.6098    2.9623 C   0  0  0  0  0  0  0  0  0  0  0  0
  -86.2977   29.2469    3.5238 O   0  0  0  0  0  0  0  0  0  0  0  0
  -86.2531   29.0719    4.4900 H   0  0  0  0  0  0  0  0  0  0  0  0
  -86.5708   31.9040   -1.8826 N   0  0  0  0  0  0  0  0  0  0  0  0
  -87.7115   31.0766   -1.8428 C   0  0  0  0  0  0  0  0  0  0  0  0
  -88.1297   30.7565   -0.6736 O   0  0  0  0  0  0  0  0  0  0  0  0
  -86.1766   32.1782   -2.8029 H   0  0  0  0  0  0  0  0  0  0  0  0
  -88.4500   30.5594   -2.9972 C   0  0  0  0  0  0  0  0  0  0  0  0
  -89.8840   30.6446   -2.7131 N   0  0  0  0  0  0  0  0  0  0  0  0
  -90.7048   29.4948   -2.8181 C   0  0  0  0  0  0  0  0  0  0  0  0
  -90.2022   28.4097   -3.1553 O   0  0  0  0  0  0  0  0  0  0  0  0
  -90.2744   31.5417   -2.4389 H   0  0  0  0  0  0  0  0  0  0  0  0
  -92.1480   29.5797   -2.5346 C   0  0  0  0  0  0  0  0  0  0  0  0
  -92.7582   28.5004   -3.3293 N   0  0  0  0  0  0  0  0  0  0  0  0
  -93.7794   28.7191   -4.2402 C   0  0  0  0  0  0  0  0  0  0  0  0
  -94.2215   29.9104   -4.3896 O   0  0  0  0  0  0  0  0  0  0  0  0
  -92.3770   27.5465   -3.1743 H   0  0  0  0  0  0  0  0  0  0  0  0
  -94.3630   27.6153   -5.0389 C   0  0  0  0  0  0  0  0  0  0  0  0
  -95.0954   28.1062   -6.1768 N   0  0  0  0  0  0  0  0  0  0  0  0
  -96.2409   27.5717   -6.7611 C   0  0  0  0  0  0  0  0  0  0  0  0
  -96.7120   26.5041   -6.2208 O   0  0  0  0  0  0  0  0  0  0  0  0
  -94.6911   28.9930   -6.6122 H   0  0  0  0  0  0  0  0  0  0  0  0
  -96.9499   28.1075   -7.9192 C   0  0  0  0  0  0  0  0  0  0  0  0
  -98.4137   28.3513   -7.6726 C   0  0  0  0  0  0  0  0  0  0  0  0
  -99.0985   27.8985   -8.8059 O   0  0  0  0  0  0  0  0  0  0  0  0
  -99.7474   27.1998   -8.4763 H   0  0  0  0  0  0  0  0  0  0  0  0
  -96.3192   29.3531   -8.4824 C   0  0  0  0  0  0  0  0  0  0  0  0
  -95.0664   29.1004   -9.0356 O   0  0  0  0  0  0  0  0  0  0  0  0
  -95.1405   29.1899  -10.0096 H   0  0  0  0  0  0  0  0  0  0  0  0
  -93.1473   26.7935   -5.5096 C   0  0  0  0  0  0  0  0  0  0  0  0
  -92.8137   25.8478   -4.5359 O   0  0  0  0  0  0  0  0  0  0  0  0
  -91.8885   25.5640   -4.7069 H   0  0  0  0  0  0  0  0  0  0  0  0
  -92.4601   29.2178   -1.0906 C   0  0  0  0  0  0  0  0  0  0  0  0
  -92.0457   27.9379   -0.7486 O   0  0  0  0  0  0  0  0  0  0  0  0
  -91.3831   27.5971   -1.4019 H   0  0  0  0  0  0  0  0  0  0  0  0
  -88.1438   31.5087   -4.1620 C   0  0  0  0  0  0  0  0  0  0  0  0
  -88.5179   30.8795   -5.3317 O   0  0  0  0  0  0  0  0  0  0  0  0
  -89.4837   30.6401   -5.2235 H   0  0  0  0  0  0  0  0  0  0  0  0
  -85.0264   33.6192   -1.0036 C   0  0  0  0  0  0  0  0  0  0  0  0
  -84.1118   33.7722    0.0545 O   0  0  0  0  0  0  0  0  0  0  0  0
  -83.3123   33.1797   -0.0654 H   0  0  0  0  0  0  0  0  0  0  0  0
 26 27  1  0  0  0
 27 28  2  0  0  0
 27 24  1  0  0  0
 24 23  1  0  0  0
 23 22  1  0  0  0
 22 21  1  0  0  0
 21 16  1  0  0  0
 16 12  1  0  0  0
 12 13  1  0  0  0
 13 14  2  0  0  0
 13 11  1  0  0  0
 11 32  1  0  0  0
 32 33  1  0  0  0
 11  7  1  0  0  0
  7  8  1  0  0  0
  8  9  2  0  0  0
  8  6  1  0  0  0
  6 35  1  0  0  0
 35 36  1  0  0  0
  6  2  1  0  0  0
  2  3  1  0  0  0
  3  4  2  0  0  0
  3  1  1  0  0  0
  1 73  1  0  0  0
 73 74  1  0  0  0
  1 38  1  0  0  0
 38 39  1  0  0  0
 39 40  2  0  0  0
 39 42  1  0  0  0
 42 70  1  0  0  0
 70 71  1  0  0  0
 42 43  1  0  0  0
 43 44  1  0  0  0
 44 45  2  0  0  0
 44 47  1  0  0  0
 47 67  1  0  0  0
 67 68  1  0  0  0
 47 48  1  0  0  0
 48 49  1  0  0  0
 49 50  2  0  0  0
 49 52  1  0  0  0
 52 64  1  0  0  0
 64 65  1  0  0  0
 52 53  1  0  0  0
 53 54  1  0  0  0
 54 55  2  0  0  0
 54 57  1  0  0  0
 57 61  1  0  0  0
 61 62  1  0  0  0
 57 58  1  0  0  0
 58 59  1  0  0  0
 16 17  1  0  0  0
 17 18  1  0  0  0
 17 19  2  0  0  0
 26 29  1  0  0  0
 26 30  1  0  0  0
 28 31  1  0  0  0
 24 25  1  0  0  0
 12 15  1  0  0  0
 33 34  1  0  0  0
  7 10  1  0  0  0
 36 37  1  0  0  0
  2  5  1  0  0  0
 74 75  1  0  0  0
 38 41  1  0  0  0
 71 72  1  0  0  0
 43 46  1  0  0  0
 68 69  1  0  0  0
 48 51  1  0  0  0
 65 66  1  0  0  0
 53 56  1  0  0  0
 62 63  1  0  0  0
 59 60  1  0  0  0
 18 20  1  0  0  0
M  END
> <minimizedAffinity>
-6.45533

> <CNNscore>
0.0605917275

> <CNNaffinity>
5.2661523819

> <CNN_VS>
0.3190852702

> <CNNaffinity_variance>
0.9016119242

$$$$
[H]N=C(N([H])[H])N([H])C([H])([H])C([H])([H])C([H])([H])[C@@]([H])(C(=O)O[H])N([H])C(=O)[C@]([H])(N([H])C(=O)[C@@]([H])(N([H])C(=O)[C@]([H])(N([H])C(=O)[C@@]([H])(N([H])C(=O)[C@@]([H])(N([H])C(=O)[C@@]([H])(N([H])C(=O)C([H])(C([H])([H])O[H])C([H])([H])O[H])C([H])([H])O[H])C([H])([H])O[H])C([H])([H])O[H])C([H])([H])O[H])C([H])([H])O[H])C([H])([H])O[H]


 75 74  0  0  0  0  0  0  0  0999 V2000
  -89.9187   30.1333   -2.5647 C   0  0  0  0  0  0  0  0  0  0  0  0
  -88.3088   31.9902   -2.0537 N   0  0  0  0  0  0  0  0  0  0  0  0
  -88.7670   30.9940   -2.9239 C   0  0  0  0  0  0  0  0  0  0  0  0
  -88.2060   30.8119   -4.0290 O   0  0  0  0  0  0  0  0  0  0  0  0
  -88.7853   32.1502   -1.1408 H   0  0  0  0  0  0  0  0  0  0  0  0
  -87.1814   32.8060   -2.3962 C   0  0  0  0  0  0  0  0  0  0  0  0
  -85.5871   31.8843   -0.6620 N   0  0  0  0  0  0  0  0  0  0  0  0
  -86.2189   32.9677   -1.2913 C   0  0  0  0  0  0  0  0  0  0  0  0
  -85.9800   34.1679   -0.9290 O   0  0  0  0  0  0  0  0  0  0  0  0
  -85.8246   30.9103   -0.9771 H   0  0  0  0  0  0  0  0  0  0  0  0
  -84.6098   32.0579    0.4132 C   0  0  0  0  0  0  0  0  0  0  0  0
  -84.7406   29.6129    1.1280 N   0  0  0  0  0  0  0  0  0  0  0  0
  -84.7572   30.9866    1.4047 C   0  0  0  0  0  0  0  0  0  0  0  0
  -84.9145   31.3296    2.6359 O   0  0  0  0  0  0  0  0  0  0  0  0
  -84.6454   29.1888    0.1810 H   0  0  0  0  0  0  0  0  0  0  0  0
  -84.8511   28.6057    2.1962 C   0  0  0  0  0  0  0  0  0  0  0  0
  -83.5220   28.0980    2.5272 C   0  0  0  0  0  0  0  0  0  0  0  0
  -82.3991   28.8336    2.2025 O   0  0  0  0  0  0  0  0  0  0  0  0
  -83.3593   26.9794    3.1172 O   0  0  0  0  0  0  0  0  0  0  0  0
  -81.4486   28.5669    2.4297 H   0  0  0  0  0  0  0  0  0  0  0  0
  -85.8611   27.5372    1.8308 C   0  0  0  0  0  0  0  0  0  0  0  0
  -87.0214   28.0486    1.0591 C   0  0  0  0  0  0  0  0  0  0  0  0
  -87.2933   27.4156   -0.2578 C   0  0  0  0  0  0  0  0  0  0  0  0
  -88.6032   26.9764   -0.5344 N   0  0  0  0  0  0  0  0  0  0  0  0
  -89.3903   27.2920    0.1152 H   0  0  0  0  0  0  0  0  0  0  0  0
  -88.8973   24.7434   -1.6211 N   0  0  0  0  0  0  0  0  0  0  0  0
  -89.0109   26.1558   -1.5986 C   0  0  0  0  0  0  0  0  0  0  0  0
  -89.5433   26.7216   -2.6452 N   0  0  0  0  0  0  0  0  0  0  0  0
  -88.3444   24.2493   -2.3322 H   0  0  0  0  0  0  0  0  0  0  0  0
  -89.4016   24.2051   -0.8883 H   0  0  0  0  0  0  0  0  0  0  0  0
  -89.6591   27.7483   -2.6998 H   0  0  0  0  0  0  0  0  0  0  0  0
  -83.2579   32.3395   -0.1194 C   0  0  0  0  0  0  0  0  0  0  0  0
  -83.0215   33.6602   -0.4103 O   0  0  0  0  0  0  0  0  0  0  0  0
  -83.7027   33.9510   -1.0580 H   0  0  0  0  0  0  0  0  0  0  0  0
  -87.7100   34.2560   -2.6356 C   0  0  0  0  0  0  0  0  0  0  0  0
  -86.8306   34.9686   -3.4132 O   0  0  0  0  0  0  0  0  0  0  0  0
  -87.2322   35.7402   -3.8711 H   0  0  0  0  0  0  0  0  0  0  0  0
  -91.0409   30.4713   -3.4186 N   0  0  0  0  0  0  0  0  0  0  0  0
  -91.8992   29.5463   -4.0470 C   0  0  0  0  0  0  0  0  0  0  0  0
  -91.6336   28.3085   -3.8423 O   0  0  0  0  0  0  0  0  0  0  0  0
  -91.1969   31.4869   -3.5657 H   0  0  0  0  0  0  0  0  0  0  0  0
  -93.0481   29.8663   -4.8973 C   0  0  0  0  0  0  0  0  0  0  0  0
  -92.7390   31.0717   -5.6692 N   0  0  0  0  0  0  0  0  0  0  0  0
  -93.7813   31.9035   -6.1469 C   0  0  0  0  0  0  0  0  0  0  0  0
  -94.9637   31.6048   -5.9095 O   0  0  0  0  0  0  0  0  0  0  0  0
  -91.7654   31.2975   -5.8520 H   0  0  0  0  0  0  0  0  0  0  0  0
  -93.4717   33.1153   -6.9255 C   0  0  0  0  0  0  0  0  0  0  0  0
  -92.0134   33.2836   -6.8078 N   0  0  0  0  0  0  0  0  0  0  0  0
  -91.4025   34.5236   -6.7098 C   0  0  0  0  0  0  0  0  0  0  0  0
  -92.1366   35.5711   -6.7348 O   0  0  0  0  0  0  0  0  0  0  0  0
  -91.4514   32.4099   -6.7984 H   0  0  0  0  0  0  0  0  0  0  0  0
  -89.9329   34.6616   -6.5752 C   0  0  0  0  0  0  0  0  0  0  0  0
  -89.5401   36.0304   -6.3650 N   0  0  0  0  0  0  0  0  0  0  0  0
  -88.2573   36.5418   -6.1860 C   0  0  0  0  0  0  0  0  0  0  0  0
  -87.2946   35.6896   -6.2116 O   0  0  0  0  0  0  0  0  0  0  0  0
  -90.3513   36.7240   -6.3472 H   0  0  0  0  0  0  0  0  0  0  0  0
  -87.9082   37.9434   -5.9747 C   0  0  0  0  0  0  0  0  0  0  0  0
  -87.8565   38.3418   -4.5250 C   0  0  0  0  0  0  0  0  0  0  0  0
  -88.5610   37.3671   -3.8094 O   0  0  0  0  0  0  0  0  0  0  0  0
  -87.9094   36.9932   -3.1361 H   0  0  0  0  0  0  0  0  0  0  0  0
  -86.6282   38.3496   -6.6552 C   0  0  0  0  0  0  0  0  0  0  0  0
  -86.5252   37.8148   -7.9369 O   0  0  0  0  0  0  0  0  0  0  0  0
  -86.6213   38.5484   -8.5810 H   0  0  0  0  0  0  0  0  0  0  0  0
  -89.5764   33.8152   -5.3377 C   0  0  0  0  0  0  0  0  0  0  0  0
  -89.6604   32.4571   -5.6570 O   0  0  0  0  0  0  0  0  0  0  0  0
  -89.7362   31.9609   -4.8122 H   0  0  0  0  0  0  0  0  0  0  0  0
  -93.7162   32.9068   -8.4122 C   0  0  0  0  0  0  0  0  0  0  0  0
  -94.2822   31.6731   -8.7028 O   0  0  0  0  0  0  0  0  0  0  0  0
  -94.6799   31.2690   -7.8900 H   0  0  0  0  0  0  0  0  0  0  0  0
  -93.1899   28.6999   -5.8827 C   0  0  0  0  0  0  0  0  0  0  0  0
  -92.0025   28.5836   -6.5760 O   0  0  0  0  0  0  0  0  0  0  0  0
  -91.2862   28.4701   -5.8861 H   0  0  0  0  0  0  0  0  0  0  0  0
  -90.2393   30.1058   -1.1113 C   0  0  0  0  0  0  0  0  0  0  0  0
  -90.9352   28.9145   -0.8355 O   0  0  0  0  0  0  0  0  0  0  0  0
  -90.3061   28.1435   -0.7159 H   0  0  0  0  0  0  0  0  0  0  0  0
 26 27  1  0  0  0
 27 28  2  0  0  0
 27 24  1  0  0  0
 24 23  1  0  0  0
 23 22  1  0  0  0
 22 21  1  0  0  0
 21 16  1  0  0  0
 16 12  1  0  0  0
 12 13  1  0  0  0
 13 14  2  0  0  0
 13 11  1  0  0  0
 11 32  1  0  0  0
 32 33  1  0  0  0
 11  7  1  0  0  0
  7  8  1  0  0  0
  8  9  2  0  0  0
  8  6  1  0  0  0
  6 35  1  0  0  0
 35 36  1  0  0  0
  6  2  1  0  0  0
  2  3  1  0  0  0
  3  4  2  0  0  0
  3  1  1  0  0  0
  1 73  1  0  0  0
 73 74  1  0  0  0
  1 38  1  0  0  0
 38 39  1  0  0  0
 39 40  2  0  0  0
 39 42  1  0  0  0
 42 70  1  0  0  0
 70 71  1  0  0  0
 42 43  1  0  0  0
 43 44  1  0  0  0
 44 45  2  0  0  0
 44 47  1  0  0  0
 47 67  1  0  0  0
 67 68  1  0  0  0
 47 48  1  0  0  0
 48 49  1  0  0  0
 49 50  2  0  0  0
 49 52  1  0  0  0
 52 64  1  0  0  0
 64 65  1  0  0  0
 52 53  1  0  0  0
 53 54  1  0  0  0
 54 55  2  0  0  0
 54 57  1  0  0  0
 57 61  1  0  0  0
 61 62  1  0  0  0
 57 58  1  0  0  0
 58 59  1  0  0  0
 16 17  1  0  0  0
 17 18  1  0  0  0
 17 19  2  0  0  0
 26 29  1  0  0  0
 26 30  1  0  0  0
 28 31  1  0  0  0
 24 25  1  0  0  0
 12 15  1  0  0  0
 33 34  1  0  0  0
  7 10  1  0  0  0
 36 37  1  0  0  0
  2  5  1  0  0  0
 74 75  1  0  0  0
 38 41  1  0  0  0
 71 72  1  0  0  0
 43 46  1  0  0  0
 68 69  1  0  0  0
 48 51  1  0  0  0
 65 66  1  0  0  0
 53 56  1  0  0  0
 62 63  1  0  0  0
 59 60  1  0  0  0
 18 20  1  0  0  0
M  END
> <minimizedAffinity>
-7.34643

> <CNNscore>
0.0597358458

> <CNNaffinity>
5.4650273323

> <CNN_VS>
0.3264580369

> <CNNaffinity_variance>
1.1438732147

$$$$
[H]N=C(N([H])[H])N([H])C([H])([H])C([H])([H])C([H])([H])[C@@]([H])(C(=O)O[H])N([H])C(=O)[C@]([H])(N([H])C(=O)[C@@]([H])(N([H])C(=O)[C@]([H])(N([H])C(=O)[C@@]([H])(N([H])C(=O)[C@@]([H])(N([H])C(=O)[C@@]([H])(N([H])C(=O)C([H])(C([H])([H])O[H])C([H])([H])O[H])C([H])([H])O[H])C([H])([H])O[H])C([H])([H])O[H])C([H])([H])O[H])C([H])([H])O[H])C([H])([H])O[H]


 75 74  0  0  0  0  0  0  0  0999 V2000
  -89.4785   26.5334    0.9694 C   0  0  0  0  0  0  0  0  0  0  0  0
  -89.7426   24.0660    1.3484 N   0  0  0  0  0  0  0  0  0  0  0  0
  -90.1113   25.2290    0.6620 C   0  0  0  0  0  0  0  0  0  0  0  0
  -90.9897   25.1859   -0.2300 O   0  0  0  0  0  0  0  0  0  0  0  0
  -89.0015   24.1006    2.0803 H   0  0  0  0  0  0  0  0  0  0  0  0
  -90.3723   22.8109    1.0624 C   0  0  0  0  0  0  0  0  0  0  0  0
  -89.3734   20.9928    2.5101 N   0  0  0  0  0  0  0  0  0  0  0  0
  -90.4064   21.8966    2.2184 C   0  0  0  0  0  0  0  0  0  0  0  0
  -91.4426   21.9709    2.9598 O   0  0  0  0  0  0  0  0  0  0  0  0
  -88.5451   20.9490    1.8648 H   0  0  0  0  0  0  0  0  0  0  0  0
  -89.4036   20.1114    3.6778 C   0  0  0  0  0  0  0  0  0  0  0  0
  -90.6864   18.5025    2.1706 N   0  0  0  0  0  0  0  0  0  0  0  0
  -89.8970   18.7842    3.2936 C   0  0  0  0  0  0  0  0  0  0  0  0
  -89.5814   17.7885    4.0468 O   0  0  0  0  0  0  0  0  0  0  0  0
  -91.0370   19.2063    1.4870 H   0  0  0  0  0  0  0  0  0  0  0  0
  -91.0990   17.1288    1.8381 C   0  0  0  0  0  0  0  0  0  0  0  0
  -91.1502   16.9728    0.3865 C   0  0  0  0  0  0  0  0  0  0  0  0
  -91.0910   18.0837   -0.4318 O   0  0  0  0  0  0  0  0  0  0  0  0
  -91.2484   15.8257   -0.1615 O   0  0  0  0  0  0  0  0  0  0  0  0
  -91.0848   18.0552   -1.4444 H   0  0  0  0  0  0  0  0  0  0  0  0
  -92.3800   16.7590    2.5574 C   0  0  0  0  0  0  0  0  0  0  0  0
  -93.5986   17.3562    1.9559 C   0  0  0  0  0  0  0  0  0  0  0  0
  -93.6455   18.8377    1.8461 C   0  0  0  0  0  0  0  0  0  0  0  0
  -93.8678   19.4106    0.5781 N   0  0  0  0  0  0  0  0  0  0  0  0
  -94.3847   18.8309   -0.1553 H   0  0  0  0  0  0  0  0  0  0  0  0
  -93.8369   21.9003    0.8093 N   0  0  0  0  0  0  0  0  0  0  0  0
  -93.4870   20.6938    0.1536 C   0  0  0  0  0  0  0  0  0  0  0  0
  -92.7491   20.7962   -0.9161 N   0  0  0  0  0  0  0  0  0  0  0  0
  -94.3807   22.6384    0.3455 H   0  0  0  0  0  0  0  0  0  0  0  0
  -93.5195   22.0278    1.7912 H   0  0  0  0  0  0  0  0  0  0  0  0
  -92.4540   19.9586   -1.4468 H   0  0  0  0  0  0  0  0  0  0  0  0
  -88.1472   20.1944    4.4558 C   0  0  0  0  0  0  0  0  0  0  0  0
  -88.1335   19.4389    5.6021 O   0  0  0  0  0  0  0  0  0  0  0  0
  -88.8911   19.7268    6.1598 H   0  0  0  0  0  0  0  0  0  0  0  0
  -89.4715   22.0612    0.0300 C   0  0  0  0  0  0  0  0  0  0  0  0
  -89.8937   20.7639   -0.1272 O   0  0  0  0  0  0  0  0  0  0  0  0
  -89.6074   20.3469   -0.9700 H   0  0  0  0  0  0  0  0  0  0  0  0
  -89.8885   27.5006   -0.0301 N   0  0  0  0  0  0  0  0  0  0  0  0
  -90.8133   28.5452    0.1724 C   0  0  0  0  0  0  0  0  0  0  0  0
  -91.3320   28.6137    1.3431 O   0  0  0  0  0  0  0  0  0  0  0  0
  -89.4523   27.3853   -0.9650 H   0  0  0  0  0  0  0  0  0  0  0  0
  -91.2269   29.5429   -0.8169 C   0  0  0  0  0  0  0  0  0  0  0  0
  -90.0885   29.8382   -1.6895 N   0  0  0  0  0  0  0  0  0  0  0  0
  -89.4178   31.0824   -1.5959 C   0  0  0  0  0  0  0  0  0  0  0  0
  -89.8014   31.9266   -0.7689 O   0  0  0  0  0  0  0  0  0  0  0  0
  -89.7913   29.1338   -2.3587 H   0  0  0  0  0  0  0  0  0  0  0  0
  -88.2738   31.3815   -2.4746 C   0  0  0  0  0  0  0  0  0  0  0  0
  -87.1043   31.4204   -1.5804 N   0  0  0  0  0  0  0  0  0  0  0  0
  -86.4866   32.6001   -1.1970 C   0  0  0  0  0  0  0  0  0  0  0  0
  -86.9445   33.7058   -1.6494 O   0  0  0  0  0  0  0  0  0  0  0  0
  -86.7579   30.5019   -1.2402 H   0  0  0  0  0  0  0  0  0  0  0  0
  -85.3209   32.6095   -0.2816 C   0  0  0  0  0  0  0  0  0  0  0  0
  -84.8730   31.2773    0.0297 N   0  0  0  0  0  0  0  0  0  0  0  0
  -84.5888   30.7330    1.2795 C   0  0  0  0  0  0  0  0  0  0  0  0
  -84.7450   31.5125    2.2903 O   0  0  0  0  0  0  0  0  0  0  0  0
  -84.7494   30.6439   -0.8206 H   0  0  0  0  0  0  0  0  0  0  0  0
  -84.1350   29.3712    1.5452 C   0  0  0  0  0  0  0  0  0  0  0  0
  -82.6795   29.2800    1.9141 C   0  0  0  0  0  0  0  0  0  0  0  0
  -82.4951   28.0426    2.5413 O   0  0  0  0  0  0  0  0  0  0  0  0
  -81.7963   27.5584    1.9980 H   0  0  0  0  0  0  0  0  0  0  0  0
  -84.9631   28.6564    2.5797 C   0  0  0  0  0  0  0  0  0  0  0  0
  -85.0859   27.2972    2.3027 O   0  0  0  0  0  0  0  0  0  0  0  0
  -84.5651   26.8026    2.9708 H   0  0  0  0  0  0  0  0  0  0  0  0
  -84.2253   33.3658   -1.0578 C   0  0  0  0  0  0  0  0  0  0  0  0
  -83.0960   33.5182   -0.2486 O   0  0  0  0  0  0  0  0  0  0  0  0
  -82.5557   34.2441   -0.6320 H   0  0  0  0  0  0  0  0  0  0  0  0
  -87.9866   30.2367   -3.4340 C   0  0  0  0  0  0  0  0  0  0  0  0
  -87.8338   30.6542   -4.7490 O   0  0  0  0  0  0  0  0  0  0  0  0
  -87.6604   31.6290   -4.7900 H   0  0  0  0  0  0  0  0  0  0  0  0
  -92.3129   28.8759   -1.6698 C   0  0  0  0  0  0  0  0  0  0  0  0
  -92.4626   27.5777   -1.2266 O   0  0  0  0  0  0  0  0  0  0  0  0
  -92.6698   27.6383   -0.2492 H   0  0  0  0  0  0  0  0  0  0  0  0
  -88.0085   26.4685    1.1946 C   0  0  0  0  0  0  0  0  0  0  0  0
  -87.7823   25.9680    2.4899 O   0  0  0  0  0  0  0  0  0  0  0  0
  -87.8339   24.9672    2.5088 H   0  0  0  0  0  0  0  0  0  0  0  0
 26 27  1  0  0  0
 27 28  2  0  0  0
 27 24  1  0  0  0
 24 23  1  0  0  0
 23 22  1  0  0  0
 22 21  1  0  0  0
 21 16  1  0  0  0
 16 12  1  0  0  0
 12 13  1  0  0  0
 13 14  2  0  0  0
 13 11  1  0  0  0
 11 32  1  0  0  0
 32 33  1  0  0  0
 11  7  1  0  0  0
  7  8  1  0  0  0
  8  9  2  0  0  0
  8  6  1  0  0  0
  6 35  1  0  0  0
 35 36  1  0  0  0
  6  2  1  0  0  0
  2  3  1  0  0  0
  3  4  2  0  0  0
  3  1  1  0  0  0
  1 73  1  0  0  0
 73 74  1  0  0  0
  1 38  1  0  0  0
 38 39  1  0  0  0
 39 40  2  0  0  0
 39 42  1  0  0  0
 42 70  1  0  0  0
 70 71  1  0  0  0
 42 43  1  0  0  0
 43 44  1  0  0  0
 44 45  2  0  0  0
 44 47  1  0  0  0
 47 67  1  0  0  0
 67 68  1  0  0  0
 47 48  1  0  0  0
 48 49  1  0  0  0
 49 50  2  0  0  0
 49 52  1  0  0  0
 52 64  1  0  0  0
 64 65  1  0  0  0
 52 53  1  0  0  0
 53 54  1  0  0  0
 54 55  2  0  0  0
 54 57  1  0  0  0
 57 61  1  0  0  0
 61 62  1  0  0  0
 57 58  1  0  0  0
 58 59  1  0  0  0
 16 17  1  0  0  0
 17 18  1  0  0  0
 17 19  2  0  0  0
 26 29  1  0  0  0
 26 30  1  0  0  0
 28 31  1  0  0  0
 24 25  1  0  0  0
 12 15  1  0  0  0
 33 34  1  0  0  0
  7 10  1  0  0  0
 36 37  1  0  0  0
  2  5  1  0  0  0
 74 75  1  0  0  0
 38 41  1  0  0  0
 71 72  1  0  0  0
 43 46  1  0  0  0
 68 69  1  0  0  0
 48 51  1  0  0  0
 65 66  1  0  0  0
 53 56  1  0  0  0
 62 63  1  0  0  0
 59 60  1  0  0  0
 18 20  1  0  0  0
M  END
> <minimizedAffinity>
-7.98929

> <CNNscore>
0.0413974896

> <CNNaffinity>
5.1078386307

> <CNN_VS>
0.2114516944

> <CNNaffinity_variance>
1.0912492275

$$$$
[H]c1nc([H])c(-c2c([H])c3nc(N([H])C(=O)N([H])C([H])([H])C([H])([H])[H])sc3n(C([H])([H])[H])c2=O)c([H])c1[H]


 25 27  0  0  0  0  0  0  0  0999 V2000
  -85.8564   32.4745   -0.6692 C   0  0  0  0  0  0  0  0  0  0  0  0
  -86.7626   31.5530   -0.5501 N   0  0  0  0  0  0  0  0  0  0  0  0
  -86.5132   30.4602    0.1127 C   0  0  0  0  0  0  0  0  0  0  0  0
  -87.3690   29.3907    0.3282 C   0  0  0  0  0  0  0  0  0  0  0  0
  -87.0088   28.2904    1.0383 C   0  0  0  0  0  0  0  0  0  0  0  0
  -85.7402   28.1886    1.5908 C   0  0  0  0  0  0  0  0  0  0  0  0
  -85.3349   27.2098    2.2569 O   0  0  0  0  0  0  0  0  0  0  0  0
  -84.8868   29.2346    1.3864 N   0  0  0  0  0  0  0  0  0  0  0  0
  -83.5412   29.2393    1.9139 C   0  0  0  0  0  0  0  0  0  0  0  0
  -85.2665   30.3294    0.6713 C   0  0  0  0  0  0  0  0  0  0  0  0
  -84.5340   31.8204    0.1893 S   0  0  0  0  0  0  0  0  0  0  0  0
  -86.7773   34.8964   -3.3564 N   0  0  0  0  0  0  0  0  0  0  0  0
  -86.6172   33.6960   -2.6430 C   0  0  0  0  0  0  0  0  0  0  0  0
  -87.0229   32.5966   -3.1432 O   0  0  0  0  0  0  0  0  0  0  0  0
  -86.0026   33.7067   -1.3633 N   0  0  0  0  0  0  0  0  0  0  0  0
  -86.4481   35.7881   -2.9505 H   0  0  0  0  0  0  0  0  0  0  0  0
  -85.6713   34.6084   -0.9561 H   0  0  0  0  0  0  0  0  0  0  0  0
  -87.3228   36.2432   -5.3263 C   0  0  0  0  0  0  0  0  0  0  0  0
  -87.3976   34.8943   -4.6509 C   0  0  0  0  0  0  0  0  0  0  0  0
  -87.9177   27.1580    1.2596 C   0  0  0  0  0  0  0  0  0  0  0  0
  -88.5598   26.8907    2.4286 C   0  0  0  0  0  0  0  0  0  0  0  0
  -89.4097   25.8060    2.5648 C   0  0  0  0  0  0  0  0  0  0  0  0
  -89.6036   24.9759    1.4706 C   0  0  0  0  0  0  0  0  0  0  0  0
  -88.9760   25.2342    0.3222 N   0  0  0  0  0  0  0  0  0  0  0  0
  -88.1381   26.3103    0.2005 C   0  0  0  0  0  0  0  0  0  0  0  0
 18 19  1  0  0  0
 19 12  1  0  0  0
 12 13  1  0  0  0
 13 14  2  0  0  0
 13 15  1  0  0  0
 15  1  1  0  0  0
  1  2  2  0  0  0
  2  3  1  0  0  0
  3  4  1  0  0  0
  4  5  2  0  0  0
  5 20  1  0  0  0
 20 21  2  0  0  0
 21 22  1  0  0  0
 22 23  2  0  0  0
 23 24  1  0  0  0
 24 25  2  0  0  0
  5  6  1  0  0  0
  6  7  2  0  0  0
  6  8  1  0  0  0
  8  9  1  0  0  0
  8 10  1  0  0  0
 10 11  1  0  0  0
 11  1  1  0  0  0
 10  3  2  0  0  0
 25 20  1  0  0  0
 12 16  1  0  0  0
 15 17  1  0  0  0
M  END
> <minimizedAffinity>
-7.46159

> <CNNscore>
0.5968909264

> <CNNaffinity>
6.5685105324

> <CNN_VS>
3.9206843376

> <CNNaffinity_variance>
0.6101113558

$$$$
[H]c1nc([H])c(-c2c([H])c3nc(N([H])C(=O)N([H])C([H])([H])C([H])([H])[H])sc3n(C([H])([H])[H])c2=O)c([H])c1[H]


 25 27  0  0  0  0  0  0  0  0999 V2000
  -86.8802   27.6705    1.4945 C   0  0  0  0  0  0  0  0  0  0  0  0
  -87.4236   28.4468    0.6075 N   0  0  0  0  0  0  0  0  0  0  0  0
  -86.9193   29.6209    0.3566 C   0  0  0  0  0  0  0  0  0  0  0  0
  -87.3799   30.5594   -0.5543 C   0  0  0  0  0  0  0  0  0  0  0  0
  -86.7777   31.7624   -0.7409 C   0  0  0  0  0  0  0  0  0  0  0  0
  -85.6502   32.1102   -0.0110 C   0  0  0  0  0  0  0  0  0  0  0  0
  -85.0400   33.1967   -0.1260 O   0  0  0  0  0  0  0  0  0  0  0  0
  -85.1856   31.1955    0.8899 N   0  0  0  0  0  0  0  0  0  0  0  0
  -84.0195   31.4483    1.7057 C   0  0  0  0  0  0  0  0  0  0  0  0
  -85.8034   29.9944    1.0627 C   0  0  0  0  0  0  0  0  0  0  0  0
  -85.5609   28.5979    2.0540 S   0  0  0  0  0  0  0  0  0  0  0  0
  -88.9329   24.9935    3.0928 N   0  0  0  0  0  0  0  0  0  0  0  0
  -88.4604   26.2615    2.7129 C   0  0  0  0  0  0  0  0  0  0  0  0
  -89.0438   27.3132    3.1339 O   0  0  0  0  0  0  0  0  0  0  0  0
  -87.3317   26.3726    1.8590 N   0  0  0  0  0  0  0  0  0  0  0  0
  -88.4595   24.1406    2.7512 H   0  0  0  0  0  0  0  0  0  0  0  0
  -86.8559   25.5097    1.5157 H   0  0  0  0  0  0  0  0  0  0  0  0
  -91.0494   23.8246    3.4754 C   0  0  0  0  0  0  0  0  0  0  0  0
  -90.0734   24.8725    3.9559 C   0  0  0  0  0  0  0  0  0  0  0  0
  -87.2725   32.7550   -1.7038 C   0  0  0  0  0  0  0  0  0  0  0  0
  -86.5255   33.3290   -2.6851 C   0  0  0  0  0  0  0  0  0  0  0  0
  -87.0604   34.2555   -3.5642 C   0  0  0  0  0  0  0  0  0  0  0  0
  -88.3973   34.5999   -3.4300 C   0  0  0  0  0  0  0  0  0  0  0  0
  -89.1336   34.0396   -2.4691 N   0  0  0  0  0  0  0  0  0  0  0  0
  -88.5927   33.1244   -1.6061 C   0  0  0  0  0  0  0  0  0  0  0  0
 18 19  1  0  0  0
 19 12  1  0  0  0
 12 13  1  0  0  0
 13 14  2  0  0  0
 13 15  1  0  0  0
 15  1  1  0  0  0
  1  2  2  0  0  0
  2  3  1  0  0  0
  3  4  1  0  0  0
  4  5  2  0  0  0
  5 20  1  0  0  0
 20 21  2  0  0  0
 21 22  1  0  0  0
 22 23  2  0  0  0
 23 24  1  0  0  0
 24 25  2  0  0  0
  5  6  1  0  0  0
  6  7  2  0  0  0
  6  8  1  0  0  0
  8  9  1  0  0  0
  8 10  1  0  0  0
 10 11  1  0  0  0
 11  1  1  0  0  0
 10  3  2  0  0  0
 25 20  1  0  0  0
 12 16  1  0  0  0
 15 17  1  0  0  0
M  END
> <minimizedAffinity>
-8.01354

> <CNNscore>
0.4945442677

> <CNNaffinity>
6.1750192642

> <CNN_VS>
3.0538203716

> <CNNaffinity_variance>
0.1985501498

$$$$
[H]c1nc([H])c(-c2c([H])c3nc(N([H])C(=O)N([H])C([H])([H])C([H])([H])[H])sc3n(C([H])([H])[H])c2=O)c([H])c1[H]


 25 27  0  0  0  0  0  0  0  0999 V2000
  -86.8058   33.6093   -1.6801 C   0  0  0  0  0  0  0  0  0  0  0  0
  -87.4946   32.5535   -1.3716 N   0  0  0  0  0  0  0  0  0  0  0  0
  -86.9429   31.5688   -0.7222 C   0  0  0  0  0  0  0  0  0  0  0  0
  -87.5399   30.3829   -0.3222 C   0  0  0  0  0  0  0  0  0  0  0  0
  -86.8716   29.4134    0.3547 C   0  0  0  0  0  0  0  0  0  0  0  0
  -85.5327   29.5732    0.6819 C   0  0  0  0  0  0  0  0  0  0  0  0
  -84.8503   28.7279    1.3031 O   0  0  0  0  0  0  0  0  0  0  0  0
  -84.9320   30.7363    0.2940 N   0  0  0  0  0  0  0  0  0  0  0  0
  -83.5422   31.0125    0.5793 C   0  0  0  0  0  0  0  0  0  0  0  0
  -85.6189   31.6966   -0.3843 C   0  0  0  0  0  0  0  0  0  0  0  0
  -85.2629   33.2568   -1.0407 S   0  0  0  0  0  0  0  0  0  0  0  0
  -88.0470   35.7245   -4.4943 N   0  0  0  0  0  0  0  0  0  0  0  0
  -87.5687   34.6197   -3.7691 C   0  0  0  0  0  0  0  0  0  0  0  0
  -87.3858   33.5024   -4.3538 O   0  0  0  0  0  0  0  0  0  0  0  0
  -87.2884   34.7470   -2.3832 N   0  0  0  0  0  0  0  0  0  0  0  0
  -88.1953   36.6307   -4.0199 H   0  0  0  0  0  0  0  0  0  0  0  0
  -87.4391   35.6630   -1.9070 H   0  0  0  0  0  0  0  0  0  0  0  0
  -87.4452   36.4867   -6.7413 C   0  0  0  0  0  0  0  0  0  0  0  0
  -88.3328   35.6043   -5.8959 C   0  0  0  0  0  0  0  0  0  0  0  0
  -87.5074   28.1569    0.7721 C   0  0  0  0  0  0  0  0  0  0  0  0
  -87.9605   27.8917    2.0269 C   0  0  0  0  0  0  0  0  0  0  0  0
  -88.5571   26.6844    2.3492 C   0  0  0  0  0  0  0  0  0  0  0  0
  -88.6907   25.7262    1.3553 C   0  0  0  0  0  0  0  0  0  0  0  0
  -88.2478   25.9819    0.1232 N   0  0  0  0  0  0  0  0  0  0  0  0
  -87.6597   27.1800   -0.1827 C   0  0  0  0  0  0  0  0  0  0  0  0
 18 19  1  0  0  0
 19 12  1  0  0  0
 12 13  1  0  0  0
 13 14  2  0  0  0
 13 15  1  0  0  0
 15  1  1  0  0  0
  1  2  2  0  0  0
  2  3  1  0  0  0
  3  4  1  0  0  0
  4  5  2  0  0  0
  5 20  1  0  0  0
 20 21  2  0  0  0
 21 22  1  0  0  0
 22 23  2  0  0  0
 23 24  1  0  0  0
 24 25  2  0  0  0
  5  6  1  0  0  0
  6  7  2  0  0  0
  6  8  1  0  0  0
  8  9  1  0  0  0
  8 10  1  0  0  0
 10 11  1  0  0  0
 11  1  1  0  0  0
 10  3  2  0  0  0
 25 20  1  0  0  0
 12 16  1  0  0  0
 15 17  1  0  0  0
M  END
> <minimizedAffinity>
-6.93896

> <CNNscore>
0.3537066877

> <CNNaffinity>
6.0329198837

> <CNN_VS>
2.1338841915

> <CNNaffinity_variance>
0.2648736238

$$$$
[H]c1nc([H])c(-c2c([H])c3nc(N([H])C(=O)N([H])C([H])([H])C([H])([H])[H])sc3n(C([H])([H])[H])c2=O)c([H])c1[H]


 25 27  0  0  0  0  0  0  0  0999 V2000
  -90.6005   29.3362   -0.3440 C   0  0  0  0  0  0  0  0  0  0  0  0
  -89.3569   29.3509    0.0271 N   0  0  0  0  0  0  0  0  0  0  0  0
  -88.5653   30.3149   -0.3466 C   0  0  0  0  0  0  0  0  0  0  0  0
  -87.2229   30.4721   -0.0364 C   0  0  0  0  0  0  0  0  0  0  0  0
  -86.4822   31.5205   -0.4798 C   0  0  0  0  0  0  0  0  0  0  0  0
  -87.0511   32.5009   -1.2799 C   0  0  0  0  0  0  0  0  0  0  0  0
  -86.4359   33.4951   -1.7262 O   0  0  0  0  0  0  0  0  0  0  0  0
  -88.3723   32.3588   -1.5935 N   0  0  0  0  0  0  0  0  0  0  0  0
  -89.0706   33.3174   -2.4197 C   0  0  0  0  0  0  0  0  0  0  0  0
  -89.0984   31.3002   -1.1393 C   0  0  0  0  0  0  0  0  0  0  0  0
  -90.7320   30.7517   -1.2888 S   0  0  0  0  0  0  0  0  0  0  0  0
  -92.6363   26.2137   -0.5436 N   0  0  0  0  0  0  0  0  0  0  0  0
  -91.6948   27.2115   -0.8490 C   0  0  0  0  0  0  0  0  0  0  0  0
  -90.9584   27.1001   -1.8829 O   0  0  0  0  0  0  0  0  0  0  0  0
  -91.5628   28.3458   -0.0055 N   0  0  0  0  0  0  0  0  0  0  0  0
  -93.2335   26.3042    0.2951 H   0  0  0  0  0  0  0  0  0  0  0  0
  -92.1671   28.4344    0.8404 H   0  0  0  0  0  0  0  0  0  0  0  0
  -91.9368   23.8987   -0.9227 C   0  0  0  0  0  0  0  0  0  0  0  0
  -92.7761   25.0637   -1.3912 C   0  0  0  0  0  0  0  0  0  0  0  0
  -85.0593   31.6798   -0.1521 C   0  0  0  0  0  0  0  0  0  0  0  0
  -84.3011   30.7569    0.4987 C   0  0  0  0  0  0  0  0  0  0  0  0
  -82.9602   30.9714    0.7696 C   0  0  0  0  0  0  0  0  0  0  0  0
  -82.3854   32.1656    0.3605 C   0  0  0  0  0  0  0  0  0  0  0  0
  -83.1251   33.0736   -0.2781 N   0  0  0  0  0  0  0  0  0  0  0  0
  -84.4502   32.8492   -0.5401 C   0  0  0  0  0  0  0  0  0  0  0  0
 18 19  1  0  0  0
 19 12  1  0  0  0
 12 13  1  0  0  0
 13 14  2  0  0  0
 13 15  1  0  0  0
 15  1  1  0  0  0
  1  2  2  0  0  0
  2  3  1  0  0  0
  3  4  1  0  0  0
  4  5  2  0  0  0
  5 20  1  0  0  0
 20 21  2  0  0  0
 21 22  1  0  0  0
 22 23  2  0  0  0
 23 24  1  0  0  0
 24 25  2  0  0  0
  5  6  1  0  0  0
  6  7  2  0  0  0
  6  8  1  0  0  0
  8  9  1  0  0  0
  8 10  1  0  0  0
 10 11  1  0  0  0
 11  1  1  0  0  0
 10  3  2  0  0  0
 25 20  1  0  0  0
 12 16  1  0  0  0
 15 17  1  0  0  0
M  END
> <minimizedAffinity>
-7.14690

> <CNNscore>
0.3089817762

> <CNNaffinity>
5.7272729874

> <CNN_VS>
1.7696229219

> <CNNaffinity_variance>
0.1101650223

$$$$
[H]c1nc([H])c(-c2c([H])c3nc(N([H])C(=O)N([H])C([H])([H])C([H])([H])[H])sc3n(C([H])([H])[H])c2=O)c([H])c1[H]


 25 27  0  0  0  0  0  0  0  0999 V2000
  -89.7775   30.9952   -1.6225 C   0  0  0  0  0  0  0  0  0  0  0  0
  -89.0241   30.1419   -0.9990 N   0  0  0  0  0  0  0  0  0  0  0  0
  -87.8581   30.4978   -0.5414 C   0  0  0  0  0  0  0  0  0  0  0  0
  -86.9433   29.7098    0.1406 C   0  0  0  0  0  0  0  0  0  0  0  0
  -85.7469   30.1808    0.5779 C   0  0  0  0  0  0  0  0  0  0  0  0
  -85.3818   31.5008    0.3556 C   0  0  0  0  0  0  0  0  0  0  0  0
  -84.2998   32.0080    0.7273 O   0  0  0  0  0  0  0  0  0  0  0  0
  -86.2730   32.2883   -0.3150 N   0  0  0  0  0  0  0  0  0  0  0  0
  -86.0007   33.6781   -0.6038 C   0  0  0  0  0  0  0  0  0  0  0  0
  -87.4679   31.7976   -0.7458 C   0  0  0  0  0  0  0  0  0  0  0  0
  -88.8380   32.4201   -1.5985 S   0  0  0  0  0  0  0  0  0  0  0  0
  -92.4202   30.1286   -4.1123 N   0  0  0  0  0  0  0  0  0  0  0  0
  -91.1633   30.3935   -3.5419 C   0  0  0  0  0  0  0  0  0  0  0  0
  -90.1107   30.3292   -4.2572 O   0  0  0  0  0  0  0  0  0  0  0  0
  -91.0644   30.7334   -2.1671 N   0  0  0  0  0  0  0  0  0  0  0  0
  -93.2738   30.1807   -3.5320 H   0  0  0  0  0  0  0  0  0  0  0  0
  -91.9279   30.7853   -1.5837 H   0  0  0  0  0  0  0  0  0  0  0  0
  -92.9311   28.3430   -5.7069 C   0  0  0  0  0  0  0  0  0  0  0  0
  -92.5289   29.7843   -5.5016 C   0  0  0  0  0  0  0  0  0  0  0  0
  -84.7794   29.3406    1.2957 C   0  0  0  0  0  0  0  0  0  0  0  0
  -83.4663   29.6454    1.4778 C   0  0  0  0  0  0  0  0  0  0  0  0
  -82.6103   28.8073    2.1723 C   0  0  0  0  0  0  0  0  0  0  0  0
  -83.1185   27.6262    2.6925 C   0  0  0  0  0  0  0  0  0  0  0  0
  -84.4057   27.3232    2.5164 N   0  0  0  0  0  0  0  0  0  0  0  0
  -85.2418   28.1607    1.8277 C   0  0  0  0  0  0  0  0  0  0  0  0
 18 19  1  0  0  0
 19 12  1  0  0  0
 12 13  1  0  0  0
 13 14  2  0  0  0
 13 15  1  0  0  0
 15  1  1  0  0  0
  1  2  2  0  0  0
  2  3  1  0  0  0
  3  4  1  0  0  0
  4  5  2  0  0  0
  5 20  1  0  0  0
 20 21  2  0  0  0
 21 22  1  0  0  0
 22 23  2  0  0  0
 23 24  1  0  0  0
 24 25  2  0  0  0
  5  6  1  0  0  0
  6  7  2  0  0  0
  6  8  1  0  0  0
  8  9  1  0  0  0
  8 10  1  0  0  0
 10 11  1  0  0  0
 11  1  1  0  0  0
 10  3  2  0  0  0
 25 20  1  0  0  0
 12 16  1  0  0  0
 15 17  1  0  0  0
M  END
> <minimizedAffinity>
-8.47063

> <CNNscore>
0.2397092581

> <CNNaffinity>
5.8640866280

> <CNN_VS>
1.4056758881

> <CNNaffinity_variance>
0.4022749066

$$$$
[H]c1nc([H])c(-c2c([H])c3nc(N([H])C(=O)N([H])C([H])([H])C([H])([H])[H])sc3n(C([H])([H])[H])c2=O)c([H])c1[H]


 25 27  0  0  0  0  0  0  0  0999 V2000
  -89.3561   34.6623   -3.5073 C   0  0  0  0  0  0  0  0  0  0  0  0
  -88.3363   34.6219   -2.7056 N   0  0  0  0  0  0  0  0  0  0  0  0
  -87.9332   33.4903   -2.2026 C   0  0  0  0  0  0  0  0  0  0  0  0
  -86.8689   33.2831   -1.3383 C   0  0  0  0  0  0  0  0  0  0  0  0
  -86.5297   32.0546   -0.8687 C   0  0  0  0  0  0  0  0  0  0  0  0
  -87.2506   30.9299   -1.2431 C   0  0  0  0  0  0  0  0  0  0  0  0
  -87.0001   29.7670   -0.8545 O   0  0  0  0  0  0  0  0  0  0  0  0
  -88.3016   31.1193   -2.0937 N   0  0  0  0  0  0  0  0  0  0  0  0
  -89.1237   30.0220   -2.5513 C   0  0  0  0  0  0  0  0  0  0  0  0
  -88.6263   32.3591   -2.5538 C   0  0  0  0  0  0  0  0  0  0  0  0
  -89.8296   33.0251   -3.6028 S   0  0  0  0  0  0  0  0  0  0  0  0
  -89.9280   37.3436   -6.0406 N   0  0  0  0  0  0  0  0  0  0  0  0
  -89.4188   36.1974   -5.4063 C   0  0  0  0  0  0  0  0  0  0  0  0
  -88.5315   35.4884   -5.9840 O   0  0  0  0  0  0  0  0  0  0  0  0
  -89.8927   35.8276   -4.1201 N   0  0  0  0  0  0  0  0  0  0  0  0
  -90.6477   37.9185   -5.5719 H   0  0  0  0  0  0  0  0  0  0  0  0
  -90.6193   36.4099   -3.6495 H   0  0  0  0  0  0  0  0  0  0  0  0
  -88.4048   38.8088   -7.2756 C   0  0  0  0  0  0  0  0  0  0  0  0
  -89.4542   37.7245   -7.3410 C   0  0  0  0  0  0  0  0  0  0  0  0
  -85.4042   31.8411    0.0505 C   0  0  0  0  0  0  0  0  0  0  0  0
  -85.4851   31.1965    1.2456 C   0  0  0  0  0  0  0  0  0  0  0  0
  -84.3789   31.0253    2.0607 C   0  0  0  0  0  0  0  0  0  0  0  0
  -83.1590   31.5302    1.6352 C   0  0  0  0  0  0  0  0  0  0  0  0
  -83.0750   32.1631    0.4640 N   0  0  0  0  0  0  0  0  0  0  0  0
  -84.1765   32.3256   -0.3330 C   0  0  0  0  0  0  0  0  0  0  0  0
 18 19  1  0  0  0
 19 12  1  0  0  0
 12 13  1  0  0  0
 13 14  2  0  0  0
 13 15  1  0  0  0
 15  1  1  0  0  0
  1  2  2  0  0  0
  2  3  1  0  0  0
  3  4  1  0  0  0
  4  5  2  0  0  0
  5 20  1  0  0  0
 20 21  2  0  0  0
 21 22  1  0  0  0
 22 23  2  0  0  0
 23 24  1  0  0  0
 24 25  2  0  0  0
  5  6  1  0  0  0
  6  7  2  0  0  0
  6  8  1  0  0  0
  8  9  1  0  0  0
  8 10  1  0  0  0
 10 11  1  0  0  0
 11  1  1  0  0  0
 10  3  2  0  0  0
 25 20  1  0  0  0
 12 16  1  0  0  0
 15 17  1  0  0  0
M  END
> <minimizedAffinity>
-6.57082

> <CNNscore>
0.2199324369

> <CNNaffinity>
5.5981130600

> <CNN_VS>
1.2312066555

> <CNNaffinity_variance>
0.1992533654

$$$$
[H]c1nc([H])c(-c2c([H])c3nc(N([H])C(=O)N([H])C([H])([H])C([H])([H])[H])sc3n(C([H])([H])[H])c2=O)c([H])c1[H]


 25 27  0  0  0  0  0  0  0  0999 V2000
  -87.3563   32.9203   -1.4144 C   0  0  0  0  0  0  0  0  0  0  0  0
  -87.0215   34.0237   -2.0102 N   0  0  0  0  0  0  0  0  0  0  0  0
  -87.6119   34.3869   -3.1126 C   0  0  0  0  0  0  0  0  0  0  0  0
  -87.3694   35.5277   -3.8628 C   0  0  0  0  0  0  0  0  0  0  0  0
  -88.0449   35.8155   -5.0053 C   0  0  0  0  0  0  0  0  0  0  0  0
  -89.0288   34.9602   -5.4803 C   0  0  0  0  0  0  0  0  0  0  0  0
  -89.6939   35.1560   -6.5222 O   0  0  0  0  0  0  0  0  0  0  0  0
  -89.2780   33.8328   -4.7517 N   0  0  0  0  0  0  0  0  0  0  0  0
  -90.2796   32.8697   -5.1496 C   0  0  0  0  0  0  0  0  0  0  0  0
  -88.5898   33.5616   -3.6084 C   0  0  0  0  0  0  0  0  0  0  0  0
  -88.5842   32.3001   -2.4250 S   0  0  0  0  0  0  0  0  0  0  0  0
  -84.7863   31.8660    1.0791 N   0  0  0  0  0  0  0  0  0  0  0  0
  -85.3775   32.3606   -0.0961 C   0  0  0  0  0  0  0  0  0  0  0  0
  -84.6461   32.7613   -1.0595 O   0  0  0  0  0  0  0  0  0  0  0  0
  -86.7915   32.4144   -0.2117 N   0  0  0  0  0  0  0  0  0  0  0  0
  -85.3797   31.5410    1.8605 H   0  0  0  0  0  0  0  0  0  0  0  0
  -87.3880   32.0856    0.5787 H   0  0  0  0  0  0  0  0  0  0  0  0
  -82.8493   30.3925    1.3415 C   0  0  0  0  0  0  0  0  0  0  0  0
  -83.3575   31.8081    1.2041 C   0  0  0  0  0  0  0  0  0  0  0  0
  -87.7809   37.0229   -5.7988 C   0  0  0  0  0  0  0  0  0  0  0  0
  -88.3402   38.2421   -5.5727 C   0  0  0  0  0  0  0  0  0  0  0  0
  -88.0401   39.3417   -6.3590 C   0  0  0  0  0  0  0  0  0  0  0  0
  -87.1419   39.1825   -7.4039 C   0  0  0  0  0  0  0  0  0  0  0  0
  -86.5909   37.9887   -7.6294 N   0  0  0  0  0  0  0  0  0  0  0  0
  -86.8960   36.9092   -6.8443 C   0  0  0  0  0  0  0  0  0  0  0  0
 18 19  1  0  0  0
 19 12  1  0  0  0
 12 13  1  0  0  0
 13 14  2  0  0  0
 13 15  1  0  0  0
 15  1  1  0  0  0
  1  2  2  0  0  0
  2  3  1  0  0  0
  3  4  1  0  0  0
  4  5  2  0  0  0
  5 20  1  0  0  0
 20 21  2  0  0  0
 21 22  1  0  0  0
 22 23  2  0  0  0
 23 24  1  0  0  0
 24 25  2  0  0  0
  5  6  1  0  0  0
  6  7  2  0  0  0
  6  8  1  0  0  0
  8  9  1  0  0  0
  8 10  1  0  0  0
 10 11  1  0  0  0
 11  1  1  0  0  0
 10  3  2  0  0  0
 25 20  1  0  0  0
 12 16  1  0  0  0
 15 17  1  0  0  0
M  END
> <minimizedAffinity>
-6.14493

> <CNNscore>
0.2030596435

> <CNNaffinity>
5.3958921432

> <CNN_VS>
1.0956879854

> <CNNaffinity_variance>
0.0766408071

$$$$
[H]c1nc([H])c(-c2c([H])c3nc(N([H])C(=O)N([H])C([H])([H])C([H])([H])[H])sc3n(C([H])([H])[H])c2=O)c([H])c1[H]


 25 27  0  0  0  0  0  0  0  0999 V2000
  -90.8923   28.6606   -0.3878 C   0  0  0  0  0  0  0  0  0  0  0  0
  -89.9625   29.5370   -0.6156 N   0  0  0  0  0  0  0  0  0  0  0  0
  -88.7721   29.3869   -0.1095 C   0  0  0  0  0  0  0  0  0  0  0  0
  -87.6799   30.2282   -0.2590 C   0  0  0  0  0  0  0  0  0  0  0  0
  -86.4743   29.9792    0.3146 C   0  0  0  0  0  0  0  0  0  0  0  0
  -86.2807   28.8463    1.0918 C   0  0  0  0  0  0  0  0  0  0  0  0
  -85.2019   28.5479    1.6515 O   0  0  0  0  0  0  0  0  0  0  0  0
  -87.3478   28.0090    1.2478 N   0  0  0  0  0  0  0  0  0  0  0  0
  -87.2637   26.7998    2.0352 C   0  0  0  0  0  0  0  0  0  0  0  0
  -88.5490   28.2759    0.6646 C   0  0  0  0  0  0  0  0  0  0  0  0
  -90.1021   27.5171    0.6030 S   0  0  0  0  0  0  0  0  0  0  0  0
  -93.8353   28.0574   -2.6034 N   0  0  0  0  0  0  0  0  0  0  0  0
  -92.5274   28.0303   -2.0894 C   0  0  0  0  0  0  0  0  0  0  0  0
  -91.6108   27.3975   -2.7083 O   0  0  0  0  0  0  0  0  0  0  0  0
  -92.2255   28.7085   -0.8793 N   0  0  0  0  0  0  0  0  0  0  0  0
  -94.5787   28.5708   -2.1013 H   0  0  0  0  0  0  0  0  0  0  0  0
  -92.9780   29.2258   -0.3746 H   0  0  0  0  0  0  0  0  0  0  0  0
  -94.7880   26.0274   -3.5850 C   0  0  0  0  0  0  0  0  0  0  0  0
  -94.1490   27.3745   -3.8264 C   0  0  0  0  0  0  0  0  0  0  0  0
  -85.3218   30.8760    0.1570 C   0  0  0  0  0  0  0  0  0  0  0  0
  -85.4005   32.2038   -0.1275 C   0  0  0  0  0  0  0  0  0  0  0  0
  -84.2696   32.9926   -0.2562 C   0  0  0  0  0  0  0  0  0  0  0  0
  -83.0269   32.3999   -0.0877 C   0  0  0  0  0  0  0  0  0  0  0  0
  -82.9450   31.0981    0.1914 N   0  0  0  0  0  0  0  0  0  0  0  0
  -84.0710   30.3291    0.3162 C   0  0  0  0  0  0  0  0  0  0  0  0
 18 19  1  0  0  0
 19 12  1  0  0  0
 12 13  1  0  0  0
 13 14  2  0  0  0
 13 15  1  0  0  0
 15  1  1  0  0  0
  1  2  2  0  0  0
  2  3  1  0  0  0
  3  4  1  0  0  0
  4  5  2  0  0  0
  5 20  1  0  0  0
 20 21  2  0  0  0
 21 22  1  0  0  0
 22 23  2  0  0  0
 23 24  1  0  0  0
 24 25  2  0  0  0
  5  6  1  0  0  0
  6  7  2  0  0  0
  6  8  1  0  0  0
  8  9  1  0  0  0
  8 10  1  0  0  0
 10 11  1  0  0  0
 11  1  1  0  0  0
 10  3  2  0  0  0
 25 20  1  0  0  0
 12 16  1  0  0  0
 15 17  1  0  0  0
M  END
> <minimizedAffinity>
-6.87312

> <CNNscore>
0.1418364644

> <CNNaffinity>
5.5039114952

> <CNN_VS>
0.7806553245

> <CNNaffinity_variance>
0.2095119655

$$$$
[H]c1nc([H])c(-c2c([H])c3nc(N([H])C(=O)N([H])C([H])([H])C([H])([H])[H])sc3n(C([H])([H])[H])c2=O)c([H])c1[H]


 25 27  0  0  0  0  0  0  0  0999 V2000
  -89.4092   24.1129   -0.8178 C   0  0  0  0  0  0  0  0  0  0  0  0
  -88.9567   25.2981   -0.5438 N   0  0  0  0  0  0  0  0  0  0  0  0
  -89.3964   26.3406   -1.1884 C   0  0  0  0  0  0  0  0  0  0  0  0
  -89.0156   27.6625   -1.0139 C   0  0  0  0  0  0  0  0  0  0  0  0
  -89.5386   28.6821   -1.7429 C   0  0  0  0  0  0  0  0  0  0  0  0
  -90.4981   28.4378   -2.7149 C   0  0  0  0  0  0  0  0  0  0  0  0
  -91.0267   29.3220   -3.4255 O   0  0  0  0  0  0  0  0  0  0  0  0
  -90.8824   27.1405   -2.8977 N   0  0  0  0  0  0  0  0  0  0  0  0
  -91.8734   26.7667   -3.8812 C   0  0  0  0  0  0  0  0  0  0  0  0
  -90.3462   26.1317   -2.1568 C   0  0  0  0  0  0  0  0  0  0  0  0
  -90.5371   24.4151   -2.0627 S   0  0  0  0  0  0  0  0  0  0  0  0
  -89.6247   20.9654    1.1775 N   0  0  0  0  0  0  0  0  0  0  0  0
  -89.9827   22.1679    0.5442 C   0  0  0  0  0  0  0  0  0  0  0  0
  -91.1775   22.6029    0.6277 O   0  0  0  0  0  0  0  0  0  0  0  0
  -89.0130   22.9004   -0.1897 N   0  0  0  0  0  0  0  0  0  0  0  0
  -88.6555   20.6127    1.1097 H   0  0  0  0  0  0  0  0  0  0  0  0
  -88.0355   22.5419   -0.2565 H   0  0  0  0  0  0  0  0  0  0  0  0
  -90.0844   19.7916    3.2758 C   0  0  0  0  0  0  0  0  0  0  0  0
  -90.5990   20.2187    1.9216 C   0  0  0  0  0  0  0  0  0  0  0  0
  -89.1284   30.0802   -1.5574 C   0  0  0  0  0  0  0  0  0  0  0  0
  -89.7649   30.9802   -0.7604 C   0  0  0  0  0  0  0  0  0  0  0  0
  -89.3179   32.2840   -0.6275 C   0  0  0  0  0  0  0  0  0  0  0  0
  -88.1877   32.6711   -1.3323 C   0  0  0  0  0  0  0  0  0  0  0  0
  -87.5603   31.7919   -2.1151 N   0  0  0  0  0  0  0  0  0  0  0  0
  -88.0125   30.5053   -2.2378 C   0  0  0  0  0  0  0  0  0  0  0  0
 18 19  1  0  0  0
 19 12  1  0  0  0
 12 13  1  0  0  0
 13 14  2  0  0  0
 13 15  1  0  0  0
 15  1  1  0  0  0
  1  2  2  0  0  0
  2  3  1  0  0  0
  3  4  1  0  0  0
  4  5  2  0  0  0
  5 20  1  0  0  0
 20 21  2  0  0  0
 21 22  1  0  0  0
 22 23  2  0  0  0
 23 24  1  0  0  0
 24 25  2  0  0  0
  5  6  1  0  0  0
  6  7  2  0  0  0
  6  8  1  0  0  0
  8  9  1  0  0  0
  8 10  1  0  0  0
 10 11  1  0  0  0
 11  1  1  0  0  0
 10  3  2  0  0  0
 25 20  1  0  0  0
 12 16  1  0  0  0
 15 17  1  0  0  0
M  END
> <minimizedAffinity>
-6.32742

> <CNNscore>
0.1297548115

> <CNNaffinity>
4.9942789078

> <CNN_VS>
0.6480317116

> <CNNaffinity_variance>
0.4504674077

$$$$
[H]c1c([H])c(N([H])C(=O)c2c(C([H])([H])[H])c(C(=O)C(=O)N([H])C3(c4nnn([H])c4[H])C([H])([H])C3([H])[H])c3n2C([H])([H])C([H])([H])C3([H])[H])c([H])c(C([H])(F)F)c1F


 38 42  0  0  0  0  0  0  0  0999 V2000
  -89.6812   29.3266   -1.8324 C   0  0  0  0  0  0  0  0  0  0  0  0
  -88.4179   29.7801   -1.1616 C   0  0  0  0  0  0  0  0  0  0  0  0
  -87.5836   28.9276   -0.4990 C   0  0  0  0  0  0  0  0  0  0  0  0
  -86.5110   29.8063   -0.0672 C   0  0  0  0  0  0  0  0  0  0  0  0
  -85.2314   29.7395    0.6890 C   0  0  0  0  0  0  0  0  0  0  0  0
  -85.1893   31.1948    1.2090 C   0  0  0  0  0  0  0  0  0  0  0  0
  -85.6827   31.9222   -0.0284 C   0  0  0  0  0  0  0  0  0  0  0  0
  -86.7618   31.0201   -0.4663 N   0  0  0  0  0  0  0  0  0  0  0  0
  -87.9591   31.0683   -1.1669 C   0  0  0  0  0  0  0  0  0  0  0  0
  -88.3848   32.3018   -1.7475 C   0  0  0  0  0  0  0  0  0  0  0  0
  -89.2556   32.9689   -1.0064 O   0  0  0  0  0  0  0  0  0  0  0  0
  -88.0584   32.9559   -2.9261 N   0  0  0  0  0  0  0  0  0  0  0  0
  -87.4279   32.5478   -3.6293 H   0  0  0  0  0  0  0  0  0  0  0  0
  -88.6003   34.2629   -3.2239 C   0  0  0  0  0  0  0  0  0  0  0  0
  -89.8885   34.4150   -3.7383 C   0  0  0  0  0  0  0  0  0  0  0  0
  -90.3979   35.6439   -4.0701 C   0  0  0  0  0  0  0  0  0  0  0  0
  -89.6245   36.7981   -3.8983 C   0  0  0  0  0  0  0  0  0  0  0  0
  -90.1058   38.0369   -4.2386 F   0  0  0  0  0  0  0  0  0  0  0  0
  -88.3568   36.6890   -3.3960 C   0  0  0  0  0  0  0  0  0  0  0  0
  -87.8895   35.4226   -3.0781 C   0  0  0  0  0  0  0  0  0  0  0  0
  -87.5001   37.8890   -3.2000 C   0  0  0  0  0  0  0  0  0  0  0  0
  -87.4393   38.4851   -4.4723 F   0  0  0  0  0  0  0  0  0  0  0  0
  -88.1012   38.8230   -2.3793 F   0  0  0  0  0  0  0  0  0  0  0  0
  -87.5693   27.5807   -0.0313 C   0  0  0  0  0  0  0  0  0  0  0  0
  -87.2375   26.6504   -0.8805 O   0  0  0  0  0  0  0  0  0  0  0  0
  -87.9073   27.0790    1.2993 C   0  0  0  0  0  0  0  0  0  0  0  0
  -87.0413   26.5798    2.0232 O   0  0  0  0  0  0  0  0  0  0  0  0
  -89.2879   27.2520    1.6391 N   0  0  0  0  0  0  0  0  0  0  0  0
  -89.8819   27.7664    0.8979 H   0  0  0  0  0  0  0  0  0  0  0  0
  -89.9196   26.8440    2.8369 C   0  0  0  0  0  0  0  0  0  0  0  0
  -89.6701   27.6424    4.0978 C   0  0  0  0  0  0  0  0  0  0  0  0
  -90.8853   27.9552    3.3370 C   0  0  0  0  0  0  0  0  0  0  0  0
  -90.5496   25.5161    3.0046 C   0  0  0  0  0  0  0  0  0  0  0  0
  -90.8845   24.6047    1.9865 C   0  0  0  0  0  0  0  0  0  0  0  0
  -91.4826   23.5237    2.5177 N   0  0  0  0  0  0  0  0  0  0  0  0
  -91.5311   23.7192    3.8156 N   0  0  0  0  0  0  0  0  0  0  0  0
  -90.9761   24.9132    4.1213 N   0  0  0  0  0  0  0  0  0  0  0  0
  -91.8097   22.7267    1.9368 H   0  0  0  0  0  0  0  0  0  0  0  0
  1  2  1  0  0  0
  2  3  1  0  0  0
  3 24  1  0  0  0
 24 25  2  0  0  0
 24 26  1  0  0  0
 26 27  2  0  0  0
 26 28  1  0  0  0
 28 30  1  0  0  0
 30 31  1  0  0  0
 31 32  1  0  0  0
 30 33  1  0  0  0
 33 34  2  0  0  0
 34 35  1  0  0  0
 35 36  1  0  0  0
 36 37  2  0  0  0
  3  4  2  0  0  0
  4  5  1  0  0  0
  5  6  1  0  0  0
  6  7  1  0  0  0
  7  8  1  0  0  0
  8  9  1  0  0  0
  9 10  1  0  0  0
 10 11  2  0  0  0
 10 12  1  0  0  0
 12 14  1  0  0  0
 14 15  2  0  0  0
 15 16  1  0  0  0
 16 17  2  0  0  0
 17 18  1  0  0  0
 17 19  1  0  0  0
 19 20  2  0  0  0
 19 21  1  0  0  0
 21 22  1  0  0  0
 21 23  1  0  0  0
  9  2  2  0  0  0
 20 14  1  0  0  0
 32 30  1  0  0  0
 37 33  1  0  0  0
  8  4  1  0  0  0
 28 29  1  0  0  0
 35 38  1  0  0  0
 12 13  1  0  0  0
M  END
> <minimizedAffinity>
-9.29266

> <CNNscore>
0.1352323443

> <CNNaffinity>
6.4438638687

> <CNN_VS>
0.8714188337

> <CNNaffinity_variance>
0.1959787309

$$$$
[H]c1c([H])c(N([H])C(=O)c2c(C([H])([H])[H])c(C(=O)C(=O)N([H])C3(c4nnn([H])c4[H])C([H])([H])C3([H])[H])c3n2C([H])([H])C([H])([H])C3([H])[H])c([H])c(C([H])(F)F)c1F


 38 42  0  0  0  0  0  0  0  0999 V2000
  -90.4034   26.5329    3.0325 C   0  0  0  0  0  0  0  0  0  0  0  0
  -90.3516   26.0223    1.6225 C   0  0  0  0  0  0  0  0  0  0  0  0
  -91.0301   24.9123    1.2110 C   0  0  0  0  0  0  0  0  0  0  0  0
  -90.7027   24.8470   -0.2023 C   0  0  0  0  0  0  0  0  0  0  0  0
  -90.9876   23.9969   -1.3896 C   0  0  0  0  0  0  0  0  0  0  0  0
  -89.7050   24.2894   -2.2016 C   0  0  0  0  0  0  0  0  0  0  0  0
  -89.5710   25.7784   -1.9391 C   0  0  0  0  0  0  0  0  0  0  0  0
  -89.9151   25.8377   -0.5080 N   0  0  0  0  0  0  0  0  0  0  0  0
  -89.6552   26.6201    0.6088 C   0  0  0  0  0  0  0  0  0  0  0  0
  -88.8604   27.7989    0.4720 C   0  0  0  0  0  0  0  0  0  0  0  0
  -89.5217   28.9202    0.7125 O   0  0  0  0  0  0  0  0  0  0  0  0
  -87.5270   28.0100    0.1544 N   0  0  0  0  0  0  0  0  0  0  0  0
  -86.8905   27.2429   -0.1002 H   0  0  0  0  0  0  0  0  0  0  0  0
  -86.9632   29.3414    0.1665 C   0  0  0  0  0  0  0  0  0  0  0  0
  -87.3601   30.3066   -0.7599 C   0  0  0  0  0  0  0  0  0  0  0  0
  -86.8000   31.5577   -0.7907 C   0  0  0  0  0  0  0  0  0  0  0  0
  -85.7976   31.9047    0.1229 C   0  0  0  0  0  0  0  0  0  0  0  0
  -85.2103   33.1443    0.1011 F   0  0  0  0  0  0  0  0  0  0  0  0
  -85.3826   30.9851    1.0466 C   0  0  0  0  0  0  0  0  0  0  0  0
  -85.9807   29.7339    1.0335 C   0  0  0  0  0  0  0  0  0  0  0  0
  -84.3187   31.3111    2.0336 C   0  0  0  0  0  0  0  0  0  0  0  0
  -84.9942   31.3751    3.2655 F   0  0  0  0  0  0  0  0  0  0  0  0
  -83.4039   30.2847    2.1633 F   0  0  0  0  0  0  0  0  0  0  0  0
  -91.7639   23.8275    1.7748 C   0  0  0  0  0  0  0  0  0  0  0  0
  -93.0287   23.7350    1.4773 O   0  0  0  0  0  0  0  0  0  0  0  0
  -91.2890   22.7873    2.6853 C   0  0  0  0  0  0  0  0  0  0  0  0
  -91.1089   23.0314    3.8816 O   0  0  0  0  0  0  0  0  0  0  0  0
  -91.0925   21.5196    2.0482 N   0  0  0  0  0  0  0  0  0  0  0  0
  -91.3622   21.4846    1.0029 H   0  0  0  0  0  0  0  0  0  0  0  0
  -90.6149   20.3351    2.6557 C   0  0  0  0  0  0  0  0  0  0  0  0
  -91.6178   19.2993    3.1150 C   0  0  0  0  0  0  0  0  0  0  0  0
  -91.0050   19.0993    1.7967 C   0  0  0  0  0  0  0  0  0  0  0  0
  -89.2298   20.1858    3.1533 C   0  0  0  0  0  0  0  0  0  0  0  0
  -88.7385   20.5709    4.4142 C   0  0  0  0  0  0  0  0  0  0  0  0
  -87.4196   20.3188    4.4885 N   0  0  0  0  0  0  0  0  0  0  0  0
  -87.0707   19.7927    3.3367 N   0  0  0  0  0  0  0  0  0  0  0  0
  -88.1481   19.7093    2.5246 N   0  0  0  0  0  0  0  0  0  0  0  0
  -86.8599   20.5282    5.3385 H   0  0  0  0  0  0  0  0  0  0  0  0
  1  2  1  0  0  0
  2  3  1  0  0  0
  3 24  1  0  0  0
 24 25  2  0  0  0
 24 26  1  0  0  0
 26 27  2  0  0  0
 26 28  1  0  0  0
 28 30  1  0  0  0
 30 31  1  0  0  0
 31 32  1  0  0  0
 30 33  1  0  0  0
 33 34  2  0  0  0
 34 35  1  0  0  0
 35 36  1  0  0  0
 36 37  2  0  0  0
  3  4  2  0  0  0
  4  5  1  0  0  0
  5  6  1  0  0  0
  6  7  1  0  0  0
  7  8  1  0  0  0
  8  9  1  0  0  0
  9 10  1  0  0  0
 10 11  2  0  0  0
 10 12  1  0  0  0
 12 14  1  0  0  0
 14 15  2  0  0  0
 15 16  1  0  0  0
 16 17  2  0  0  0
 17 18  1  0  0  0
 17 19  1  0  0  0
 19 20  2  0  0  0
 19 21  1  0  0  0
 21 22  1  0  0  0
 21 23  1  0  0  0
  9  2  2  0  0  0
 20 14  1  0  0  0
 32 30  1  0  0  0
 37 33  1  0  0  0
  8  4  1  0  0  0
 28 29  1  0  0  0
 35 38  1  0  0  0
 12 13  1  0  0  0
M  END
> <minimizedAffinity>
-9.51519

> <CNNscore>
0.1172547117

> <CNNaffinity>
6.2656736374

> <CNN_VS>
0.7346797585

> <CNNaffinity_variance>
0.2312029898

$$$$
[H]c1c([H])c(N([H])C(=O)c2c(C([H])([H])[H])c(C(=O)C(=O)N([H])C3(c4nnn([H])c4[H])C([H])([H])C3([H])[H])c3n2C([H])([H])C([H])([H])C3([H])[H])c([H])c(C([H])(F)F)c1F


 38 42  0  0  0  0  0  0  0  0999 V2000
  -89.3828   31.1637   -1.5140 C   0  0  0  0  0  0  0  0  0  0  0  0
  -88.0281   31.0639   -0.8765 C   0  0  0  0  0  0  0  0  0  0  0  0
  -87.0855   32.0448   -0.9819 C   0  0  0  0  0  0  0  0  0  0  0  0
  -85.9897   31.5173   -0.1882 C   0  0  0  0  0  0  0  0  0  0  0  0
  -84.6139   31.8975    0.2316 C   0  0  0  0  0  0  0  0  0  0  0  0
  -84.0299   30.4806    0.4347 C   0  0  0  0  0  0  0  0  0  0  0  0
  -85.2193   29.8067    1.0943 C   0  0  0  0  0  0  0  0  0  0  0  0
  -86.3264   30.3547    0.2917 N   0  0  0  0  0  0  0  0  0  0  0  0
  -87.6099   30.0114   -0.1102 C   0  0  0  0  0  0  0  0  0  0  0  0
  -88.1940   28.7974    0.3640 C   0  0  0  0  0  0  0  0  0  0  0  0
  -89.4314   28.9393    0.8127 O   0  0  0  0  0  0  0  0  0  0  0  0
  -87.7351   27.4906    0.4353 N   0  0  0  0  0  0  0  0  0  0  0  0
  -86.7789   27.2243    0.1648 H   0  0  0  0  0  0  0  0  0  0  0  0
  -88.5956   26.4264    0.9019 C   0  0  0  0  0  0  0  0  0  0  0  0
  -89.3528   25.6623    0.0131 C   0  0  0  0  0  0  0  0  0  0  0  0
  -90.2089   24.6820    0.4446 C   0  0  0  0  0  0  0  0  0  0  0  0
  -90.3475   24.4183    1.8125 C   0  0  0  0  0  0  0  0  0  0  0  0
  -91.2100   23.4543    2.2695 F   0  0  0  0  0  0  0  0  0  0  0  0
  -89.6211   25.1465    2.7142 C   0  0  0  0  0  0  0  0  0  0  0  0
  -88.7712   26.1271    2.2250 C   0  0  0  0  0  0  0  0  0  0  0  0
  -89.7401   24.9011    4.1764 C   0  0  0  0  0  0  0  0  0  0  0  0
  -91.0764   25.2214    4.4758 F   0  0  0  0  0  0  0  0  0  0  0  0
  -89.5989   23.5630    4.4877 F   0  0  0  0  0  0  0  0  0  0  0  0
  -86.8570   33.2448   -1.7172 C   0  0  0  0  0  0  0  0  0  0  0  0
  -86.1144   34.1603   -1.1629 O   0  0  0  0  0  0  0  0  0  0  0  0
  -87.3729   33.6138   -3.0341 C   0  0  0  0  0  0  0  0  0  0  0  0
  -87.3528   32.8065   -3.9674 O   0  0  0  0  0  0  0  0  0  0  0  0
  -87.8921   34.9475   -3.0888 N   0  0  0  0  0  0  0  0  0  0  0  0
  -87.8790   35.4839   -2.1513 H   0  0  0  0  0  0  0  0  0  0  0  0
  -88.4299   35.5977   -4.2239 C   0  0  0  0  0  0  0  0  0  0  0  0
  -89.8976   35.4104   -4.5405 C   0  0  0  0  0  0  0  0  0  0  0  0
  -89.5232   36.6141   -3.7894 C   0  0  0  0  0  0  0  0  0  0  0  0
  -87.5898   36.1864   -5.2897 C   0  0  0  0  0  0  0  0  0  0  0  0
  -86.5626   37.1344   -5.1296 C   0  0  0  0  0  0  0  0  0  0  0  0
  -86.0546   37.4666   -6.3296 N   0  0  0  0  0  0  0  0  0  0  0  0
  -86.7142   36.7678   -7.2250 N   0  0  0  0  0  0  0  0  0  0  0  0
  -87.6409   35.9963   -6.6139 N   0  0  0  0  0  0  0  0  0  0  0  0
  -85.2822   38.1534   -6.4363 H   0  0  0  0  0  0  0  0  0  0  0  0
  1  2  1  0  0  0
  2  3  1  0  0  0
  3 24  1  0  0  0
 24 25  2  0  0  0
 24 26  1  0  0  0
 26 27  2  0  0  0
 26 28  1  0  0  0
 28 30  1  0  0  0
 30 31  1  0  0  0
 31 32  1  0  0  0
 30 33  1  0  0  0
 33 34  2  0  0  0
 34 35  1  0  0  0
 35 36  1  0  0  0
 36 37  2  0  0  0
  3  4  2  0  0  0
  4  5  1  0  0  0
  5  6  1  0  0  0
  6  7  1  0  0  0
  7  8  1  0  0  0
  8  9  1  0  0  0
  9 10  1  0  0  0
 10 11  2  0  0  0
 10 12  1  0  0  0
 12 14  1  0  0  0
 14 15  2  0  0  0
 15 16  1  0  0  0
 16 17  2  0  0  0
 17 18  1  0  0  0
 17 19  1  0  0  0
 19 20  2  0  0  0
 19 21  1  0  0  0
 21 22  1  0  0  0
 21 23  1  0  0  0
  9  2  2  0  0  0
 20 14  1  0  0  0
 32 30  1  0  0  0
 37 33  1  0  0  0
  8  4  1  0  0  0
 28 29  1  0  0  0
 35 38  1  0  0  0
 12 13  1  0  0  0
M  END
> <minimizedAffinity>
-8.85846

> <CNNscore>
0.1106652841

> <CNNaffinity>
6.5104684830

> <CNN_VS>
0.7204828262

> <CNNaffinity_variance>
0.1457804739

$$$$
[H]c1c([H])c(N([H])C(=O)c2c(C([H])([H])[H])c(C(=O)C(=O)N([H])C3(c4nnn([H])c4[H])C([H])([H])C3([H])[H])c3n2C([H])([H])C([H])([H])C3([H])[H])c([H])c(C([H])(F)F)c1F


 38 42  0  0  0  0  0  0  0  0999 V2000
  -88.5277   29.5954   -0.2320 C   0  0  0  0  0  0  0  0  0  0  0  0
  -88.5198   30.3446   -1.5321 C   0  0  0  0  0  0  0  0  0  0  0  0
  -87.7351   31.4391   -1.7519 C   0  0  0  0  0  0  0  0  0  0  0  0
  -88.0442   31.7785   -3.1296 C   0  0  0  0  0  0  0  0  0  0  0  0
  -87.6704   32.7899   -4.1548 C   0  0  0  0  0  0  0  0  0  0  0  0
  -88.9690   32.7660   -4.9933 C   0  0  0  0  0  0  0  0  0  0  0  0
  -89.2468   31.2738   -4.9907 C   0  0  0  0  0  0  0  0  0  0  0  0
  -88.9207   30.9354   -3.5946 N   0  0  0  0  0  0  0  0  0  0  0  0
  -89.2626   30.0003   -2.6274 C   0  0  0  0  0  0  0  0  0  0  0  0
  -90.1655   28.9443   -2.9584 C   0  0  0  0  0  0  0  0  0  0  0  0
  -89.5747   27.7743   -3.1435 O   0  0  0  0  0  0  0  0  0  0  0  0
  -91.5430   28.8891   -3.1095 N   0  0  0  0  0  0  0  0  0  0  0  0
  -92.1414   29.7230   -3.0395 H   0  0  0  0  0  0  0  0  0  0  0  0
  -92.2104   27.6347   -3.3776 C   0  0  0  0  0  0  0  0  0  0  0  0
  -92.5798   27.2711   -4.6731 C   0  0  0  0  0  0  0  0  0  0  0  0
  -93.2553   26.1073   -4.9364 C   0  0  0  0  0  0  0  0  0  0  0  0
  -93.5978   25.2389   -3.8931 C   0  0  0  0  0  0  0  0  0  0  0  0
  -94.2882   24.0771   -4.1293 F   0  0  0  0  0  0  0  0  0  0  0  0
  -93.2521   25.5612   -2.6095 C   0  0  0  0  0  0  0  0  0  0  0  0
  -92.5711   26.7506   -2.3980 C   0  0  0  0  0  0  0  0  0  0  0  0
  -93.5987   24.6686   -1.4713 C   0  0  0  0  0  0  0  0  0  0  0  0
  -93.2461   25.4086   -0.3285 F   0  0  0  0  0  0  0  0  0  0  0  0
  -94.9606   24.4611   -1.3752 F   0  0  0  0  0  0  0  0  0  0  0  0
  -86.9051   32.3349   -1.0160 C   0  0  0  0  0  0  0  0  0  0  0  0
  -87.2485   33.5911   -0.9885 O   0  0  0  0  0  0  0  0  0  0  0  0
  -85.6740   32.0383   -0.2861 C   0  0  0  0  0  0  0  0  0  0  0  0
  -84.6105   32.5818   -0.5974 O   0  0  0  0  0  0  0  0  0  0  0  0
  -85.8582   31.1064    0.7858 N   0  0  0  0  0  0  0  0  0  0  0  0
  -86.8771   30.7846    0.9440 H   0  0  0  0  0  0  0  0  0  0  0  0
  -84.8565   30.6041    1.6487 C   0  0  0  0  0  0  0  0  0  0  0  0
  -83.7201   31.5184    2.0518 C   0  0  0  0  0  0  0  0  0  0  0  0
  -84.8494   31.4041    2.9819 C   0  0  0  0  0  0  0  0  0  0  0  0
  -84.6796   29.1618    1.9257 C   0  0  0  0  0  0  0  0  0  0  0  0
  -85.6075   28.1336    1.6785 C   0  0  0  0  0  0  0  0  0  0  0  0
  -85.1123   26.9576    2.1032 N   0  0  0  0  0  0  0  0  0  0  0  0
  -83.9212   27.2065    2.5979 N   0  0  0  0  0  0  0  0  0  0  0  0
  -83.6499   28.5272    2.4996 N   0  0  0  0  0  0  0  0  0  0  0  0
  -85.6393   26.0667    2.0134 H   0  0  0  0  0  0  0  0  0  0  0  0
  1  2  1  0  0  0
  2  3  1  0  0  0
  3 24  1  0  0  0
 24 25  2  0  0  0
 24 26  1  0  0  0
 26 27  2  0  0  0
 26 28  1  0  0  0
 28 30  1  0  0  0
 30 31  1  0  0  0
 31 32  1  0  0  0
 30 33  1  0  0  0
 33 34  2  0  0  0
 34 35  1  0  0  0
 35 36  1  0  0  0
 36 37  2  0  0  0
  3  4  2  0  0  0
  4  5  1  0  0  0
  5  6  1  0  0  0
  6  7  1  0  0  0
  7  8  1  0  0  0
  8  9  1  0  0  0
  9 10  1  0  0  0
 10 11  2  0  0  0
 10 12  1  0  0  0
 12 14  1  0  0  0
 14 15  2  0  0  0
 15 16  1  0  0  0
 16 17  2  0  0  0
 17 18  1  0  0  0
 17 19  1  0  0  0
 19 20  2  0  0  0
 19 21  1  0  0  0
 21 22  1  0  0  0
 21 23  1  0  0  0
  9  2  2  0  0  0
 20 14  1  0  0  0
 32 30  1  0  0  0
 37 33  1  0  0  0
  8  4  1  0  0  0
 28 29  1  0  0  0
 35 38  1  0  0  0
 12 13  1  0  0  0
M  END
> <minimizedAffinity>
-8.28849

> <CNNscore>
0.1090184748

> <CNNaffinity>
6.4553427696

> <CNN_VS>
0.7037516236

> <CNNaffinity_variance>
0.1724683344

$$$$
[H]c1c([H])c(N([H])C(=O)c2c(C([H])([H])[H])c(C(=O)C(=O)N([H])C3(c4nnn([H])c4[H])C([H])([H])C3([H])[H])c3n2C([H])([H])C([H])([H])C3([H])[H])c([H])c(C([H])(F)F)c1F


 38 42  0  0  0  0  0  0  0  0999 V2000
  -88.7777   30.0027   -2.5953 C   0  0  0  0  0  0  0  0  0  0  0  0
  -87.6956   30.3473   -1.6145 C   0  0  0  0  0  0  0  0  0  0  0  0
  -87.1562   29.4347   -0.7554 C   0  0  0  0  0  0  0  0  0  0  0  0
  -86.1510   30.2148   -0.0554 C   0  0  0  0  0  0  0  0  0  0  0  0
  -85.1288   30.0425    1.0119 C   0  0  0  0  0  0  0  0  0  0  0  0
  -85.0767   31.4999    1.5251 C   0  0  0  0  0  0  0  0  0  0  0  0
  -85.1508   32.2392    0.2016 C   0  0  0  0  0  0  0  0  0  0  0  0
  -86.1630   31.4363   -0.5060 N   0  0  0  0  0  0  0  0  0  0  0  0
  -87.1227   31.5834   -1.4980 C   0  0  0  0  0  0  0  0  0  0  0  0
  -87.2529   32.8371   -2.1699 C   0  0  0  0  0  0  0  0  0  0  0  0
  -86.0990   33.3601   -2.5539 O   0  0  0  0  0  0  0  0  0  0  0  0
  -88.3468   33.6145   -2.5199 N   0  0  0  0  0  0  0  0  0  0  0  0
  -89.3096   33.3661   -2.2557 H   0  0  0  0  0  0  0  0  0  0  0  0
  -88.1789   34.8303   -3.2843 C   0  0  0  0  0  0  0  0  0  0  0  0
  -88.0095   36.0650   -2.6568 C   0  0  0  0  0  0  0  0  0  0  0  0
  -87.8969   37.2320   -3.3678 C   0  0  0  0  0  0  0  0  0  0  0  0
  -87.9504   37.2139   -4.7666 C   0  0  0  0  0  0  0  0  0  0  0  0
  -87.8571   38.3699   -5.4993 F   0  0  0  0  0  0  0  0  0  0  0  0
  -88.1151   36.0221   -5.4174 C   0  0  0  0  0  0  0  0  0  0  0  0
  -88.2253   34.8716   -4.6508 C   0  0  0  0  0  0  0  0  0  0  0  0
  -88.1800   35.9578   -6.9021 C   0  0  0  0  0  0  0  0  0  0  0  0
  -89.3092   36.7273   -7.2349 F   0  0  0  0  0  0  0  0  0  0  0  0
  -87.1071   36.5956   -7.4929 F   0  0  0  0  0  0  0  0  0  0  0  0
  -87.4026   28.1059   -0.3010 C   0  0  0  0  0  0  0  0  0  0  0  0
  -87.2845   27.1402   -1.1672 O   0  0  0  0  0  0  0  0  0  0  0  0
  -87.8041   27.6633    1.0329 C   0  0  0  0  0  0  0  0  0  0  0  0
  -86.9567   27.3750    1.8826 O   0  0  0  0  0  0  0  0  0  0  0  0
  -89.2240   27.6305    1.2184 N   0  0  0  0  0  0  0  0  0  0  0  0
  -89.8049   27.9776    0.3765 H   0  0  0  0  0  0  0  0  0  0  0  0
  -89.9135   27.2204    2.3831 C   0  0  0  0  0  0  0  0  0  0  0  0
  -89.8146   28.0785    3.6255 C   0  0  0  0  0  0  0  0  0  0  0  0
  -90.9884   28.2761    2.7673 C   0  0  0  0  0  0  0  0  0  0  0  0
  -90.4609   25.8573    2.5585 C   0  0  0  0  0  0  0  0  0  0  0  0
  -90.5294   25.1216    3.7557 C   0  0  0  0  0  0  0  0  0  0  0  0
  -91.0483   23.9042    3.5164 N   0  0  0  0  0  0  0  0  0  0  0  0
  -91.3081   23.8513    2.2299 N   0  0  0  0  0  0  0  0  0  0  0  0
  -90.9579   25.0172    1.6423 N   0  0  0  0  0  0  0  0  0  0  0  0
  -91.1871   23.2006    4.2682 H   0  0  0  0  0  0  0  0  0  0  0  0
  1  2  1  0  0  0
  2  3  1  0  0  0
  3 24  1  0  0  0
 24 25  2  0  0  0
 24 26  1  0  0  0
 26 27  2  0  0  0
 26 28  1  0  0  0
 28 30  1  0  0  0
 30 31  1  0  0  0
 31 32  1  0  0  0
 30 33  1  0  0  0
 33 34  2  0  0  0
 34 35  1  0  0  0
 35 36  1  0  0  0
 36 37  2  0  0  0
  3  4  2  0  0  0
  4  5  1  0  0  0
  5  6  1  0  0  0
  6  7  1  0  0  0
  7  8  1  0  0  0
  8  9  1  0  0  0
  9 10  1  0  0  0
 10 11  2  0  0  0
 10 12  1  0  0  0
 12 14  1  0  0  0
 14 15  2  0  0  0
 15 16  1  0  0  0
 16 17  2  0  0  0
 17 18  1  0  0  0
 17 19  1  0  0  0
 19 20  2  0  0  0
 19 21  1  0  0  0
 21 22  1  0  0  0
 21 23  1  0  0  0
  9  2  2  0  0  0
 20 14  1  0  0  0
 32 30  1  0  0  0
 37 33  1  0  0  0
  8  4  1  0  0  0
 28 29  1  0  0  0
 35 38  1  0  0  0
 12 13  1  0  0  0
M  END
> <minimizedAffinity>
-7.97980

> <CNNscore>
0.1010874882

> <CNNaffinity>
6.4290747643

> <CNN_VS>
0.6498990059

> <CNNaffinity_variance>
0.3003359437

$$$$
[H]c1c([H])c(N([H])C(=O)c2c(C([H])([H])[H])c(C(=O)C(=O)N([H])C3(c4nnn([H])c4[H])C([H])([H])C3([H])[H])c3n2C([H])([H])C([H])([H])C3([H])[H])c([H])c(C([H])(F)F)c1F


 38 42  0  0  0  0  0  0  0  0999 V2000
  -89.5488   29.3248   -1.9713 C   0  0  0  0  0  0  0  0  0  0  0  0
  -88.3068   29.7323   -1.2344 C   0  0  0  0  0  0  0  0  0  0  0  0
  -87.5280   28.8465   -0.5483 C   0  0  0  0  0  0  0  0  0  0  0  0
  -86.4537   29.6882   -0.0517 C   0  0  0  0  0  0  0  0  0  0  0  0
  -85.2135   29.5739    0.7623 C   0  0  0  0  0  0  0  0  0  0  0  0
  -85.1568   31.0190    1.3087 C   0  0  0  0  0  0  0  0  0  0  0  0
  -85.5715   31.7794    0.0623 C   0  0  0  0  0  0  0  0  0  0  0  0
  -86.6526   30.9146   -0.4411 N   0  0  0  0  0  0  0  0  0  0  0  0
  -87.8137   31.0072   -1.1960 C   0  0  0  0  0  0  0  0  0  0  0  0
  -88.1782   32.2612   -1.7745 C   0  0  0  0  0  0  0  0  0  0  0  0
  -88.9117   33.0237   -0.9789 O   0  0  0  0  0  0  0  0  0  0  0  0
  -87.9055   32.8543   -2.9981 N   0  0  0  0  0  0  0  0  0  0  0  0
  -87.3832   32.3728   -3.7424 H   0  0  0  0  0  0  0  0  0  0  0  0
  -88.3520   34.1988   -3.2870 C   0  0  0  0  0  0  0  0  0  0  0  0
  -87.5078   35.2967   -3.1164 C   0  0  0  0  0  0  0  0  0  0  0  0
  -87.9321   36.5811   -3.3405 C   0  0  0  0  0  0  0  0  0  0  0  0
  -89.2468   36.8280   -3.7534 C   0  0  0  0  0  0  0  0  0  0  0  0
  -89.6995   38.1052   -3.9677 F   0  0  0  0  0  0  0  0  0  0  0  0
  -90.1037   35.7768   -3.9319 C   0  0  0  0  0  0  0  0  0  0  0  0
  -89.6245   34.4981   -3.6900 C   0  0  0  0  0  0  0  0  0  0  0  0
  -91.5094   35.9944   -4.3669 C   0  0  0  0  0  0  0  0  0  0  0  0
  -92.0464   34.6987   -4.4705 F   0  0  0  0  0  0  0  0  0  0  0  0
  -92.2568   36.6310   -3.3958 F   0  0  0  0  0  0  0  0  0  0  0  0
  -87.5720   27.4925   -0.1037 C   0  0  0  0  0  0  0  0  0  0  0  0
  -87.3270   26.5610   -0.9807 O   0  0  0  0  0  0  0  0  0  0  0  0
  -87.8859   26.9858    1.2309 C   0  0  0  0  0  0  0  0  0  0  0  0
  -87.0053   26.4911    1.9401 O   0  0  0  0  0  0  0  0  0  0  0  0
  -89.2622   27.1487    1.5924 N   0  0  0  0  0  0  0  0  0  0  0  0
  -89.8712   27.6604    0.8617 H   0  0  0  0  0  0  0  0  0  0  0  0
  -89.8724   26.7339    2.7991 C   0  0  0  0  0  0  0  0  0  0  0  0
  -89.5766   27.5073    4.0655 C   0  0  0  0  0  0  0  0  0  0  0  0
  -90.8036   27.8553    3.3399 C   0  0  0  0  0  0  0  0  0  0  0  0
  -90.5239   25.4158    2.9619 C   0  0  0  0  0  0  0  0  0  0  0  0
  -90.8222   24.4891    1.9462 C   0  0  0  0  0  0  0  0  0  0  0  0
  -91.4557   23.4244    2.4690 N   0  0  0  0  0  0  0  0  0  0  0  0
  -91.5610   23.6444    3.7596 N   0  0  0  0  0  0  0  0  0  0  0  0
  -91.0074   24.8382    4.0687 N   0  0  0  0  0  0  0  0  0  0  0  0
  -91.7648   22.6200    1.8883 H   0  0  0  0  0  0  0  0  0  0  0  0
  1  2  1  0  0  0
  2  3  1  0  0  0
  3 24  1  0  0  0
 24 25  2  0  0  0
 24 26  1  0  0  0
 26 27  2  0  0  0
 26 28  1  0  0  0
 28 30  1  0  0  0
 30 31  1  0  0  0
 31 32  1  0  0  0
 30 33  1  0  0  0
 33 34  2  0  0  0
 34 35  1  0  0  0
 35 36  1  0  0  0
 36 37  2  0  0  0
  3  4  2  0  0  0
  4  5  1  0  0  0
  5  6  1  0  0  0
  6  7  1  0  0  0
  7  8  1  0  0  0
  8  9  1  0  0  0
  9 10  1  0  0  0
 10 11  2  0  0  0
 10 12  1  0  0  0
 12 14  1  0  0  0
 14 15  2  0  0  0
 15 16  1  0  0  0
 16 17  2  0  0  0
 17 18  1  0  0  0
 17 19  1  0  0  0
 19 20  2  0  0  0
 19 21  1  0  0  0
 21 22  1  0  0  0
 21 23  1  0  0  0
  9  2  2  0  0  0
 20 14  1  0  0  0
 32 30  1  0  0  0
 37 33  1  0  0  0
  8  4  1  0  0  0
 28 29  1  0  0  0
 35 38  1  0  0  0
 12 13  1  0  0  0
M  END
> <minimizedAffinity>
-9.25585

> <CNNscore>
0.0901181549

> <CNNaffinity>
6.3334932327

> <CNN_VS>
0.5707627535

> <CNNaffinity_variance>
0.1835023314

$$$$
[H]c1c([H])c(N([H])C(=O)c2c(C([H])([H])[H])c(C(=O)C(=O)N([H])C3(c4nnn([H])c4[H])C([H])([H])C3([H])[H])c3n2C([H])([H])C([H])([H])C3([H])[H])c([H])c(C([H])(F)F)c1F


 38 42  0  0  0  0  0  0  0  0999 V2000
  -89.7884   30.4199   -2.5340 C   0  0  0  0  0  0  0  0  0  0  0  0
  -88.5569   30.8274   -1.7797 C   0  0  0  0  0  0  0  0  0  0  0  0
  -87.7489   31.8520   -2.1784 C   0  0  0  0  0  0  0  0  0  0  0  0
  -86.7394   31.8835   -1.1349 C   0  0  0  0  0  0  0  0  0  0  0  0
  -85.5151   32.6462   -0.7704 C   0  0  0  0  0  0  0  0  0  0  0  0
  -84.7896   31.5511    0.0447 C   0  0  0  0  0  0  0  0  0  0  0  0
  -85.9714   30.9695    0.7989 C   0  0  0  0  0  0  0  0  0  0  0  0
  -86.9932   30.9512   -0.2621 N   0  0  0  0  0  0  0  0  0  0  0  0
  -88.1352   30.2460   -0.6161 C   0  0  0  0  0  0  0  0  0  0  0  0
  -88.6231   29.2186    0.2478 C   0  0  0  0  0  0  0  0  0  0  0  0
  -89.9186   29.3071    0.5051 O   0  0  0  0  0  0  0  0  0  0  0  0
  -88.0188   28.1317    0.8617 N   0  0  0  0  0  0  0  0  0  0  0  0
  -87.0085   27.9490    0.7943 H   0  0  0  0  0  0  0  0  0  0  0  0
  -88.7958   27.1913    1.6380 C   0  0  0  0  0  0  0  0  0  0  0  0
  -89.2569   25.9972    1.0824 C   0  0  0  0  0  0  0  0  0  0  0  0
  -90.0346   25.1185    1.7916 C   0  0  0  0  0  0  0  0  0  0  0  0
  -90.3924   25.4024    3.1150 C   0  0  0  0  0  0  0  0  0  0  0  0
  -91.1834   24.5472    3.8395 F   0  0  0  0  0  0  0  0  0  0  0  0
  -89.9587   26.5633    3.6941 C   0  0  0  0  0  0  0  0  0  0  0  0
  -89.1760   27.4179    2.9323 C   0  0  0  0  0  0  0  0  0  0  0  0
  -90.3177   26.9054    5.0965 C   0  0  0  0  0  0  0  0  0  0  0  0
  -89.4797   26.0910    5.8790 F   0  0  0  0  0  0  0  0  0  0  0  0
  -89.9760   28.2053    5.4136 F   0  0  0  0  0  0  0  0  0  0  0  0
  -87.5634   32.7003   -3.3094 C   0  0  0  0  0  0  0  0  0  0  0  0
  -87.2062   32.1418   -4.4306 O   0  0  0  0  0  0  0  0  0  0  0  0
  -87.6983   34.1538   -3.3848 C   0  0  0  0  0  0  0  0  0  0  0  0
  -87.6099   34.8483   -2.3684 O   0  0  0  0  0  0  0  0  0  0  0  0
  -87.9125   34.6372   -4.7159 N   0  0  0  0  0  0  0  0  0  0  0  0
  -87.8993   33.8806   -5.4866 H   0  0  0  0  0  0  0  0  0  0  0  0
  -88.1081   35.9833   -5.1035 C   0  0  0  0  0  0  0  0  0  0  0  0
  -86.9658   36.7212   -5.7668 C   0  0  0  0  0  0  0  0  0  0  0  0
  -87.9747   36.1198   -6.6464 C   0  0  0  0  0  0  0  0  0  0  0  0
  -89.2394   36.8053   -4.6209 C   0  0  0  0  0  0  0  0  0  0  0  0
  -90.5422   36.3618   -4.3285 C   0  0  0  0  0  0  0  0  0  0  0  0
  -91.3085   37.4032   -3.9589 N   0  0  0  0  0  0  0  0  0  0  0  0
  -90.5431   38.4696   -4.0043 N   0  0  0  0  0  0  0  0  0  0  0  0
  -89.2983   38.1248   -4.4027 N   0  0  0  0  0  0  0  0  0  0  0  0
  -92.3083   37.2937   -3.6980 H   0  0  0  0  0  0  0  0  0  0  0  0
  1  2  1  0  0  0
  2  3  1  0  0  0
  3 24  1  0  0  0
 24 25  2  0  0  0
 24 26  1  0  0  0
 26 27  2  0  0  0
 26 28  1  0  0  0
 28 30  1  0  0  0
 30 31  1  0  0  0
 31 32  1  0  0  0
 30 33  1  0  0  0
 33 34  2  0  0  0
 34 35  1  0  0  0
 35 36  1  0  0  0
 36 37  2  0  0  0
  3  4  2  0  0  0
  4  5  1  0  0  0
  5  6  1  0  0  0
  6  7  1  0  0  0
  7  8  1  0  0  0
  8  9  1  0  0  0
  9 10  1  0  0  0
 10 11  2  0  0  0
 10 12  1  0  0  0
 12 14  1  0  0  0
 14 15  2  0  0  0
 15 16  1  0  0  0
 16 17  2  0  0  0
 17 18  1  0  0  0
 17 19  1  0  0  0
 19 20  2  0  0  0
 19 21  1  0  0  0
 21 22  1  0  0  0
 21 23  1  0  0  0
  9  2  2  0  0  0
 20 14  1  0  0  0
 32 30  1  0  0  0
 37 33  1  0  0  0
  8  4  1  0  0  0
 28 29  1  0  0  0
 35 38  1  0  0  0
 12 13  1  0  0  0
M  END
> <minimizedAffinity>
-8.29856

> <CNNscore>
0.0789370462

> <CNNaffinity>
6.3858690262

> <CNN_VS>
0.5040816665

> <CNNaffinity_variance>
0.1166966558

$$$$
[H]c1c([H])c(N([H])C(=O)c2c(C([H])([H])[H])c(C(=O)C(=O)N([H])C3(c4nnn([H])c4[H])C([H])([H])C3([H])[H])c3n2C([H])([H])C([H])([H])C3([H])[H])c([H])c(C([H])(F)F)c1F


 38 42  0  0  0  0  0  0  0  0999 V2000
  -90.7538   29.7206   -3.3774 C   0  0  0  0  0  0  0  0  0  0  0  0
  -90.2290   28.4956   -2.6877 C   0  0  0  0  0  0  0  0  0  0  0  0
  -90.8075   27.2667   -2.8183 C   0  0  0  0  0  0  0  0  0  0  0  0
  -89.9415   26.4223   -2.0145 C   0  0  0  0  0  0  0  0  0  0  0  0
  -89.8195   24.9982   -1.6012 C   0  0  0  0  0  0  0  0  0  0  0  0
  -89.0712   25.2045   -0.2643 C   0  0  0  0  0  0  0  0  0  0  0  0
  -88.1074   26.3015   -0.6781 C   0  0  0  0  0  0  0  0  0  0  0  0
  -88.9893   27.1470   -1.5012 N   0  0  0  0  0  0  0  0  0  0  0  0
  -89.1172   28.4727   -1.8919 C   0  0  0  0  0  0  0  0  0  0  0  0
  -88.1312   29.4234   -1.4870 C   0  0  0  0  0  0  0  0  0  0  0  0
  -86.9702   29.2868   -2.1083 O   0  0  0  0  0  0  0  0  0  0  0  0
  -88.1457   30.4764   -0.5846 N   0  0  0  0  0  0  0  0  0  0  0  0
  -88.9602   30.6865    0.0078 H   0  0  0  0  0  0  0  0  0  0  0  0
  -86.9959   31.3401   -0.4336 C   0  0  0  0  0  0  0  0  0  0  0  0
  -86.8589   32.5055   -1.1887 C   0  0  0  0  0  0  0  0  0  0  0  0
  -85.7521   33.3087   -1.0907 C   0  0  0  0  0  0  0  0  0  0  0  0
  -84.7126   32.9738   -0.2149 C   0  0  0  0  0  0  0  0  0  0  0  0
  -83.5878   33.7524   -0.1115 F   0  0  0  0  0  0  0  0  0  0  0  0
  -84.8112   31.8390    0.5424 C   0  0  0  0  0  0  0  0  0  0  0  0
  -85.9510   31.0611    0.4039 C   0  0  0  0  0  0  0  0  0  0  0  0
  -83.7289   31.4445    1.4835 C   0  0  0  0  0  0  0  0  0  0  0  0
  -84.3585   31.4024    2.7404 F   0  0  0  0  0  0  0  0  0  0  0  0
  -83.2832   30.1591    1.2467 F   0  0  0  0  0  0  0  0  0  0  0  0
  -91.9986   26.6872   -3.3459 C   0  0  0  0  0  0  0  0  0  0  0  0
  -92.3019   26.9532   -4.5844 O   0  0  0  0  0  0  0  0  0  0  0  0
  -92.9687   25.8307   -2.6662 C   0  0  0  0  0  0  0  0  0  0  0  0
  -93.7893   26.3099   -1.8787 O   0  0  0  0  0  0  0  0  0  0  0  0
  -92.8608   24.4493   -3.0290 N   0  0  0  0  0  0  0  0  0  0  0  0
  -92.1189   24.2293   -3.7826 H   0  0  0  0  0  0  0  0  0  0  0  0
  -93.6359   23.3807   -2.5216 C   0  0  0  0  0  0  0  0  0  0  0  0
  -94.6611   22.7334   -3.4269 C   0  0  0  0  0  0  0  0  0  0  0  0
  -93.3494   22.0828   -3.3282 C   0  0  0  0  0  0  0  0  0  0  0  0
  -93.7305   23.0668   -1.0790 C   0  0  0  0  0  0  0  0  0  0  0  0
  -94.8377   22.5216   -0.4035 C   0  0  0  0  0  0  0  0  0  0  0  0
  -94.5681   22.4195    0.9100 N   0  0  0  0  0  0  0  0  0  0  0  0
  -93.3467   22.8713    1.0807 N   0  0  0  0  0  0  0  0  0  0  0  0
  -92.8329   23.2655   -0.1059 N   0  0  0  0  0  0  0  0  0  0  0  0
  -95.2542   22.0384    1.5911 H   0  0  0  0  0  0  0  0  0  0  0  0
  1  2  1  0  0  0
  2  3  1  0  0  0
  3 24  1  0  0  0
 24 25  2  0  0  0
 24 26  1  0  0  0
 26 27  2  0  0  0
 26 28  1  0  0  0
 28 30  1  0  0  0
 30 31  1  0  0  0
 31 32  1  0  0  0
 30 33  1  0  0  0
 33 34  2  0  0  0
 34 35  1  0  0  0
 35 36  1  0  0  0
 36 37  2  0  0  0
  3  4  2  0  0  0
  4  5  1  0  0  0
  5  6  1  0  0  0
  6  7  1  0  0  0
  7  8  1  0  0  0
  8  9  1  0  0  0
  9 10  1  0  0  0
 10 11  2  0  0  0
 10 12  1  0  0  0
 12 14  1  0  0  0
 14 15  2  0  0  0
 15 16  1  0  0  0
 16 17  2  0  0  0
 17 18  1  0  0  0
 17 19  1  0  0  0
 19 20  2  0  0  0
 19 21  1  0  0  0
 21 22  1  0  0  0
 21 23  1  0  0  0
  9  2  2  0  0  0
 20 14  1  0  0  0
 32 30  1  0  0  0
 37 33  1  0  0  0
  8  4  1  0  0  0
 28 29  1  0  0  0
 35 38  1  0  0  0
 12 13  1  0  0  0
M  END
> <minimizedAffinity>
-8.14655

> <CNNscore>
0.0770620033

> <CNNaffinity>
5.9210405350

> <CNN_VS>
0.4562872350

> <CNNaffinity_variance>
0.2299534529

$$$$
[H]c1c([H])c(N([H])C(=O)c2c(C([H])([H])[H])c(C(=O)C(=O)N([H])C3(c4nnn([H])c4[H])C([H])([H])C3([H])[H])c3n2C([H])([H])C([H])([H])C3([H])[H])c([H])c(C([H])(F)F)c1F


 38 42  0  0  0  0  0  0  0  0999 V2000
  -88.9768   30.8979   -3.7306 C   0  0  0  0  0  0  0  0  0  0  0  0
  -88.1089   30.8493   -2.5075 C   0  0  0  0  0  0  0  0  0  0  0  0
  -87.2894   31.8763   -2.1391 C   0  0  0  0  0  0  0  0  0  0  0  0
  -86.7011   31.3848   -0.9057 C   0  0  0  0  0  0  0  0  0  0  0  0
  -85.7327   31.8213    0.1361 C   0  0  0  0  0  0  0  0  0  0  0  0
  -85.2515   30.4299    0.6077 C   0  0  0  0  0  0  0  0  0  0  0  0
  -86.5744   29.6858    0.5982 C   0  0  0  0  0  0  0  0  0  0  0  0
  -87.1693   30.1974   -0.6486 N   0  0  0  0  0  0  0  0  0  0  0  0
  -88.0682   29.8018   -1.6295 C   0  0  0  0  0  0  0  0  0  0  0  0
  -88.7459   28.5513   -1.4991 C   0  0  0  0  0  0  0  0  0  0  0  0
  -89.6901   28.5493   -0.5712 O   0  0  0  0  0  0  0  0  0  0  0  0
  -88.6290   27.3377   -2.1601 N   0  0  0  0  0  0  0  0  0  0  0  0
  -87.9131   27.1655   -2.8786 H   0  0  0  0  0  0  0  0  0  0  0  0
  -89.5237   26.2415   -1.8626 C   0  0  0  0  0  0  0  0  0  0  0  0
  -89.2650   25.3569   -0.8148 C   0  0  0  0  0  0  0  0  0  0  0  0
  -90.0787   24.2854   -0.5510 C   0  0  0  0  0  0  0  0  0  0  0  0
  -91.2100   24.0473   -1.3405 C   0  0  0  0  0  0  0  0  0  0  0  0
  -92.0299   22.9725   -1.1068 F   0  0  0  0  0  0  0  0  0  0  0  0
  -91.4966   24.8932   -2.3765 C   0  0  0  0  0  0  0  0  0  0  0  0
  -90.6403   25.9606   -2.6012 C   0  0  0  0  0  0  0  0  0  0  0  0
  -92.6867   24.6755   -3.2418 C   0  0  0  0  0  0  0  0  0  0  0  0
  -92.5579   25.6376   -4.2596 F   0  0  0  0  0  0  0  0  0  0  0  0
  -92.6437   23.4510   -3.8789 F   0  0  0  0  0  0  0  0  0  0  0  0
  -86.7913   33.1014   -2.6720 C   0  0  0  0  0  0  0  0  0  0  0  0
  -85.6637   33.5508   -2.1996 O   0  0  0  0  0  0  0  0  0  0  0  0
  -87.3969   33.9619   -3.6865 C   0  0  0  0  0  0  0  0  0  0  0  0
  -87.8419   33.4841   -4.7338 O   0  0  0  0  0  0  0  0  0  0  0  0
  -87.4228   35.3456   -3.3174 N   0  0  0  0  0  0  0  0  0  0  0  0
  -87.0402   35.5648   -2.3313 H   0  0  0  0  0  0  0  0  0  0  0  0
  -87.9153   36.4178   -4.0972 C   0  0  0  0  0  0  0  0  0  0  0  0
  -89.3371   36.8848   -3.8740 C   0  0  0  0  0  0  0  0  0  0  0  0
  -88.2738   37.6230   -3.1828 C   0  0  0  0  0  0  0  0  0  0  0  0
  -87.2425   36.8987   -5.3238 C   0  0  0  0  0  0  0  0  0  0  0  0
  -87.5715   36.5714   -6.6520 C   0  0  0  0  0  0  0  0  0  0  0  0
  -86.7088   37.1633   -7.4969 N   0  0  0  0  0  0  0  0  0  0  0  0
  -85.8637   37.8444   -6.7572 N   0  0  0  0  0  0  0  0  0  0  0  0
  -86.1716   37.6921   -5.4498 N   0  0  0  0  0  0  0  0  0  0  0  0
  -86.7747   37.0524   -8.5279 H   0  0  0  0  0  0  0  0  0  0  0  0
  1  2  1  0  0  0
  2  3  1  0  0  0
  3 24  1  0  0  0
 24 25  2  0  0  0
 24 26  1  0  0  0
 26 27  2  0  0  0
 26 28  1  0  0  0
 28 30  1  0  0  0
 30 31  1  0  0  0
 31 32  1  0  0  0
 30 33  1  0  0  0
 33 34  2  0  0  0
 34 35  1  0  0  0
 35 36  1  0  0  0
 36 37  2  0  0  0
  3  4  2  0  0  0
  4  5  1  0  0  0
  5  6  1  0  0  0
  6  7  1  0  0  0
  7  8  1  0  0  0
  8  9  1  0  0  0
  9 10  1  0  0  0
 10 11  2  0  0  0
 10 12  1  0  0  0
 12 14  1  0  0  0
 14 15  2  0  0  0
 15 16  1  0  0  0
 16 17  2  0  0  0
 17 18  1  0  0  0
 17 19  1  0  0  0
 19 20  2  0  0  0
 19 21  1  0  0  0
 21 22  1  0  0  0
 21 23  1  0  0  0
  9  2  2  0  0  0
 20 14  1  0  0  0
 32 30  1  0  0  0
 37 33  1  0  0  0
  8  4  1  0  0  0
 28 29  1  0  0  0
 35 38  1  0  0  0
 12 13  1  0  0  0
M  END
> <minimizedAffinity>
-8.45408

> <CNNscore>
0.0763481408

> <CNNaffinity>
5.9769277573

> <CNN_VS>
0.4563273191

> <CNNaffinity_variance>
0.1664690077

$$$$
[H]c1c([H])c([H])c2c(c1[H])c1c3c(c4c5c([H])c([H])c([H])c([H])c5n5c4c1n2[C@@]1(C([H])([H])[H])O[C@]5([H])C([H])([H])[C@]([H])(N([H])C([H])([H])[H])[C@@]1([H])OC([H])([H])[H])C(=O)N([H])C3([H])[H]


 37 44  0  0  0  0  0  0  0  0999 V2000
  -89.0160   28.4850   -2.0026 C   0  0  0  0  0  0  0  0  0  0  0  0
  -89.7864   29.7893   -2.2122 C   0  0  0  0  0  0  0  0  0  0  0  0
  -89.8039   30.6043   -0.9587 C   0  0  0  0  0  0  0  0  0  0  0  0
  -89.8028   29.9900    0.1948 O   0  0  0  0  0  0  0  0  0  0  0  0
  -89.1873   28.7668    0.4124 C   0  0  0  0  0  0  0  0  0  0  0  0
  -89.8144   28.3220    1.7224 C   0  0  0  0  0  0  0  0  0  0  0  0
  -89.5349   27.8857   -0.7459 C   0  0  0  0  0  0  0  0  0  0  0  0
  -87.7574   29.0339    0.5878 N   0  0  0  0  0  0  0  0  0  0  0  0
  -86.8754   28.2735    1.2618 C   0  0  0  0  0  0  0  0  0  0  0  0
  -86.9733   27.0878    1.9113 C   0  0  0  0  0  0  0  0  0  0  0  0
  -85.8932   26.5027    2.5383 C   0  0  0  0  0  0  0  0  0  0  0  0
  -84.6381   27.0957    2.5408 C   0  0  0  0  0  0  0  0  0  0  0  0
  -84.5236   28.3005    1.8844 C   0  0  0  0  0  0  0  0  0  0  0  0
  -85.6062   28.8695    1.2660 C   0  0  0  0  0  0  0  0  0  0  0  0
  -85.7294   30.0307    0.5673 C   0  0  0  0  0  0  0  0  0  0  0  0
  -84.8238   31.0257    0.2504 C   0  0  0  0  0  0  0  0  0  0  0  0
  -83.3774   31.1567    0.5698 C   0  0  0  0  0  0  0  0  0  0  0  0
  -82.9403   32.3864   -0.0000 N   0  0  0  0  0  0  0  0  0  0  0  0
  -84.0424   33.0088   -0.6581 C   0  0  0  0  0  0  0  0  0  0  0  0
  -83.9229   34.0882   -1.2373 O   0  0  0  0  0  0  0  0  0  0  0  0
  -85.1975   32.1543   -0.4934 C   0  0  0  0  0  0  0  0  0  0  0  0
  -86.5203   32.2112   -0.8903 C   0  0  0  0  0  0  0  0  0  0  0  0
  -87.2633   33.1194   -1.6290 C   0  0  0  0  0  0  0  0  0  0  0  0
  -86.9550   34.2970   -2.2187 C   0  0  0  0  0  0  0  0  0  0  0  0
  -87.9541   35.0011   -2.9127 C   0  0  0  0  0  0  0  0  0  0  0  0
  -89.2206   34.4945   -2.9862 C   0  0  0  0  0  0  0  0  0  0  0  0
  -89.5659   33.2996   -2.3970 C   0  0  0  0  0  0  0  0  0  0  0  0
  -88.5717   32.6290   -1.7238 C   0  0  0  0  0  0  0  0  0  0  0  0
  -88.6197   31.4766   -1.0721 N   0  0  0  0  0  0  0  0  0  0  0  0
  -87.4131   31.1966   -0.5591 C   0  0  0  0  0  0  0  0  0  0  0  0
  -87.0256   30.0911    0.1789 C   0  0  0  0  0  0  0  0  0  0  0  0
  -81.9610   32.7509    0.0684 H   0  0  0  0  0  0  0  0  0  0  0  0
  -90.2558   27.0772   -3.5534 C   0  0  0  0  0  0  0  0  0  0  0  0
  -89.0382   27.6799   -3.1664 N   0  0  0  0  0  0  0  0  0  0  0  0
  -88.5118   28.0393   -3.9720 H   0  0  0  0  0  0  0  0  0  0  0  0
  -89.0969   26.5965   -0.6527 O   0  0  0  0  0  0  0  0  0  0  0  0
  -89.9688   25.6068   -0.3071 C   0  0  0  0  0  0  0  0  0  0  0  0
 33 34  1  0  0  0
 34  1  1  0  0  0
  1  2  1  0  0  0
  2  3  1  0  0  0
  3  4  1  0  0  0
  4  5  1  0  0  0
  5  6  1  0  0  0
  5  7  1  0  0  0
  7 36  1  0  0  0
 36 37  1  0  0  0
  5  8  1  0  0  0
  8  9  1  0  0  0
  9 10  2  0  0  0
 10 11  1  0  0  0
 11 12  2  0  0  0
 12 13  1  0  0  0
 13 14  2  0  0  0
 14 15  1  0  0  0
 15 16  2  0  0  0
 16 17  1  0  0  0
 17 18  1  0  0  0
 18 19  1  0  0  0
 19 20  2  0  0  0
 19 21  1  0  0  0
 21 22  2  0  0  0
 22 23  1  0  0  0
 23 24  2  0  0  0
 24 25  1  0  0  0
 25 26  2  0  0  0
 26 27  1  0  0  0
 27 28  2  0  0  0
 28 29  1  0  0  0
 29 30  1  0  0  0
 30 31  2  0  0  0
  7  1  1  0  0  0
 31  8  1  0  0  0
 29  3  1  0  0  0
 14  9  1  0  0  0
 31 15  1  0  0  0
 21 16  1  0  0  0
 30 22  1  0  0  0
 28 23  1  0  0  0
 34 35  1  0  0  0
 18 32  1  0  0  0
M  END
> <minimizedAffinity>
-10.02935

> <CNNscore>
0.4719638228

> <CNNaffinity>
6.8046355247

> <CNN_VS>
3.2115418911

> <CNNaffinity_variance>
0.1595340669

$$$$
[H]c1c([H])c([H])c2c(c1[H])c1c3c(c4c5c([H])c([H])c([H])c([H])c5n5c4c1n2[C@@]1(C([H])([H])[H])O[C@]5([H])C([H])([H])[C@]([H])(N([H])C([H])([H])[H])[C@@]1([H])OC([H])([H])[H])C(=O)N([H])C3([H])[H]


 37 44  0  0  0  0  0  0  0  0999 V2000
  -90.1922   29.4464   -2.2086 C   0  0  0  0  0  0  0  0  0  0  0  0
  -90.5203   30.9321   -2.3631 C   0  0  0  0  0  0  0  0  0  0  0  0
  -90.2789   31.6662   -1.0830 C   0  0  0  0  0  0  0  0  0  0  0  0
  -90.4641   31.0405    0.0492 O   0  0  0  0  0  0  0  0  0  0  0  0
  -90.2580   29.6795    0.2167 C   0  0  0  0  0  0  0  0  0  0  0  0
  -90.9871   29.4039    1.5204 C   0  0  0  0  0  0  0  0  0  0  0  0
  -90.8666   28.9924   -0.9649 C   0  0  0  0  0  0  0  0  0  0  0  0
  -88.8152   29.4834    0.3795 N   0  0  0  0  0  0  0  0  0  0  0  0
  -88.2103   28.4629    1.0144 C   0  0  0  0  0  0  0  0  0  0  0  0
  -88.6690   27.3434    1.6255 C   0  0  0  0  0  0  0  0  0  0  0  0
  -87.8215   26.4297    2.2164 C   0  0  0  0  0  0  0  0  0  0  0  0
  -86.4443   26.6036    2.2198 C   0  0  0  0  0  0  0  0  0  0  0  0
  -85.9639   27.7365    1.6022 C   0  0  0  0  0  0  0  0  0  0  0  0
  -86.8188   28.6353    1.0194 C   0  0  0  0  0  0  0  0  0  0  0  0
  -86.5780   29.8020    0.3617 C   0  0  0  0  0  0  0  0  0  0  0  0
  -85.4094   30.4778    0.0645 C   0  0  0  0  0  0  0  0  0  0  0  0
  -83.9927   30.1420    0.3664 C   0  0  0  0  0  0  0  0  0  0  0  0
  -83.1976   31.1953   -0.1687 N   0  0  0  0  0  0  0  0  0  0  0  0
  -84.0544   32.1523   -0.7891 C   0  0  0  0  0  0  0  0  0  0  0  0
  -83.6079   33.1617   -1.3338 O   0  0  0  0  0  0  0  0  0  0  0  0
  -85.4171   31.6929   -0.6356 C   0  0  0  0  0  0  0  0  0  0  0  0
  -86.6584   32.1717   -1.0105 C   0  0  0  0  0  0  0  0  0  0  0  0
  -87.0856   33.2918   -1.7073 C   0  0  0  0  0  0  0  0  0  0  0  0
  -86.4291   34.3362   -2.2620 C   0  0  0  0  0  0  0  0  0  0  0  0
  -87.1629   35.3402   -2.9171 C   0  0  0  0  0  0  0  0  0  0  0  0
  -88.5244   35.2545   -2.9884 C   0  0  0  0  0  0  0  0  0  0  0  0
  -89.2213   34.2051   -2.4342 C   0  0  0  0  0  0  0  0  0  0  0  0
  -88.4819   33.2352   -1.7987 C   0  0  0  0  0  0  0  0  0  0  0  0
  -88.8828   32.1317   -1.1850 N   0  0  0  0  0  0  0  0  0  0  0  0
  -87.8208   31.4728   -0.6998 C   0  0  0  0  0  0  0  0  0  0  0  0
  -87.7929   30.2756   -0.0050 C   0  0  0  0  0  0  0  0  0  0  0  0
  -82.1532   31.2352   -0.1029 H   0  0  0  0  0  0  0  0  0  0  0  0
  -90.8292   29.4522   -4.5577 C   0  0  0  0  0  0  0  0  0  0  0  0
  -90.4679   28.7307   -3.3980 N   0  0  0  0  0  0  0  0  0  0  0  0
  -89.8346   27.9502   -3.6104 H   0  0  0  0  0  0  0  0  0  0  0  0
  -90.8502   27.6285   -0.9213 O   0  0  0  0  0  0  0  0  0  0  0  0
  -90.0100   26.9333   -1.7397 C   0  0  0  0  0  0  0  0  0  0  0  0
 33 34  1  0  0  0
 34  1  1  0  0  0
  1  2  1  0  0  0
  2  3  1  0  0  0
  3  4  1  0  0  0
  4  5  1  0  0  0
  5  6  1  0  0  0
  5  7  1  0  0  0
  7 36  1  0  0  0
 36 37  1  0  0  0
  5  8  1  0  0  0
  8  9  1  0  0  0
  9 10  2  0  0  0
 10 11  1  0  0  0
 11 12  2  0  0  0
 12 13  1  0  0  0
 13 14  2  0  0  0
 14 15  1  0  0  0
 15 16  2  0  0  0
 16 17  1  0  0  0
 17 18  1  0  0  0
 18 19  1  0  0  0
 19 20  2  0  0  0
 19 21  1  0  0  0
 21 22  2  0  0  0
 22 23  1  0  0  0
 23 24  2  0  0  0
 24 25  1  0  0  0
 25 26  2  0  0  0
 26 27  1  0  0  0
 27 28  2  0  0  0
 28 29  1  0  0  0
 29 30  1  0  0  0
 30 31  2  0  0  0
  7  1  1  0  0  0
 31  8  1  0  0  0
 29  3  1  0  0  0
 14  9  1  0  0  0
 31 15  1  0  0  0
 21 16  1  0  0  0
 30 22  1  0  0  0
 28 23  1  0  0  0
 34 35  1  0  0  0
 18 32  1  0  0  0
M  END
> <minimizedAffinity>
-8.00851

> <CNNscore>
0.4039623439

> <CNNaffinity>
6.5644521713

> <CNN_VS>
2.6517915726

> <CNNaffinity_variance>
0.1722168922

$$$$
[H]c1c([H])c([H])c2c(c1[H])c1c3c(c4c5c([H])c([H])c([H])c([H])c5n5c4c1n2[C@@]1(C([H])([H])[H])O[C@]5([H])C([H])([H])[C@]([H])(N([H])C([H])([H])[H])[C@@]1([H])OC([H])([H])[H])C(=O)N([H])C3([H])[H]


 37 44  0  0  0  0  0  0  0  0999 V2000
  -89.6709   27.6089   -1.9888 C   0  0  0  0  0  0  0  0  0  0  0  0
  -90.8812   28.4576   -2.3808 C   0  0  0  0  0  0  0  0  0  0  0  0
  -91.1181   29.5416   -1.3785 C   0  0  0  0  0  0  0  0  0  0  0  0
  -90.8150   29.3220   -0.1263 O   0  0  0  0  0  0  0  0  0  0  0  0
  -89.7777   28.4960    0.2789 C   0  0  0  0  0  0  0  0  0  0  0  0
  -90.1095   28.2609    1.7424 C   0  0  0  0  0  0  0  0  0  0  0  0
  -89.8486   27.2566   -0.5564 C   0  0  0  0  0  0  0  0  0  0  0  0
  -88.5402   29.2691    0.1468 N   0  0  0  0  0  0  0  0  0  0  0  0
  -87.3978   29.0788    0.8316 C   0  0  0  0  0  0  0  0  0  0  0  0
  -87.0076   28.1692    1.7576 C   0  0  0  0  0  0  0  0  0  0  0  0
  -85.7494   28.1896    2.3224 C   0  0  0  0  0  0  0  0  0  0  0  0
  -84.8057   29.1461    1.9742 C   0  0  0  0  0  0  0  0  0  0  0  0
  -85.1881   30.0767    1.0342 C   0  0  0  0  0  0  0  0  0  0  0  0
  -86.4420   30.0434    0.4821 C   0  0  0  0  0  0  0  0  0  0  0  0
  -87.0312   30.8423   -0.4487 C   0  0  0  0  0  0  0  0  0  0  0  0
  -86.5807   31.9495   -1.1429 C   0  0  0  0  0  0  0  0  0  0  0  0
  -85.2682   32.6475   -1.1069 C   0  0  0  0  0  0  0  0  0  0  0  0
  -85.3552   33.7341   -2.0231 N   0  0  0  0  0  0  0  0  0  0  0  0
  -86.6494   33.7308   -2.6230 C   0  0  0  0  0  0  0  0  0  0  0  0
  -86.9758   34.5728   -3.4594 O   0  0  0  0  0  0  0  0  0  0  0  0
  -87.3929   32.6216   -2.0676 C   0  0  0  0  0  0  0  0  0  0  0  0
  -88.6655   32.1116   -2.2438 C   0  0  0  0  0  0  0  0  0  0  0  0
  -89.7381   32.4628   -3.0494 C   0  0  0  0  0  0  0  0  0  0  0  0
  -89.9264   33.4535   -3.9508 C   0  0  0  0  0  0  0  0  0  0  0  0
  -91.1578   33.5479   -4.6218 C   0  0  0  0  0  0  0  0  0  0  0  0
  -92.1487   32.6446   -4.3607 C   0  0  0  0  0  0  0  0  0  0  0  0
  -91.9882   31.6257   -3.4496 C   0  0  0  0  0  0  0  0  0  0  0  0
  -90.7752   31.5537   -2.8058 C   0  0  0  0  0  0  0  0  0  0  0  0
  -90.3509   30.6913   -1.8939 N   0  0  0  0  0  0  0  0  0  0  0  0
  -89.0959   30.9953   -1.5333 C   0  0  0  0  0  0  0  0  0  0  0  0
  -88.2798   30.3469   -0.6220 C   0  0  0  0  0  0  0  0  0  0  0  0
  -84.5782   34.4115   -2.2073 H   0  0  0  0  0  0  0  0  0  0  0  0
  -90.5718   25.7412   -3.2632 C   0  0  0  0  0  0  0  0  0  0  0  0
  -89.4687   26.5461   -2.9013 N   0  0  0  0  0  0  0  0  0  0  0  0
  -88.8606   26.7515   -3.7034 H   0  0  0  0  0  0  0  0  0  0  0  0
  -88.9594   26.2758   -0.2248 O   0  0  0  0  0  0  0  0  0  0  0  0
  -89.4122   25.0867    0.2654 C   0  0  0  0  0  0  0  0  0  0  0  0
 33 34  1  0  0  0
 34  1  1  0  0  0
  1  2  1  0  0  0
  2  3  1  0  0  0
  3  4  1  0  0  0
  4  5  1  0  0  0
  5  6  1  0  0  0
  5  7  1  0  0  0
  7 36  1  0  0  0
 36 37  1  0  0  0
  5  8  1  0  0  0
  8  9  1  0  0  0
  9 10  2  0  0  0
 10 11  1  0  0  0
 11 12  2  0  0  0
 12 13  1  0  0  0
 13 14  2  0  0  0
 14 15  1  0  0  0
 15 16  2  0  0  0
 16 17  1  0  0  0
 17 18  1  0  0  0
 18 19  1  0  0  0
 19 20  2  0  0  0
 19 21  1  0  0  0
 21 22  2  0  0  0
 22 23  1  0  0  0
 23 24  2  0  0  0
 24 25  1  0  0  0
 25 26  2  0  0  0
 26 27  1  0  0  0
 27 28  2  0  0  0
 28 29  1  0  0  0
 29 30  1  0  0  0
 30 31  2  0  0  0
  7  1  1  0  0  0
 31  8  1  0  0  0
 29  3  1  0  0  0
 14  9  1  0  0  0
 31 15  1  0  0  0
 21 16  1  0  0  0
 30 22  1  0  0  0
 28 23  1  0  0  0
 34 35  1  0  0  0
 18 32  1  0  0  0
M  END
> <minimizedAffinity>
-9.75240

> <CNNscore>
0.1597932726

> <CNNaffinity>
6.0026302338

> <CNN_VS>
0.9591799378

> <CNNaffinity_variance>
0.4236328602

$$$$
[H]c1c([H])c([H])c2c(c1[H])c1c3c(c4c5c([H])c([H])c([H])c([H])c5n5c4c1n2[C@@]1(C([H])([H])[H])O[C@]5([H])C([H])([H])[C@]([H])(N([H])C([H])([H])[H])[C@@]1([H])OC([H])([H])[H])C(=O)N([H])C3([H])[H]


 37 44  0  0  0  0  0  0  0  0999 V2000
  -90.3376   29.0338    0.7466 C   0  0  0  0  0  0  0  0  0  0  0  0
  -89.3425   27.9275    1.0996 C   0  0  0  0  0  0  0  0  0  0  0  0
  -88.4227   27.6534   -0.0469 C   0  0  0  0  0  0  0  0  0  0  0  0
  -88.8685   27.8070   -1.2657 O   0  0  0  0  0  0  0  0  0  0  0  0
  -89.8298   28.7416   -1.6194 C   0  0  0  0  0  0  0  0  0  0  0  0
  -90.2751   28.2418   -2.9828 C   0  0  0  0  0  0  0  0  0  0  0  0
  -90.9053   28.6828   -0.5809 C   0  0  0  0  0  0  0  0  0  0  0  0
  -89.1463   30.0320   -1.7394 N   0  0  0  0  0  0  0  0  0  0  0  0
  -89.5368   31.0809   -2.4863 C   0  0  0  0  0  0  0  0  0  0  0  0
  -90.6145   31.3126   -3.2751 C   0  0  0  0  0  0  0  0  0  0  0  0
  -90.7873   32.5023   -3.9513 C   0  0  0  0  0  0  0  0  0  0  0  0
  -89.8646   33.5356   -3.8631 C   0  0  0  0  0  0  0  0  0  0  0  0
  -88.7648   33.3144   -3.0649 C   0  0  0  0  0  0  0  0  0  0  0  0
  -88.6071   32.1269   -2.3993 C   0  0  0  0  0  0  0  0  0  0  0  0
  -87.6217   31.6912   -1.5680 C   0  0  0  0  0  0  0  0  0  0  0  0
  -86.4548   32.2813   -1.1198 C   0  0  0  0  0  0  0  0  0  0  0  0
  -85.8789   33.6235   -1.3989 C   0  0  0  0  0  0  0  0  0  0  0  0
  -84.6530   33.7027   -0.6787 N   0  0  0  0  0  0  0  0  0  0  0  0
  -84.4547   32.4820    0.0324 C   0  0  0  0  0  0  0  0  0  0  0  0
  -83.4634   32.2999    0.7390 O   0  0  0  0  0  0  0  0  0  0  0  0
  -85.5774   31.6158   -0.2516 C   0  0  0  0  0  0  0  0  0  0  0  0
  -85.9486   30.3399    0.1289 C   0  0  0  0  0  0  0  0  0  0  0  0
  -85.3857   29.3833    0.9600 C   0  0  0  0  0  0  0  0  0  0  0  0
  -84.2484   29.3543    1.6916 C   0  0  0  0  0  0  0  0  0  0  0  0
  -83.9474   28.2097    2.4498 C   0  0  0  0  0  0  0  0  0  0  0  0
  -84.7996   27.1421    2.4424 C   0  0  0  0  0  0  0  0  0  0  0  0
  -85.9639   27.1407    1.7086 C   0  0  0  0  0  0  0  0  0  0  0  0
  -86.2370   28.2714    0.9750 C   0  0  0  0  0  0  0  0  0  0  0  0
  -87.2686   28.5414    0.1887 N   0  0  0  0  0  0  0  0  0  0  0  0
  -87.1288   29.7674   -0.3356 C   0  0  0  0  0  0  0  0  0  0  0  0
  -87.9809   30.4396   -1.1951 C   0  0  0  0  0  0  0  0  0  0  0  0
  -84.0185   34.5357   -0.6878 H   0  0  0  0  0  0  0  0  0  0  0  0
  -91.1085   28.5219    2.9977 C   0  0  0  0  0  0  0  0  0  0  0  0
  -91.2486   29.2653    1.8046 N   0  0  0  0  0  0  0  0  0  0  0  0
  -91.4855   30.2481    1.9873 H   0  0  0  0  0  0  0  0  0  0  0  0
  -91.9949   29.4686   -0.8217 O   0  0  0  0  0  0  0  0  0  0  0  0
  -93.0036   29.0059   -1.6139 C   0  0  0  0  0  0  0  0  0  0  0  0
 33 34  1  0  0  0
 34  1  1  0  0  0
  1  2  1  0  0  0
  2  3  1  0  0  0
  3  4  1  0  0  0
  4  5  1  0  0  0
  5  6  1  0  0  0
  5  7  1  0  0  0
  7 36  1  0  0  0
 36 37  1  0  0  0
  5  8  1  0  0  0
  8  9  1  0  0  0
  9 10  2  0  0  0
 10 11  1  0  0  0
 11 12  2  0  0  0
 12 13  1  0  0  0
 13 14  2  0  0  0
 14 15  1  0  0  0
 15 16  2  0  0  0
 16 17  1  0  0  0
 17 18  1  0  0  0
 18 19  1  0  0  0
 19 20  2  0  0  0
 19 21  1  0  0  0
 21 22  2  0  0  0
 22 23  1  0  0  0
 23 24  2  0  0  0
 24 25  1  0  0  0
 25 26  2  0  0  0
 26 27  1  0  0  0
 27 28  2  0  0  0
 28 29  1  0  0  0
 29 30  1  0  0  0
 30 31  2  0  0  0
  7  1  1  0  0  0
 31  8  1  0  0  0
 29  3  1  0  0  0
 14  9  1  0  0  0
 31 15  1  0  0  0
 21 16  1  0  0  0
 30 22  1  0  0  0
 28 23  1  0  0  0
 34 35  1  0  0  0
 18 32  1  0  0  0
M  END
> <minimizedAffinity>
-11.01507

> <CNNscore>
0.1292313784

> <CNNaffinity>
6.3177862167

> <CNN_VS>
0.8164561987

> <CNNaffinity_variance>
0.4608975053

$$$$
[H]c1c([H])c([H])c2c(c1[H])c1c3c(c4c5c([H])c([H])c([H])c([H])c5n5c4c1n2[C@@]1(C([H])([H])[H])O[C@]5([H])C([H])([H])[C@]([H])(N([H])C([H])([H])[H])[C@@]1([H])OC([H])([H])[H])C(=O)N([H])C3([H])[H]


 37 44  0  0  0  0  0  0  0  0999 V2000
  -88.1587   30.2528   -2.6271 C   0  0  0  0  0  0  0  0  0  0  0  0
  -87.5376   31.6269   -2.3730 C   0  0  0  0  0  0  0  0  0  0  0  0
  -87.6943   32.0251   -0.9403 C   0  0  0  0  0  0  0  0  0  0  0  0
  -88.7496   31.6211   -0.2837 O   0  0  0  0  0  0  0  0  0  0  0  0
  -89.3959   30.4201   -0.5336 C   0  0  0  0  0  0  0  0  0  0  0  0
  -90.7293   30.6233    0.1647 C   0  0  0  0  0  0  0  0  0  0  0  0
  -89.5140   30.2833   -2.0189 C   0  0  0  0  0  0  0  0  0  0  0  0
  -88.6184   29.3710    0.1310 N   0  0  0  0  0  0  0  0  0  0  0  0
  -89.0772   28.1803    0.5580 C   0  0  0  0  0  0  0  0  0  0  0  0
  -90.2852   27.5693    0.4906 C   0  0  0  0  0  0  0  0  0  0  0  0
  -90.5034   26.3137    1.0183 C   0  0  0  0  0  0  0  0  0  0  0  0
  -89.4951   25.5999    1.6511 C   0  0  0  0  0  0  0  0  0  0  0  0
  -88.2623   26.2082    1.7267 C   0  0  0  0  0  0  0  0  0  0  0  0
  -88.0610   27.4563    1.1976 C   0  0  0  0  0  0  0  0  0  0  0  0
  -86.9495   28.2401    1.1521 C   0  0  0  0  0  0  0  0  0  0  0  0
  -85.6625   28.0566    1.6216 C   0  0  0  0  0  0  0  0  0  0  0  0
  -85.0489   26.9105    2.3436 C   0  0  0  0  0  0  0  0  0  0  0  0
  -83.6907   27.2600    2.5907 N   0  0  0  0  0  0  0  0  0  0  0  0
  -83.4408   28.5560    2.0496 C   0  0  0  0  0  0  0  0  0  0  0  0
  -82.3330   29.0865    2.1292 O   0  0  0  0  0  0  0  0  0  0  0  0
  -84.6697   29.0329    1.4548 C   0  0  0  0  0  0  0  0  0  0  0  0
  -85.0534   30.1847    0.7939 C   0  0  0  0  0  0  0  0  0  0  0  0
  -84.3915   31.3453    0.4232 C   0  0  0  0  0  0  0  0  0  0  0  0
  -83.1200   31.7739    0.5934 C   0  0  0  0  0  0  0  0  0  0  0  0
  -82.7450   33.0316    0.0903 C   0  0  0  0  0  0  0  0  0  0  0  0
  -83.6611   33.8068   -0.5623 C   0  0  0  0  0  0  0  0  0  0  0  0
  -84.9620   33.3993   -0.7514 C   0  0  0  0  0  0  0  0  0  0  0  0
  -85.3052   32.1654   -0.2506 C   0  0  0  0  0  0  0  0  0  0  0  0
  -86.4678   31.5311   -0.2863 N   0  0  0  0  0  0  0  0  0  0  0  0
  -86.3555   30.3459    0.3302 C   0  0  0  0  0  0  0  0  0  0  0  0
  -87.3227   29.3713    0.5073 C   0  0  0  0  0  0  0  0  0  0  0  0
  -83.0072   26.6448    3.0917 H   0  0  0  0  0  0  0  0  0  0  0  0
  -88.0621   30.9077   -4.9692 C   0  0  0  0  0  0  0  0  0  0  0  0
  -88.0645   29.8882   -3.9913 N   0  0  0  0  0  0  0  0  0  0  0  0
  -87.3961   29.1398   -4.2118 H   0  0  0  0  0  0  0  0  0  0  0  0
  -90.2218   29.2000   -2.4525 O   0  0  0  0  0  0  0  0  0  0  0  0
  -91.3625   29.3803   -3.1774 C   0  0  0  0  0  0  0  0  0  0  0  0
 33 34  1  0  0  0
 34  1  1  0  0  0
  1  2  1  0  0  0
  2  3  1  0  0  0
  3  4  1  0  0  0
  4  5  1  0  0  0
  5  6  1  0  0  0
  5  7  1  0  0  0
  7 36  1  0  0  0
 36 37  1  0  0  0
  5  8  1  0  0  0
  8  9  1  0  0  0
  9 10  2  0  0  0
 10 11  1  0  0  0
 11 12  2  0  0  0
 12 13  1  0  0  0
 13 14  2  0  0  0
 14 15  1  0  0  0
 15 16  2  0  0  0
 16 17  1  0  0  0
 17 18  1  0  0  0
 18 19  1  0  0  0
 19 20  2  0  0  0
 19 21  1  0  0  0
 21 22  2  0  0  0
 22 23  1  0  0  0
 23 24  2  0  0  0
 24 25  1  0  0  0
 25 26  2  0  0  0
 26 27  1  0  0  0
 27 28  2  0  0  0
 28 29  1  0  0  0
 29 30  1  0  0  0
 30 31  2  0  0  0
  7  1  1  0  0  0
 31  8  1  0  0  0
 29  3  1  0  0  0
 14  9  1  0  0  0
 31 15  1  0  0  0
 21 16  1  0  0  0
 30 22  1  0  0  0
 28 23  1  0  0  0
 34 35  1  0  0  0
 18 32  1  0  0  0
M  END
> <minimizedAffinity>
-10.72346

> <CNNscore>
0.1156611070

> <CNNaffinity>
6.3337059021

> <CNN_VS>
0.7325634360

> <CNNaffinity_variance>
0.2992754579

$$$$
[H]c1c([H])c([H])c2c(c1[H])c1c3c(c4c5c([H])c([H])c([H])c([H])c5n5c4c1n2[C@@]1(C([H])([H])[H])O[C@]5([H])C([H])([H])[C@]([H])(N([H])C([H])([H])[H])[C@@]1([H])OC([H])([H])[H])C(=O)N([H])C3([H])[H]


 37 44  0  0  0  0  0  0  0  0999 V2000
  -89.7292   27.1868    1.4632 C   0  0  0  0  0  0  0  0  0  0  0  0
  -88.3384   26.6649    1.8262 C   0  0  0  0  0  0  0  0  0  0  0  0
  -87.4758   26.5579    0.6096 C   0  0  0  0  0  0  0  0  0  0  0  0
  -88.0334   26.2739   -0.5377 O   0  0  0  0  0  0  0  0  0  0  0  0
  -89.3216   26.6557   -0.8805 C   0  0  0  0  0  0  0  0  0  0  0  0
  -89.6150   25.7584   -2.0703 C   0  0  0  0  0  0  0  0  0  0  0  0
  -90.1932   26.3810    0.3043 C   0  0  0  0  0  0  0  0  0  0  0  0
  -89.2544   28.0593   -1.2953 N   0  0  0  0  0  0  0  0  0  0  0  0
  -90.1034   28.6927   -2.1250 C   0  0  0  0  0  0  0  0  0  0  0  0
  -91.2336   28.3122   -2.7693 C   0  0  0  0  0  0  0  0  0  0  0  0
  -91.9395   29.1726   -3.5840 C   0  0  0  0  0  0  0  0  0  0  0  0
  -91.5326   30.4832   -3.7923 C   0  0  0  0  0  0  0  0  0  0  0  0
  -90.3861   30.8840   -3.1438 C   0  0  0  0  0  0  0  0  0  0  0  0
  -89.6955   30.0173   -2.3375 C   0  0  0  0  0  0  0  0  0  0  0  0
  -88.5599   30.1870   -1.6071 C   0  0  0  0  0  0  0  0  0  0  0  0
  -87.7193   31.2705   -1.4334 C   0  0  0  0  0  0  0  0  0  0  0  0
  -87.7829   32.6458   -1.9953 C   0  0  0  0  0  0  0  0  0  0  0  0
  -86.6543   33.3500   -1.4873 N   0  0  0  0  0  0  0  0  0  0  0  0
  -85.9096   32.4790   -0.6377 C   0  0  0  0  0  0  0  0  0  0  0  0
  -84.8845   32.8530   -0.0683 O   0  0  0  0  0  0  0  0  0  0  0  0
  -86.5821   31.1988   -0.6160 C   0  0  0  0  0  0  0  0  0  0  0  0
  -86.3538   29.9849    0.0044 C   0  0  0  0  0  0  0  0  0  0  0  0
  -85.3814   29.5197    0.8766 C   0  0  0  0  0  0  0  0  0  0  0  0
  -84.2867   30.0940    1.4255 C   0  0  0  0  0  0  0  0  0  0  0  0
  -83.4777   29.3415    2.2942 C   0  0  0  0  0  0  0  0  0  0  0  0
  -83.8005   28.0445    2.5761 C   0  0  0  0  0  0  0  0  0  0  0  0
  -84.9071   27.4317    2.0338 C   0  0  0  0  0  0  0  0  0  0  0  0
  -85.6832   28.1878    1.1870 C   0  0  0  0  0  0  0  0  0  0  0  0
  -86.7877   27.8605    0.5326 N   0  0  0  0  0  0  0  0  0  0  0  0
  -87.2149   28.9086   -0.1860 C   0  0  0  0  0  0  0  0  0  0  0  0
  -88.3315   28.9981   -0.9997 C   0  0  0  0  0  0  0  0  0  0  0  0
  -86.4310   34.3469   -1.7172 H   0  0  0  0  0  0  0  0  0  0  0  0
  -91.0815   28.4941    3.0080 C   0  0  0  0  0  0  0  0  0  0  0  0
  -90.5724   27.2415    2.5985 N   0  0  0  0  0  0  0  0  0  0  0  0
  -91.2751   26.4958    2.6733 H   0  0  0  0  0  0  0  0  0  0  0  0
  -91.5265   26.6009    0.1135 O   0  0  0  0  0  0  0  0  0  0  0  0
  -92.3608   25.5488   -0.1234 C   0  0  0  0  0  0  0  0  0  0  0  0
 33 34  1  0  0  0
 34  1  1  0  0  0
  1  2  1  0  0  0
  2  3  1  0  0  0
  3  4  1  0  0  0
  4  5  1  0  0  0
  5  6  1  0  0  0
  5  7  1  0  0  0
  7 36  1  0  0  0
 36 37  1  0  0  0
  5  8  1  0  0  0
  8  9  1  0  0  0
  9 10  2  0  0  0
 10 11  1  0  0  0
 11 12  2  0  0  0
 12 13  1  0  0  0
 13 14  2  0  0  0
 14 15  1  0  0  0
 15 16  2  0  0  0
 16 17  1  0  0  0
 17 18  1  0  0  0
 18 19  1  0  0  0
 19 20  2  0  0  0
 19 21  1  0  0  0
 21 22  2  0  0  0
 22 23  1  0  0  0
 23 24  2  0  0  0
 24 25  1  0  0  0
 25 26  2  0  0  0
 26 27  1  0  0  0
 27 28  2  0  0  0
 28 29  1  0  0  0
 29 30  1  0  0  0
 30 31  2  0  0  0
  7  1  1  0  0  0
 31  8  1  0  0  0
 29  3  1  0  0  0
 14  9  1  0  0  0
 31 15  1  0  0  0
 21 16  1  0  0  0
 30 22  1  0  0  0
 28 23  1  0  0  0
 34 35  1  0  0  0
 18 32  1  0  0  0
M  END
> <minimizedAffinity>
-11.51552

> <CNNscore>
0.0850369036

> <CNNaffinity>
6.1121449471

> <CNN_VS>
0.5197578669

> <CNNaffinity_variance>
0.4789687991

$$$$
[H]c1c([H])c([H])c2c(c1[H])c1c3c(c4c5c([H])c([H])c([H])c([H])c5n5c4c1n2[C@@]1(C([H])([H])[H])O[C@]5([H])C([H])([H])[C@]([H])(N([H])C([H])([H])[H])[C@@]1([H])OC([H])([H])[H])C(=O)N([H])C3([H])[H]


 37 44  0  0  0  0  0  0  0  0999 V2000
  -89.4361   25.0944   -1.6773 C   0  0  0  0  0  0  0  0  0  0  0  0
  -90.0940   26.4403   -1.9848 C   0  0  0  0  0  0  0  0  0  0  0  0
  -91.4324   26.5413   -1.3257 C   0  0  0  0  0  0  0  0  0  0  0  0
  -92.1418   25.4555   -1.1657 O   0  0  0  0  0  0  0  0  0  0  0  0
  -91.5887   24.1998   -0.9653 C   0  0  0  0  0  0  0  0  0  0  0  0
  -92.7646   23.2828   -1.2544 C   0  0  0  0  0  0  0  0  0  0  0  0
  -90.4628   24.0530   -1.9398 C   0  0  0  0  0  0  0  0  0  0  0  0
  -91.2073   24.1222    0.4472 N   0  0  0  0  0  0  0  0  0  0  0  0
  -91.0848   23.0039    1.1853 C   0  0  0  0  0  0  0  0  0  0  0  0
  -91.2105   21.6839    0.9040 C   0  0  0  0  0  0  0  0  0  0  0  0
  -91.0292   20.7084    1.8621 C   0  0  0  0  0  0  0  0  0  0  0  0
  -90.7060   21.0224    3.1750 C   0  0  0  0  0  0  0  0  0  0  0  0
  -90.5746   22.3596    3.4753 C   0  0  0  0  0  0  0  0  0  0  0  0
  -90.7579   23.3173    2.5123 C   0  0  0  0  0  0  0  0  0  0  0  0
  -90.6795   24.6745    2.5740 C   0  0  0  0  0  0  0  0  0  0  0  0
  -90.4000   25.5435    3.6119 C   0  0  0  0  0  0  0  0  0  0  0  0
  -90.0776   25.2765    5.0387 C   0  0  0  0  0  0  0  0  0  0  0  0
  -89.8851   26.5430    5.6606 N   0  0  0  0  0  0  0  0  0  0  0  0
  -90.0648   27.5690    4.6860 C   0  0  0  0  0  0  0  0  0  0  0  0
  -89.9469   28.7601    4.9728 O   0  0  0  0  0  0  0  0  0  0  0  0
  -90.3821   26.9335    3.4263 C   0  0  0  0  0  0  0  0  0  0  0  0
  -90.6581   27.3806    2.1478 C   0  0  0  0  0  0  0  0  0  0  0  0
  -90.7228   28.6357    1.5621 C   0  0  0  0  0  0  0  0  0  0  0  0
  -90.5508   29.8870    2.0461 C   0  0  0  0  0  0  0  0  0  0  0  0
  -90.6868   30.9846    1.1787 C   0  0  0  0  0  0  0  0  0  0  0  0
  -90.9897   30.7812   -0.1377 C   0  0  0  0  0  0  0  0  0  0  0  0
  -91.1709   29.5210   -0.6604 C   0  0  0  0  0  0  0  0  0  0  0  0
  -91.0326   28.4631    0.2073 C   0  0  0  0  0  0  0  0  0  0  0  0
  -91.1509   27.1629   -0.0179 N   0  0  0  0  0  0  0  0  0  0  0  0
  -90.9363   26.4857    1.1191 C   0  0  0  0  0  0  0  0  0  0  0  0
  -90.9522   25.1164    1.3230 C   0  0  0  0  0  0  0  0  0  0  0  0
  -89.6501   26.6712    6.6731 H   0  0  0  0  0  0  0  0  0  0  0  0
  -87.1520   25.8642   -2.0151 C   0  0  0  0  0  0  0  0  0  0  0  0
  -88.1921   24.9649   -2.3395 N   0  0  0  0  0  0  0  0  0  0  0  0
  -87.8477   24.0054   -2.4663 H   0  0  0  0  0  0  0  0  0  0  0  0
  -89.8610   22.8283   -1.9585 O   0  0  0  0  0  0  0  0  0  0  0  0
  -89.2817   22.3743   -3.1063 C   0  0  0  0  0  0  0  0  0  0  0  0
 33 34  1  0  0  0
 34  1  1  0  0  0
  1  2  1  0  0  0
  2  3  1  0  0  0
  3  4  1  0  0  0
  4  5  1  0  0  0
  5  6  1  0  0  0
  5  7  1  0  0  0
  7 36  1  0  0  0
 36 37  1  0  0  0
  5  8  1  0  0  0
  8  9  1  0  0  0
  9 10  2  0  0  0
 10 11  1  0  0  0
 11 12  2  0  0  0
 12 13  1  0  0  0
 13 14  2  0  0  0
 14 15  1  0  0  0
 15 16  2  0  0  0
 16 17  1  0  0  0
 17 18  1  0  0  0
 18 19  1  0  0  0
 19 20  2  0  0  0
 19 21  1  0  0  0
 21 22  2  0  0  0
 22 23  1  0  0  0
 23 24  2  0  0  0
 24 25  1  0  0  0
 25 26  2  0  0  0
 26 27  1  0  0  0
 27 28  2  0  0  0
 28 29  1  0  0  0
 29 30  1  0  0  0
 30 31  2  0  0  0
  7  1  1  0  0  0
 31  8  1  0  0  0
 29  3  1  0  0  0
 14  9  1  0  0  0
 31 15  1  0  0  0
 21 16  1  0  0  0
 30 22  1  0  0  0
 28 23  1  0  0  0
 34 35  1  0  0  0
 18 32  1  0  0  0
M  END
> <minimizedAffinity>
3.05663

> <CNNscore>
0.0815501660

> <CNNaffinity>
5.2244157791

> <CNN_VS>
0.4260519743

> <CNNaffinity_variance>
0.1048241034

$$$$
[H]c1c([H])c([H])c2c(c1[H])c1c3c(c4c5c([H])c([H])c([H])c([H])c5n5c4c1n2[C@@]1(C([H])([H])[H])O[C@]5([H])C([H])([H])[C@]([H])(N([H])C([H])([H])[H])[C@@]1([H])OC([H])([H])[H])C(=O)N([H])C3([H])[H]


 37 44  0  0  0  0  0  0  0  0999 V2000
  -90.7050   30.5880   -2.3739 C   0  0  0  0  0  0  0  0  0  0  0  0
  -90.8506   29.1400   -2.8438 C   0  0  0  0  0  0  0  0  0  0  0  0
  -89.5352   28.5931   -3.2981 C   0  0  0  0  0  0  0  0  0  0  0  0
  -88.6681   29.4041   -3.8444 O   0  0  0  0  0  0  0  0  0  0  0  0
  -88.5537   30.7446   -3.5090 C   0  0  0  0  0  0  0  0  0  0  0  0
  -87.7440   31.2965   -4.6695 C   0  0  0  0  0  0  0  0  0  0  0  0
  -89.9409   31.2998   -3.4309 C   0  0  0  0  0  0  0  0  0  0  0  0
  -87.7835   30.8087   -2.2642 N   0  0  0  0  0  0  0  0  0  0  0  0
  -87.0435   31.8454   -1.8305 C   0  0  0  0  0  0  0  0  0  0  0  0
  -86.8083   33.0890   -2.3155 C   0  0  0  0  0  0  0  0  0  0  0  0
  -85.9892   33.9881   -1.6650 C   0  0  0  0  0  0  0  0  0  0  0  0
  -85.3558   33.6709   -0.4713 C   0  0  0  0  0  0  0  0  0  0  0  0
  -85.5858   32.4108    0.0336 C   0  0  0  0  0  0  0  0  0  0  0  0
  -86.4023   31.5285   -0.6245 C   0  0  0  0  0  0  0  0  0  0  0  0
  -86.7719   30.2544   -0.3210 C   0  0  0  0  0  0  0  0  0  0  0  0
  -86.4523   29.4198    0.7335 C   0  0  0  0  0  0  0  0  0  0  0  0
  -85.5829   29.6455    1.9185 C   0  0  0  0  0  0  0  0  0  0  0  0
  -85.6066   28.4429    2.6808 N   0  0  0  0  0  0  0  0  0  0  0  0
  -86.4520   27.4977    2.0274 C   0  0  0  0  0  0  0  0  0  0  0  0
  -86.6438   26.3739    2.4912 O   0  0  0  0  0  0  0  0  0  0  0  0
  -86.9659   28.1182    0.8264 C   0  0  0  0  0  0  0  0  0  0  0  0
  -87.8087   27.7219   -0.1950 C   0  0  0  0  0  0  0  0  0  0  0  0
  -88.5154   26.5588   -0.4606 C   0  0  0  0  0  0  0  0  0  0  0  0
  -88.6192   25.3766    0.1883 C   0  0  0  0  0  0  0  0  0  0  0  0
  -89.4362   24.3668   -0.3486 C   0  0  0  0  0  0  0  0  0  0  0  0
  -90.1149   24.5850   -1.5139 C   0  0  0  0  0  0  0  0  0  0  0  0
  -90.0301   25.7764   -2.1977 C   0  0  0  0  0  0  0  0  0  0  0  0
  -89.2248   26.7490   -1.6530 C   0  0  0  0  0  0  0  0  0  0  0  0
  -88.9600   27.9713   -2.0904 N   0  0  0  0  0  0  0  0  0  0  0  0
  -88.1157   28.5807   -1.2460 C   0  0  0  0  0  0  0  0  0  0  0  0
  -87.5961   29.8618   -1.3215 C   0  0  0  0  0  0  0  0  0  0  0  0
  -85.0785   28.3026    3.5741 H   0  0  0  0  0  0  0  0  0  0  0  0
  -93.0736   30.9193   -2.8252 C   0  0  0  0  0  0  0  0  0  0  0  0
  -91.9533   31.1345   -1.9919 N   0  0  0  0  0  0  0  0  0  0  0  0
  -92.1923   31.0573   -0.9958 H   0  0  0  0  0  0  0  0  0  0  0  0
  -90.0217   32.6443   -3.2105 O   0  0  0  0  0  0  0  0  0  0  0  0
  -90.4252   33.4736   -4.2148 C   0  0  0  0  0  0  0  0  0  0  0  0
 33 34  1  0  0  0
 34  1  1  0  0  0
  1  2  1  0  0  0
  2  3  1  0  0  0
  3  4  1  0  0  0
  4  5  1  0  0  0
  5  6  1  0  0  0
  5  7  1  0  0  0
  7 36  1  0  0  0
 36 37  1  0  0  0
  5  8  1  0  0  0
  8  9  1  0  0  0
  9 10  2  0  0  0
 10 11  1  0  0  0
 11 12  2  0  0  0
 12 13  1  0  0  0
 13 14  2  0  0  0
 14 15  1  0  0  0
 15 16  2  0  0  0
 16 17  1  0  0  0
 17 18  1  0  0  0
 18 19  1  0  0  0
 19 20  2  0  0  0
 19 21  1  0  0  0
 21 22  2  0  0  0
 22 23  1  0  0  0
 23 24  2  0  0  0
 24 25  1  0  0  0
 25 26  2  0  0  0
 26 27  1  0  0  0
 27 28  2  0  0  0
 28 29  1  0  0  0
 29 30  1  0  0  0
 30 31  2  0  0  0
  7  1  1  0  0  0
 31  8  1  0  0  0
 29  3  1  0  0  0
 14  9  1  0  0  0
 31 15  1  0  0  0
 21 16  1  0  0  0
 30 22  1  0  0  0
 28 23  1  0  0  0
 34 35  1  0  0  0
 18 32  1  0  0  0
M  END
> <minimizedAffinity>
-9.64858

> <CNNscore>
0.0771033913

> <CNNaffinity>
5.7306652069

> <CNN_VS>
0.4418537319

> <CNNaffinity_variance>
0.7317717075

$$$$
[H]c1c([H])c([H])c2c(c1[H])c1c3c(c4c5c([H])c([H])c([H])c([H])c5n5c4c1n2[C@@]1(C([H])([H])[H])O[C@]5([H])C([H])([H])[C@]([H])(N([H])C([H])([H])[H])[C@@]1([H])OC([H])([H])[H])C(=O)N([H])C3([H])[H]


 37 44  0  0  0  0  0  0  0  0999 V2000
  -89.9346   24.8950   -1.7065 C   0  0  0  0  0  0  0  0  0  0  0  0
  -90.3604   26.0941   -2.5548 C   0  0  0  0  0  0  0  0  0  0  0  0
  -90.9711   27.1594   -1.7017 C   0  0  0  0  0  0  0  0  0  0  0  0
  -91.6358   26.8094   -0.6323 O   0  0  0  0  0  0  0  0  0  0  0  0
  -91.3378   25.6854    0.1231 C   0  0  0  0  0  0  0  0  0  0  0  0
  -92.6005   25.5115    0.9491 C   0  0  0  0  0  0  0  0  0  0  0  0
  -91.0910   24.5628   -0.8348 C   0  0  0  0  0  0  0  0  0  0  0  0
  -90.2029   26.0365    0.9807 N   0  0  0  0  0  0  0  0  0  0  0  0
  -89.8829   25.4725    2.1596 C   0  0  0  0  0  0  0  0  0  0  0  0
  -90.4124   24.4525    2.8782 C   0  0  0  0  0  0  0  0  0  0  0  0
  -89.8855   24.0567    4.0898 C   0  0  0  0  0  0  0  0  0  0  0  0
  -88.7781   24.6819    4.6461 C   0  0  0  0  0  0  0  0  0  0  0  0
  -88.2293   25.7198    3.9270 C   0  0  0  0  0  0  0  0  0  0  0  0
  -88.7643   26.1015    2.7244 C   0  0  0  0  0  0  0  0  0  0  0  0
  -88.3971   27.0791    1.8518 C   0  0  0  0  0  0  0  0  0  0  0  0
  -87.3799   28.0146    1.8779 C   0  0  0  0  0  0  0  0  0  0  0  0
  -86.3193   28.2646    2.8897 C   0  0  0  0  0  0  0  0  0  0  0  0
  -85.5425   29.3573    2.4097 N   0  0  0  0  0  0  0  0  0  0  0  0
  -86.0682   29.7819    1.1534 C   0  0  0  0  0  0  0  0  0  0  0  0
  -85.5670   30.7144    0.5255 O   0  0  0  0  0  0  0  0  0  0  0  0
  -87.2027   28.9414    0.8404 C   0  0  0  0  0  0  0  0  0  0  0  0
  -88.1018   28.8626   -0.2065 C   0  0  0  0  0  0  0  0  0  0  0  0
  -88.2576   29.5618   -1.3937 C   0  0  0  0  0  0  0  0  0  0  0  0
  -87.5832   30.5947   -1.9486 C   0  0  0  0  0  0  0  0  0  0  0  0
  -87.9960   31.0950   -3.1955 C   0  0  0  0  0  0  0  0  0  0  0  0
  -89.0680   30.5384   -3.8336 C   0  0  0  0  0  0  0  0  0  0  0  0
  -89.7747   29.4872   -3.2955 C   0  0  0  0  0  0  0  0  0  0  0  0
  -89.3521   29.0148   -2.0750 C   0  0  0  0  0  0  0  0  0  0  0  0
  -89.8378   28.0295   -1.3345 N   0  0  0  0  0  0  0  0  0  0  0  0
  -89.1175   27.9115   -0.2100 C   0  0  0  0  0  0  0  0  0  0  0  0
  -89.2780   27.0065    0.8255 C   0  0  0  0  0  0  0  0  0  0  0  0
  -84.7221   29.7636    2.9181 H   0  0  0  0  0  0  0  0  0  0  0  0
  -90.2968   23.0109   -3.2040 C   0  0  0  0  0  0  0  0  0  0  0  0
  -89.4041   23.8573   -2.5094 N   0  0  0  0  0  0  0  0  0  0  0  0
  -88.5835   24.1022   -3.0767 H   0  0  0  0  0  0  0  0  0  0  0  0
  -90.8822   23.3411   -0.2634 O   0  0  0  0  0  0  0  0  0  0  0  0
  -91.9102   22.4501   -0.1717 C   0  0  0  0  0  0  0  0  0  0  0  0
 33 34  1  0  0  0
 34  1  1  0  0  0
  1  2  1  0  0  0
  2  3  1  0  0  0
  3  4  1  0  0  0
  4  5  1  0  0  0
  5  6  1  0  0  0
  5  7  1  0  0  0
  7 36  1  0  0  0
 36 37  1  0  0  0
  5  8  1  0  0  0
  8  9  1  0  0  0
  9 10  2  0  0  0
 10 11  1  0  0  0
 11 12  2  0  0  0
 12 13  1  0  0  0
 13 14  2  0  0  0
 14 15  1  0  0  0
 15 16  2  0  0  0
 16 17  1  0  0  0
 17 18  1  0  0  0
 18 19  1  0  0  0
 19 20  2  0  0  0
 19 21  1  0  0  0
 21 22  2  0  0  0
 22 23  1  0  0  0
 23 24  2  0  0  0
 24 25  1  0  0  0
 25 26  2  0  0  0
 26 27  1  0  0  0
 27 28  2  0  0  0
 28 29  1  0  0  0
 29 30  1  0  0  0
 30 31  2  0  0  0
  7  1  1  0  0  0
 31  8  1  0  0  0
 29  3  1  0  0  0
 14  9  1  0  0  0
 31 15  1  0  0  0
 21 16  1  0  0  0
 30 22  1  0  0  0
 28 23  1  0  0  0
 34 35  1  0  0  0
 18 32  1  0  0  0
M  END
> <minimizedAffinity>
-5.41940

> <CNNscore>
0.0748092756

> <CNNaffinity>
5.4524407387

> <CNN_VS>
0.4078931510

> <CNNaffinity_variance>
0.4348064065

$$$$
[H]N=C(N([H])[H])N([H])C([H])([H])C([H])([H])C([H])([H])[C@@]([H])(C(=O)c1nc2c([H])c([H])c([H])c([H])c2s1)N([H])C(=O)[C@@]([H])(N([H])C(=O)[C@@]([H])(N([H])C(=O)C([H])([H])[H])C([H])([H])C([H])([H])C(=O)N([H])[H])C([H])([H])C([H])(C([H])([H])[H])C([H])([H])[H]


 49 50  0  0  0  0  0  0  0  0999 V2000
  -87.5798   27.4605    1.0031 C   0  0  0  0  0  0  0  0  0  0  0  0
  -87.9970   26.6292    0.1815 O   0  0  0  0  0  0  0  0  0  0  0  0
  -88.3826   27.7005    2.1383 N   0  0  0  0  0  0  0  0  0  0  0  0
  -88.1585   28.3549    2.9066 H   0  0  0  0  0  0  0  0  0  0  0  0
  -89.6603   26.9765    2.3113 C   0  0  0  0  0  0  0  0  0  0  0  0
  -90.8106   27.8562    2.0715 C   0  0  0  0  0  0  0  0  0  0  0  0
  -91.5945   28.1338    2.9895 O   0  0  0  0  0  0  0  0  0  0  0  0
  -90.9848   28.3844    0.7143 C   0  0  0  0  0  0  0  0  0  0  0  0
  -90.6883   29.5324    0.1795 N   0  0  0  0  0  0  0  0  0  0  0  0
  -90.9052   29.7709   -1.0778 C   0  0  0  0  0  0  0  0  0  0  0  0
  -90.6345   30.9529   -1.7698 C   0  0  0  0  0  0  0  0  0  0  0  0
  -90.9094   31.0708   -3.0914 C   0  0  0  0  0  0  0  0  0  0  0  0
  -91.4748   30.0549   -3.8687 C   0  0  0  0  0  0  0  0  0  0  0  0
  -91.7406   28.8937   -3.1853 C   0  0  0  0  0  0  0  0  0  0  0  0
  -91.4611   28.7626   -1.8278 C   0  0  0  0  0  0  0  0  0  0  0  0
  -91.6302   27.5353   -0.6518 S   0  0  0  0  0  0  0  0  0  0  0  0
  -89.6656   26.4005    3.7312 C   0  0  0  0  0  0  0  0  0  0  0  0
  -90.5547   25.1812    3.7952 C   0  0  0  0  0  0  0  0  0  0  0  0
  -89.7068   23.9326    4.0383 C   0  0  0  0  0  0  0  0  0  0  0  0
  -88.5998   24.2586    4.9224 N   0  0  0  0  0  0  0  0  0  0  0  0
  -88.3411   25.2873    5.0645 H   0  0  0  0  0  0  0  0  0  0  0  0
  -87.8023   23.3534    5.6309 C   0  0  0  0  0  0  0  0  0  0  0  0
  -88.0441   21.9489    5.4459 N   0  0  0  0  0  0  0  0  0  0  0  0
  -86.8637   23.6924    6.4281 N   0  0  0  0  0  0  0  0  0  0  0  0
  -88.8547   21.4743    5.8486 H   0  0  0  0  0  0  0  0  0  0  0  0
  -87.3227   21.4508    4.8613 H   0  0  0  0  0  0  0  0  0  0  0  0
  -86.2815   23.0339    6.9483 H   0  0  0  0  0  0  0  0  0  0  0  0
  -86.3134   28.1642    0.8151 C   0  0  0  0  0  0  0  0  0  0  0  0
  -86.3473   29.5562    0.5303 N   0  0  0  0  0  0  0  0  0  0  0  0
  -86.8044   30.2740   -0.5594 C   0  0  0  0  0  0  0  0  0  0  0  0
  -87.3736   29.8324   -1.6035 O   0  0  0  0  0  0  0  0  0  0  0  0
  -85.9204   30.1410    1.3452 H   0  0  0  0  0  0  0  0  0  0  0  0
  -86.6544   31.7900   -0.6260 C   0  0  0  0  0  0  0  0  0  0  0  0
  -85.3493   32.1898   -0.4693 N   0  0  0  0  0  0  0  0  0  0  0  0
  -84.0622   32.5911   -0.3196 C   0  0  0  0  0  0  0  0  0  0  0  0
  -83.0851   31.8136    0.5357 C   0  0  0  0  0  0  0  0  0  0  0  0
  -83.5339   33.6244   -0.8504 O   0  0  0  0  0  0  0  0  0  0  0  0
  -85.5770   33.2025   -1.3781 H   0  0  0  0  0  0  0  0  0  0  0  0
  -87.1607   32.3297   -1.9772 C   0  0  0  0  0  0  0  0  0  0  0  0
  -87.4245   33.8042   -1.7114 C   0  0  0  0  0  0  0  0  0  0  0  0
  -87.5927   34.5938   -2.9226 C   0  0  0  0  0  0  0  0  0  0  0  0
  -86.5177   34.7802   -3.8234 N   0  0  0  0  0  0  0  0  0  0  0  0
  -88.6951   35.1263   -3.1928 O   0  0  0  0  0  0  0  0  0  0  0  0
  -86.6141   35.0945   -4.8168 H   0  0  0  0  0  0  0  0  0  0  0  0
  -85.5449   34.5821   -3.4534 H   0  0  0  0  0  0  0  0  0  0  0  0
  -85.2085   27.7269    1.6734 C   0  0  0  0  0  0  0  0  0  0  0  0
  -82.8640   28.1164    2.5609 C   0  0  0  0  0  0  0  0  0  0  0  0
  -84.1929   28.6849    2.1398 C   0  0  0  0  0  0  0  0  0  0  0  0
  -84.7623   29.3475    3.4131 C   0  0  0  0  0  0  0  0  0  0  0  0
 47 48  1  0  0  0
 48 49  1  0  0  0
 48 46  1  0  0  0
 46 28  1  0  0  0
 28 29  1  0  0  0
 29 30  1  0  0  0
 30 31  2  0  0  0
 30 33  1  0  0  0
 33 39  1  0  0  0
 39 40  1  0  0  0
 40 41  1  0  0  0
 41 42  1  0  0  0
 41 43  2  0  0  0
 33 34  1  0  0  0
 34 35  1  0  0  0
 35 36  1  0  0  0
 35 37  2  0  0  0
 28  1  1  0  0  0
  1  2  2  0  0  0
  1  3  1  0  0  0
  3  5  1  0  0  0
  5 17  1  0  0  0
 17 18  1  0  0  0
 18 19  1  0  0  0
 19 20  1  0  0  0
 20 22  1  0  0  0
 22 23  1  0  0  0
 22 24  2  0  0  0
  5  6  1  0  0  0
  6  7  2  0  0  0
  6  8  1  0  0  0
  8  9  2  0  0  0
  9 10  1  0  0  0
 10 11  2  0  0  0
 11 12  1  0  0  0
 12 13  2  0  0  0
 13 14  1  0  0  0
 14 15  2  0  0  0
 15 16  1  0  0  0
 16  8  1  0  0  0
 15 10  1  0  0  0
 29 32  1  0  0  0
 42 44  1  0  0  0
 42 45  1  0  0  0
 34 38  1  0  0  0
  3  4  1  0  0  0
 20 21  1  0  0  0
 23 25  1  0  0  0
 23 26  1  0  0  0
 24 27  1  0  0  0
M  END
> <minimizedAffinity>
-8.02581

> <CNNscore>
0.2250575870

> <CNNaffinity>
7.2031517029

> <CNN_VS>
1.6211239100

> <CNNaffinity_variance>
0.5219067335

$$$$
[H]N=C(N([H])[H])N([H])C([H])([H])C([H])([H])C([H])([H])[C@@]([H])(C(=O)c1nc2c([H])c([H])c([H])c([H])c2s1)N([H])C(=O)[C@@]([H])(N([H])C(=O)[C@@]([H])(N([H])C(=O)C([H])([H])[H])C([H])([H])C([H])([H])C(=O)N([H])[H])C([H])([H])C([H])(C([H])([H])[H])C([H])([H])[H]


 49 50  0  0  0  0  0  0  0  0999 V2000
  -87.1743   28.0164   -0.0041 C   0  0  0  0  0  0  0  0  0  0  0  0
  -86.7901   27.3182   -0.9554 O   0  0  0  0  0  0  0  0  0  0  0  0
  -88.5364   27.9232    0.3521 N   0  0  0  0  0  0  0  0  0  0  0  0
  -88.9928   28.4356    1.1253 H   0  0  0  0  0  0  0  0  0  0  0  0
  -89.4403   27.0235   -0.3963 C   0  0  0  0  0  0  0  0  0  0  0  0
  -90.6063   27.7478   -0.9164 C   0  0  0  0  0  0  0  0  0  0  0  0
  -91.7528   27.4230   -0.5784 O   0  0  0  0  0  0  0  0  0  0  0  0
  -90.3535   28.8586   -1.8402 C   0  0  0  0  0  0  0  0  0  0  0  0
  -89.3719   29.1099   -2.6557 N   0  0  0  0  0  0  0  0  0  0  0  0
  -89.3770   30.1589   -3.4201 C   0  0  0  0  0  0  0  0  0  0  0  0
  -88.3920   30.5406   -4.3330 C   0  0  0  0  0  0  0  0  0  0  0  0
  -88.5226   31.6663   -5.0760 C   0  0  0  0  0  0  0  0  0  0  0  0
  -89.6194   32.5310   -5.0041 C   0  0  0  0  0  0  0  0  0  0  0  0
  -90.5863   32.1533   -4.1048 C   0  0  0  0  0  0  0  0  0  0  0  0
  -90.4617   30.9983   -3.3376 C   0  0  0  0  0  0  0  0  0  0  0  0
  -91.4010   30.2035   -2.1527 S   0  0  0  0  0  0  0  0  0  0  0  0
  -89.8457   25.8941    0.5566 C   0  0  0  0  0  0  0  0  0  0  0  0
  -89.5666   24.5521   -0.0777 C   0  0  0  0  0  0  0  0  0  0  0  0
  -90.6962   23.5766    0.2529 C   0  0  0  0  0  0  0  0  0  0  0  0
  -90.2190   22.5784    1.1959 N   0  0  0  0  0  0  0  0  0  0  0  0
  -90.1178   22.8512    2.2259 H   0  0  0  0  0  0  0  0  0  0  0  0
  -89.8599   21.2581    0.9042 C   0  0  0  0  0  0  0  0  0  0  0  0
  -88.7039   20.7103    1.5591 N   0  0  0  0  0  0  0  0  0  0  0  0
  -90.4981   20.5004    0.0980 N   0  0  0  0  0  0  0  0  0  0  0  0
  -87.7509   20.9746    1.3014 H   0  0  0  0  0  0  0  0  0  0  0  0
  -88.9177   20.0193    2.3254 H   0  0  0  0  0  0  0  0  0  0  0  0
  -90.2369   19.5370   -0.1186 H   0  0  0  0  0  0  0  0  0  0  0  0
  -86.2651   28.8979    0.7240 C   0  0  0  0  0  0  0  0  0  0  0  0
  -86.1002   30.2321    0.2628 N   0  0  0  0  0  0  0  0  0  0  0  0
  -87.0037   31.1952   -0.1470 C   0  0  0  0  0  0  0  0  0  0  0  0
  -88.2700   31.1213   -0.1669 O   0  0  0  0  0  0  0  0  0  0  0  0
  -85.0486   30.5181    0.2352 H   0  0  0  0  0  0  0  0  0  0  0  0
  -86.5335   32.5507   -0.6633 C   0  0  0  0  0  0  0  0  0  0  0  0
  -85.1821   32.7306   -0.4929 N   0  0  0  0  0  0  0  0  0  0  0  0
  -83.8487   32.9166   -0.3260 C   0  0  0  0  0  0  0  0  0  0  0  0
  -82.9196   31.7598   -0.0273 C   0  0  0  0  0  0  0  0  0  0  0  0
  -83.2347   34.0333   -0.3927 O   0  0  0  0  0  0  0  0  0  0  0  0
  -85.3440   34.0615   -0.8184 H   0  0  0  0  0  0  0  0  0  0  0  0
  -86.8507   32.7034   -2.1631 C   0  0  0  0  0  0  0  0  0  0  0  0
  -87.8587   33.8416   -2.2142 C   0  0  0  0  0  0  0  0  0  0  0  0
  -87.4557   34.9386   -3.0821 C   0  0  0  0  0  0  0  0  0  0  0  0
  -86.6935   34.6988   -4.2497 N   0  0  0  0  0  0  0  0  0  0  0  0
  -87.7757   36.1203   -2.8122 O   0  0  0  0  0  0  0  0  0  0  0  0
  -86.5911   35.3675   -5.0480 H   0  0  0  0  0  0  0  0  0  0  0  0
  -86.1935   33.7667   -4.3104 H   0  0  0  0  0  0  0  0  0  0  0  0
  -86.2472   28.7317    2.1803 C   0  0  0  0  0  0  0  0  0  0  0  0
  -84.9980   30.7576    3.0586 C   0  0  0  0  0  0  0  0  0  0  0  0
  -85.1334   29.2600    2.9847 C   0  0  0  0  0  0  0  0  0  0  0  0
  -83.8319   28.7769    2.3086 C   0  0  0  0  0  0  0  0  0  0  0  0
 47 48  1  0  0  0
 48 49  1  0  0  0
 48 46  1  0  0  0
 46 28  1  0  0  0
 28 29  1  0  0  0
 29 30  1  0  0  0
 30 31  2  0  0  0
 30 33  1  0  0  0
 33 39  1  0  0  0
 39 40  1  0  0  0
 40 41  1  0  0  0
 41 42  1  0  0  0
 41 43  2  0  0  0
 33 34  1  0  0  0
 34 35  1  0  0  0
 35 36  1  0  0  0
 35 37  2  0  0  0
 28  1  1  0  0  0
  1  2  2  0  0  0
  1  3  1  0  0  0
  3  5  1  0  0  0
  5 17  1  0  0  0
 17 18  1  0  0  0
 18 19  1  0  0  0
 19 20  1  0  0  0
 20 22  1  0  0  0
 22 23  1  0  0  0
 22 24  2  0  0  0
  5  6  1  0  0  0
  6  7  2  0  0  0
  6  8  1  0  0  0
  8  9  2  0  0  0
  9 10  1  0  0  0
 10 11  2  0  0  0
 11 12  1  0  0  0
 12 13  2  0  0  0
 13 14  1  0  0  0
 14 15  2  0  0  0
 15 16  1  0  0  0
 16  8  1  0  0  0
 15 10  1  0  0  0
 29 32  1  0  0  0
 42 44  1  0  0  0
 42 45  1  0  0  0
 34 38  1  0  0  0
  3  4  1  0  0  0
 20 21  1  0  0  0
 23 25  1  0  0  0
 23 26  1  0  0  0
 24 27  1  0  0  0
M  END
> <minimizedAffinity>
-7.87217

> <CNNscore>
0.2112775147

> <CNNaffinity>
6.8522658348

> <CNN_VS>
1.4477297068

> <CNNaffinity_variance>
0.8371827006

$$$$
[H]N=C(N([H])[H])N([H])C([H])([H])C([H])([H])C([H])([H])[C@@]([H])(C(=O)c1nc2c([H])c([H])c([H])c([H])c2s1)N([H])C(=O)[C@@]([H])(N([H])C(=O)[C@@]([H])(N([H])C(=O)C([H])([H])[H])C([H])([H])C([H])([H])C(=O)N([H])[H])C([H])([H])C([H])(C([H])([H])[H])C([H])([H])[H]


 49 50  0  0  0  0  0  0  0  0999 V2000
  -88.6013   29.0588   -2.0013 C   0  0  0  0  0  0  0  0  0  0  0  0
  -88.0683   28.9184   -3.1133 O   0  0  0  0  0  0  0  0  0  0  0  0
  -89.1026   30.3395   -1.6863 N   0  0  0  0  0  0  0  0  0  0  0  0
  -89.5778   30.6001   -0.8060 H   0  0  0  0  0  0  0  0  0  0  0  0
  -88.9817   31.4451   -2.6608 C   0  0  0  0  0  0  0  0  0  0  0  0
  -88.4358   32.6545   -2.0332 C   0  0  0  0  0  0  0  0  0  0  0  0
  -89.0496   33.7286   -2.0940 O   0  0  0  0  0  0  0  0  0  0  0  0
  -87.1492   32.5327   -1.3396 C   0  0  0  0  0  0  0  0  0  0  0  0
  -86.7626   31.7958   -0.3399 N   0  0  0  0  0  0  0  0  0  0  0  0
  -85.5394   31.8281    0.0930 C   0  0  0  0  0  0  0  0  0  0  0  0
  -85.0004   31.0924    1.1502 C   0  0  0  0  0  0  0  0  0  0  0  0
  -83.6976   31.2193    1.5008 C   0  0  0  0  0  0  0  0  0  0  0  0
  -82.7928   32.0729    0.8615 C   0  0  0  0  0  0  0  0  0  0  0  0
  -83.3259   32.7957   -0.1774 C   0  0  0  0  0  0  0  0  0  0  0  0
  -84.6627   32.6717   -0.5457 C   0  0  0  0  0  0  0  0  0  0  0  0
  -85.6786   33.3608   -1.7335 S   0  0  0  0  0  0  0  0  0  0  0  0
  -90.3762   31.6844   -3.2491 C   0  0  0  0  0  0  0  0  0  0  0  0
  -91.4288   31.0581   -2.3654 C   0  0  0  0  0  0  0  0  0  0  0  0
  -92.5474   30.4713   -3.2264 C   0  0  0  0  0  0  0  0  0  0  0  0
  -92.7470   31.3036   -4.4014 N   0  0  0  0  0  0  0  0  0  0  0  0
  -92.7884   32.3659   -4.2779 H   0  0  0  0  0  0  0  0  0  0  0  0
  -92.9012   30.8634   -5.7204 C   0  0  0  0  0  0  0  0  0  0  0  0
  -92.5718   29.4972   -6.0212 N   0  0  0  0  0  0  0  0  0  0  0  0
  -93.3250   31.5946   -6.6780 N   0  0  0  0  0  0  0  0  0  0  0  0
  -91.6069   29.1648   -6.0748 H   0  0  0  0  0  0  0  0  0  0  0  0
  -93.4023   28.8680   -6.1781 H   0  0  0  0  0  0  0  0  0  0  0  0
  -93.4363   31.2766   -7.6422 H   0  0  0  0  0  0  0  0  0  0  0  0
  -88.7127   27.9532   -1.0530 C   0  0  0  0  0  0  0  0  0  0  0  0
  -89.6373   26.9108   -1.3327 N   0  0  0  0  0  0  0  0  0  0  0  0
  -90.7383   26.4321   -0.6468 C   0  0  0  0  0  0  0  0  0  0  0  0
  -91.2341   26.8672    0.4368 O   0  0  0  0  0  0  0  0  0  0  0  0
  -89.4032   26.4109   -2.2728 H   0  0  0  0  0  0  0  0  0  0  0  0
  -91.5290   25.2336   -1.1600 C   0  0  0  0  0  0  0  0  0  0  0  0
  -92.2998   25.5496   -2.2525 N   0  0  0  0  0  0  0  0  0  0  0  0
  -93.0538   25.8619   -3.3361 C   0  0  0  0  0  0  0  0  0  0  0  0
  -94.5566   26.0127   -3.2376 C   0  0  0  0  0  0  0  0  0  0  0  0
  -92.6185   26.0569   -4.5198 O   0  0  0  0  0  0  0  0  0  0  0  0
  -91.1453   25.6873   -2.9953 H   0  0  0  0  0  0  0  0  0  0  0  0
  -90.5823   24.0855   -1.5587 C   0  0  0  0  0  0  0  0  0  0  0  0
  -90.0098   23.6012   -0.2351 C   0  0  0  0  0  0  0  0  0  0  0  0
  -89.9298   22.1516   -0.1301 C   0  0  0  0  0  0  0  0  0  0  0  0
  -88.7052   21.5118    0.1746 N   0  0  0  0  0  0  0  0  0  0  0  0
  -90.9457   21.4390   -0.3082 O   0  0  0  0  0  0  0  0  0  0  0  0
  -88.6111   20.5299    0.5238 H   0  0  0  0  0  0  0  0  0  0  0  0
  -87.8221   22.0804    0.0362 H   0  0  0  0  0  0  0  0  0  0  0  0
  -87.4601   27.5271   -0.4219 C   0  0  0  0  0  0  0  0  0  0  0  0
  -85.8471   27.6827    1.5302 C   0  0  0  0  0  0  0  0  0  0  0  0
  -87.2675   27.6564    1.0318 C   0  0  0  0  0  0  0  0  0  0  0  0
  -87.8899   26.3974    1.6737 C   0  0  0  0  0  0  0  0  0  0  0  0
 47 48  1  0  0  0
 48 49  1  0  0  0
 48 46  1  0  0  0
 46 28  1  0  0  0
 28 29  1  0  0  0
 29 30  1  0  0  0
 30 31  2  0  0  0
 30 33  1  0  0  0
 33 39  1  0  0  0
 39 40  1  0  0  0
 40 41  1  0  0  0
 41 42  1  0  0  0
 41 43  2  0  0  0
 33 34  1  0  0  0
 34 35  1  0  0  0
 35 36  1  0  0  0
 35 37  2  0  0  0
 28  1  1  0  0  0
  1  2  2  0  0  0
  1  3  1  0  0  0
  3  5  1  0  0  0
  5 17  1  0  0  0
 17 18  1  0  0  0
 18 19  1  0  0  0
 19 20  1  0  0  0
 20 22  1  0  0  0
 22 23  1  0  0  0
 22 24  2  0  0  0
  5  6  1  0  0  0
  6  7  2  0  0  0
  6  8  1  0  0  0
  8  9  2  0  0  0
  9 10  1  0  0  0
 10 11  2  0  0  0
 11 12  1  0  0  0
 12 13  2  0  0  0
 13 14  1  0  0  0
 14 15  2  0  0  0
 15 16  1  0  0  0
 16  8  1  0  0  0
 15 10  1  0  0  0
 29 32  1  0  0  0
 42 44  1  0  0  0
 42 45  1  0  0  0
 34 38  1  0  0  0
  3  4  1  0  0  0
 20 21  1  0  0  0
 23 25  1  0  0  0
 23 26  1  0  0  0
 24 27  1  0  0  0
M  END
> <minimizedAffinity>
-7.35141

> <CNNscore>
0.2064669877

> <CNNaffinity>
6.6460943222

> <CNN_VS>
1.3721990585

> <CNNaffinity_variance>
0.6077482700

$$$$
[H]N=C(N([H])[H])N([H])C([H])([H])C([H])([H])C([H])([H])[C@@]([H])(C(=O)c1nc2c([H])c([H])c([H])c([H])c2s1)N([H])C(=O)[C@@]([H])(N([H])C(=O)[C@@]([H])(N([H])C(=O)C([H])([H])[H])C([H])([H])C([H])([H])C(=O)N([H])[H])C([H])([H])C([H])(C([H])([H])[H])C([H])([H])[H]


 49 50  0  0  0  0  0  0  0  0999 V2000
  -88.8144   28.2841   -2.2557 C   0  0  0  0  0  0  0  0  0  0  0  0
  -87.6256   28.3572   -2.6043 O   0  0  0  0  0  0  0  0  0  0  0  0
  -89.5076   29.5001   -2.0782 N   0  0  0  0  0  0  0  0  0  0  0  0
  -90.4992   29.5928   -1.8008 H   0  0  0  0  0  0  0  0  0  0  0  0
  -88.8183   30.7884   -2.3055 C   0  0  0  0  0  0  0  0  0  0  0  0
  -88.5578   31.4865   -1.0408 C   0  0  0  0  0  0  0  0  0  0  0  0
  -89.4893   31.9742   -0.3861 O   0  0  0  0  0  0  0  0  0  0  0  0
  -87.1635   31.5767   -0.5946 C   0  0  0  0  0  0  0  0  0  0  0  0
  -86.4241   30.7847    0.1250 N   0  0  0  0  0  0  0  0  0  0  0  0
  -85.1783   31.0555    0.3686 C   0  0  0  0  0  0  0  0  0  0  0  0
  -84.2824   30.2939    1.1213 C   0  0  0  0  0  0  0  0  0  0  0  0
  -82.9991   30.6918    1.2978 C   0  0  0  0  0  0  0  0  0  0  0  0
  -82.4617   31.8670    0.7632 C   0  0  0  0  0  0  0  0  0  0  0  0
  -83.3454   32.6144    0.0239 C   0  0  0  0  0  0  0  0  0  0  0  0
  -84.6654   32.2137   -0.1638 C   0  0  0  0  0  0  0  0  0  0  0  0
  -86.0315   32.8301   -0.9833 S   0  0  0  0  0  0  0  0  0  0  0  0
  -89.7024   31.6155   -3.2448 C   0  0  0  0  0  0  0  0  0  0  0  0
  -89.0306   31.7724   -4.5884 C   0  0  0  0  0  0  0  0  0  0  0  0
  -89.0819   33.2361   -5.0266 C   0  0  0  0  0  0  0  0  0  0  0  0
  -87.7884   33.8595   -4.7995 N   0  0  0  0  0  0  0  0  0  0  0  0
  -86.9857   33.2572   -4.4278 H   0  0  0  0  0  0  0  0  0  0  0  0
  -87.4594   35.2024   -5.0133 C   0  0  0  0  0  0  0  0  0  0  0  0
  -87.9984   35.8551   -6.1746 N   0  0  0  0  0  0  0  0  0  0  0  0
  -86.7158   35.8931   -4.2377 N   0  0  0  0  0  0  0  0  0  0  0  0
  -87.6511   35.6708   -7.1180 H   0  0  0  0  0  0  0  0  0  0  0  0
  -88.7794   36.5339   -5.9759 H   0  0  0  0  0  0  0  0  0  0  0  0
  -86.4721   36.8728   -4.3924 H   0  0  0  0  0  0  0  0  0  0  0  0
  -89.4783   27.0012   -2.0379 C   0  0  0  0  0  0  0  0  0  0  0  0
  -89.6132   26.5253   -0.7055 N   0  0  0  0  0  0  0  0  0  0  0  0
  -90.1367   27.0961    0.4398 C   0  0  0  0  0  0  0  0  0  0  0  0
  -90.6910   28.2303    0.5650 O   0  0  0  0  0  0  0  0  0  0  0  0
  -89.2146   25.5162   -0.5996 H   0  0  0  0  0  0  0  0  0  0  0  0
  -90.0933   26.3654    1.7775 C   0  0  0  0  0  0  0  0  0  0  0  0
  -90.8578   25.2239    1.7703 N   0  0  0  0  0  0  0  0  0  0  0  0
  -91.6115   24.0960    1.7717 C   0  0  0  0  0  0  0  0  0  0  0  0
  -92.2213   23.5502    0.4985 C   0  0  0  0  0  0  0  0  0  0  0  0
  -91.8931   23.3852    2.7935 O   0  0  0  0  0  0  0  0  0  0  0  0
  -90.5760   25.0573    3.1106 H   0  0  0  0  0  0  0  0  0  0  0  0
  -88.6482   25.9708    2.1370 C   0  0  0  0  0  0  0  0  0  0  0  0
  -87.9268   27.3020    2.2847 C   0  0  0  0  0  0  0  0  0  0  0  0
  -86.6365   27.3436    1.6123 C   0  0  0  0  0  0  0  0  0  0  0  0
  -86.5340   27.7539    0.2620 N   0  0  0  0  0  0  0  0  0  0  0  0
  -85.5880   27.0158    2.2162 O   0  0  0  0  0  0  0  0  0  0  0  0
  -85.6507   28.0625   -0.2065 H   0  0  0  0  0  0  0  0  0  0  0  0
  -87.4265   27.7454   -0.3086 H   0  0  0  0  0  0  0  0  0  0  0  0
  -90.6090   26.7109   -2.9245 C   0  0  0  0  0  0  0  0  0  0  0  0
  -92.9607   26.3703   -2.0360 C   0  0  0  0  0  0  0  0  0  0  0  0
  -91.9392   27.2831   -2.6601 C   0  0  0  0  0  0  0  0  0  0  0  0
  -92.5356   27.6669   -4.0318 C   0  0  0  0  0  0  0  0  0  0  0  0
 47 48  1  0  0  0
 48 49  1  0  0  0
 48 46  1  0  0  0
 46 28  1  0  0  0
 28 29  1  0  0  0
 29 30  1  0  0  0
 30 31  2  0  0  0
 30 33  1  0  0  0
 33 39  1  0  0  0
 39 40  1  0  0  0
 40 41  1  0  0  0
 41 42  1  0  0  0
 41 43  2  0  0  0
 33 34  1  0  0  0
 34 35  1  0  0  0
 35 36  1  0  0  0
 35 37  2  0  0  0
 28  1  1  0  0  0
  1  2  2  0  0  0
  1  3  1  0  0  0
  3  5  1  0  0  0
  5 17  1  0  0  0
 17 18  1  0  0  0
 18 19  1  0  0  0
 19 20  1  0  0  0
 20 22  1  0  0  0
 22 23  1  0  0  0
 22 24  2  0  0  0
  5  6  1  0  0  0
  6  7  2  0  0  0
  6  8  1  0  0  0
  8  9  2  0  0  0
  9 10  1  0  0  0
 10 11  2  0  0  0
 11 12  1  0  0  0
 12 13  2  0  0  0
 13 14  1  0  0  0
 14 15  2  0  0  0
 15 16  1  0  0  0
 16  8  1  0  0  0
 15 10  1  0  0  0
 29 32  1  0  0  0
 42 44  1  0  0  0
 42 45  1  0  0  0
 34 38  1  0  0  0
  3  4  1  0  0  0
 20 21  1  0  0  0
 23 25  1  0  0  0
 23 26  1  0  0  0
 24 27  1  0  0  0
M  END
> <minimizedAffinity>
-7.48755

> <CNNscore>
0.1643876433

> <CNNaffinity>
6.8191919327

> <CNN_VS>
1.1209908724

> <CNNaffinity_variance>
0.4521244466

$$$$
[H]N=C(N([H])[H])N([H])C([H])([H])C([H])([H])C([H])([H])[C@@]([H])(C(=O)c1nc2c([H])c([H])c([H])c([H])c2s1)N([H])C(=O)[C@@]([H])(N([H])C(=O)[C@@]([H])(N([H])C(=O)C([H])([H])[H])C([H])([H])C([H])([H])C(=O)N([H])[H])C([H])([H])C([H])(C([H])([H])[H])C([H])([H])[H]


 49 50  0  0  0  0  0  0  0  0999 V2000
  -91.1567   30.5541   -2.9212 C   0  0  0  0  0  0  0  0  0  0  0  0
  -91.8818   30.3034   -1.9457 O   0  0  0  0  0  0  0  0  0  0  0  0
  -89.7619   30.4978   -2.7161 N   0  0  0  0  0  0  0  0  0  0  0  0
  -89.0402   30.6721   -3.4355 H   0  0  0  0  0  0  0  0  0  0  0  0
  -89.2200   30.1524   -1.3844 C   0  0  0  0  0  0  0  0  0  0  0  0
  -88.7445   31.3458   -0.6741 C   0  0  0  0  0  0  0  0  0  0  0  0
  -89.5270   32.2615   -0.3853 O   0  0  0  0  0  0  0  0  0  0  0  0
  -87.3208   31.4013   -0.3263 C   0  0  0  0  0  0  0  0  0  0  0  0
  -86.5620   30.6120    0.3759 N   0  0  0  0  0  0  0  0  0  0  0  0
  -85.2939   30.8453    0.5240 C   0  0  0  0  0  0  0  0  0  0  0  0
  -84.3758   30.0817    1.2474 C   0  0  0  0  0  0  0  0  0  0  0  0
  -83.0703   30.4378    1.3205 C   0  0  0  0  0  0  0  0  0  0  0  0
  -82.5300   31.5692    0.7011 C   0  0  0  0  0  0  0  0  0  0  0  0
  -83.4354   32.3187   -0.0092 C   0  0  0  0  0  0  0  0  0  0  0  0
  -84.7783   31.9608   -0.0909 C   0  0  0  0  0  0  0  0  0  0  0  0
  -86.1749   32.5944   -0.8433 S   0  0  0  0  0  0  0  0  0  0  0  0
  -88.0989   29.1310   -1.6028 C   0  0  0  0  0  0  0  0  0  0  0  0
  -88.5618   27.7536   -1.1910 C   0  0  0  0  0  0  0  0  0  0  0  0
  -87.3643   26.8072   -1.1060 C   0  0  0  0  0  0  0  0  0  0  0  0
  -87.4376   26.0360    0.1241 N   0  0  0  0  0  0  0  0  0  0  0  0
  -87.4686   24.9682    0.0603 H   0  0  0  0  0  0  0  0  0  0  0  0
  -87.4781   26.5439    1.4271 C   0  0  0  0  0  0  0  0  0  0  0  0
  -88.2222   25.8132    2.4159 N   0  0  0  0  0  0  0  0  0  0  0  0
  -86.8886   27.6135    1.8010 N   0  0  0  0  0  0  0  0  0  0  0  0
  -89.2439   25.8065    2.4392 H   0  0  0  0  0  0  0  0  0  0  0  0
  -87.6315   25.2845    3.1100 H   0  0  0  0  0  0  0  0  0  0  0  0
  -86.9183   27.9878    2.7508 H   0  0  0  0  0  0  0  0  0  0  0  0
  -91.7116   30.8915   -4.2298 C   0  0  0  0  0  0  0  0  0  0  0  0
  -91.2337   32.0567   -4.8886 N   0  0  0  0  0  0  0  0  0  0  0  0
  -89.9623   32.4797   -5.2296 C   0  0  0  0  0  0  0  0  0  0  0  0
  -88.8636   31.8683   -5.0613 O   0  0  0  0  0  0  0  0  0  0  0  0
  -92.0508   32.7253   -5.1602 H   0  0  0  0  0  0  0  0  0  0  0  0
  -89.7312   33.8343   -5.8904 C   0  0  0  0  0  0  0  0  0  0  0  0
  -90.5658   34.0379   -6.9626 N   0  0  0  0  0  0  0  0  0  0  0  0
  -91.3839   34.2437   -8.0250 C   0  0  0  0  0  0  0  0  0  0  0  0
  -92.7740   33.6477   -8.0804 C   0  0  0  0  0  0  0  0  0  0  0  0
  -91.1029   34.9288   -9.0643 O   0  0  0  0  0  0  0  0  0  0  0  0
  -89.6237   34.8894   -7.5018 H   0  0  0  0  0  0  0  0  0  0  0  0
  -89.9582   34.9783   -4.8838 C   0  0  0  0  0  0  0  0  0  0  0  0
  -88.7458   35.8787   -5.0673 C   0  0  0  0  0  0  0  0  0  0  0  0
  -87.7851   35.7922   -3.9771 C   0  0  0  0  0  0  0  0  0  0  0  0
  -86.7350   34.8444   -4.0078 N   0  0  0  0  0  0  0  0  0  0  0  0
  -87.8687   36.5563   -2.9869 O   0  0  0  0  0  0  0  0  0  0  0  0
  -85.8701   34.8870   -3.4204 H   0  0  0  0  0  0  0  0  0  0  0  0
  -86.8426   34.0343   -4.6821 H   0  0  0  0  0  0  0  0  0  0  0  0
  -92.0129   29.7555   -5.1057 C   0  0  0  0  0  0  0  0  0  0  0  0
  -94.4288   30.5020   -5.3116 C   0  0  0  0  0  0  0  0  0  0  0  0
  -93.4048   29.4050   -5.4324 C   0  0  0  0  0  0  0  0  0  0  0  0
  -93.8441   28.3377   -4.4066 C   0  0  0  0  0  0  0  0  0  0  0  0
 47 48  1  0  0  0
 48 49  1  0  0  0
 48 46  1  0  0  0
 46 28  1  0  0  0
 28 29  1  0  0  0
 29 30  1  0  0  0
 30 31  2  0  0  0
 30 33  1  0  0  0
 33 39  1  0  0  0
 39 40  1  0  0  0
 40 41  1  0  0  0
 41 42  1  0  0  0
 41 43  2  0  0  0
 33 34  1  0  0  0
 34 35  1  0  0  0
 35 36  1  0  0  0
 35 37  2  0  0  0
 28  1  1  0  0  0
  1  2  2  0  0  0
  1  3  1  0  0  0
  3  5  1  0  0  0
  5 17  1  0  0  0
 17 18  1  0  0  0
 18 19  1  0  0  0
 19 20  1  0  0  0
 20 22  1  0  0  0
 22 23  1  0  0  0
 22 24  2  0  0  0
  5  6  1  0  0  0
  6  7  2  0  0  0
  6  8  1  0  0  0
  8  9  2  0  0  0
  9 10  1  0  0  0
 10 11  2  0  0  0
 11 12  1  0  0  0
 12 13  2  0  0  0
 13 14  1  0  0  0
 14 15  2  0  0  0
 15 16  1  0  0  0
 16  8  1  0  0  0
 15 10  1  0  0  0
 29 32  1  0  0  0
 42 44  1  0  0  0
 42 45  1  0  0  0
 34 38  1  0  0  0
  3  4  1  0  0  0
 20 21  1  0  0  0
 23 25  1  0  0  0
 23 26  1  0  0  0
 24 27  1  0  0  0
M  END
> <minimizedAffinity>
-6.90901

> <CNNscore>
0.1291763484

> <CNNaffinity>
6.8130173683

> <CNN_VS>
0.8800806999

> <CNNaffinity_variance>
0.2127947360

$$$$
[H]N=C(N([H])[H])N([H])C([H])([H])C([H])([H])C([H])([H])[C@@]([H])(C(=O)c1nc2c([H])c([H])c([H])c([H])c2s1)N([H])C(=O)[C@@]([H])(N([H])C(=O)[C@@]([H])(N([H])C(=O)C([H])([H])[H])C([H])([H])C([H])([H])C(=O)N([H])[H])C([H])([H])C([H])(C([H])([H])[H])C([H])([H])[H]


 49 50  0  0  0  0  0  0  0  0999 V2000
  -89.7608   30.0593   -1.3891 C   0  0  0  0  0  0  0  0  0  0  0  0
  -89.9806   31.1290   -0.7994 O   0  0  0  0  0  0  0  0  0  0  0  0
  -90.0324   30.0213   -2.7731 N   0  0  0  0  0  0  0  0  0  0  0  0
  -89.8892   29.2060   -3.3924 H   0  0  0  0  0  0  0  0  0  0  0  0
  -90.5560   31.2210   -3.4609 C   0  0  0  0  0  0  0  0  0  0  0  0
  -91.9512   31.0336   -3.8764 C   0  0  0  0  0  0  0  0  0  0  0  0
  -92.7388   31.9895   -3.8912 O   0  0  0  0  0  0  0  0  0  0  0  0
  -92.3625   29.6816   -4.2691 C   0  0  0  0  0  0  0  0  0  0  0  0
  -92.4136   28.5595   -3.6132 N   0  0  0  0  0  0  0  0  0  0  0  0
  -92.8547   27.4709   -4.1654 C   0  0  0  0  0  0  0  0  0  0  0  0
  -92.9603   26.2100   -3.5751 C   0  0  0  0  0  0  0  0  0  0  0  0
  -93.4431   25.1497   -4.2670 C   0  0  0  0  0  0  0  0  0  0  0  0
  -93.8682   25.2093   -5.5980 C   0  0  0  0  0  0  0  0  0  0  0  0
  -93.7626   26.4505   -6.1762 C   0  0  0  0  0  0  0  0  0  0  0  0
  -93.2686   27.5461   -5.4735 C   0  0  0  0  0  0  0  0  0  0  0  0
  -92.9877   29.1968   -5.8111 S   0  0  0  0  0  0  0  0  0  0  0  0
  -89.6349   31.4970   -4.6540 C   0  0  0  0  0  0  0  0  0  0  0  0
  -89.2157   32.9480   -4.6637 C   0  0  0  0  0  0  0  0  0  0  0  0
  -89.5028   33.5804   -3.3018 C   0  0  0  0  0  0  0  0  0  0  0  0
  -88.2927   34.1990   -2.7858 N   0  0  0  0  0  0  0  0  0  0  0  0
  -88.1501   35.2496   -2.9315 H   0  0  0  0  0  0  0  0  0  0  0  0
  -87.2543   33.5589   -2.1008 C   0  0  0  0  0  0  0  0  0  0  0  0
  -85.9749   33.4614   -2.7482 N   0  0  0  0  0  0  0  0  0  0  0  0
  -87.3645   33.0605   -0.9299 N   0  0  0  0  0  0  0  0  0  0  0  0
  -85.7986   32.8149   -3.5198 H   0  0  0  0  0  0  0  0  0  0  0  0
  -85.2375   34.1101   -2.3666 H   0  0  0  0  0  0  0  0  0  0  0  0
  -86.6089   32.5907   -0.4285 H   0  0  0  0  0  0  0  0  0  0  0  0
  -89.2415   28.8853   -0.6919 C   0  0  0  0  0  0  0  0  0  0  0  0
  -87.9791   28.9837   -0.0465 N   0  0  0  0  0  0  0  0  0  0  0  0
  -86.7965   29.6060   -0.4013 C   0  0  0  0  0  0  0  0  0  0  0  0
  -86.5627   30.3130   -1.4283 O   0  0  0  0  0  0  0  0  0  0  0  0
  -87.9751   28.4531    0.9059 H   0  0  0  0  0  0  0  0  0  0  0  0
  -85.5514   29.4929    0.4717 C   0  0  0  0  0  0  0  0  0  0  0  0
  -84.7462   30.6017    0.3733 N   0  0  0  0  0  0  0  0  0  0  0  0
  -83.9576   31.7009    0.2727 C   0  0  0  0  0  0  0  0  0  0  0  0
  -82.5198   31.6893    0.7453 C   0  0  0  0  0  0  0  0  0  0  0  0
  -84.3066   32.8312   -0.2061 O   0  0  0  0  0  0  0  0  0  0  0  0
  -85.7651   31.2512   -0.2925 H   0  0  0  0  0  0  0  0  0  0  0  0
  -85.9375   29.3121    1.9521 C   0  0  0  0  0  0  0  0  0  0  0  0
  -84.6037   29.3003    2.6836 C   0  0  0  0  0  0  0  0  0  0  0  0
  -83.8631   28.0572    2.5256 C   0  0  0  0  0  0  0  0  0  0  0  0
  -82.4598   28.0655    2.3453 N   0  0  0  0  0  0  0  0  0  0  0  0
  -84.4543   26.9519    2.5454 O   0  0  0  0  0  0  0  0  0  0  0  0
  -81.8310   27.2414    2.4881 H   0  0  0  0  0  0  0  0  0  0  0  0
  -82.0226   28.9823    2.0440 H   0  0  0  0  0  0  0  0  0  0  0  0
  -90.2380   28.0647    0.0025 C   0  0  0  0  0  0  0  0  0  0  0  0
  -90.6755   25.5850    0.3126 C   0  0  0  0  0  0  0  0  0  0  0  0
  -90.7074   26.7969   -0.5800 C   0  0  0  0  0  0  0  0  0  0  0  0
  -89.7451   26.4607   -1.7400 C   0  0  0  0  0  0  0  0  0  0  0  0
 47 48  1  0  0  0
 48 49  1  0  0  0
 48 46  1  0  0  0
 46 28  1  0  0  0
 28 29  1  0  0  0
 29 30  1  0  0  0
 30 31  2  0  0  0
 30 33  1  0  0  0
 33 39  1  0  0  0
 39 40  1  0  0  0
 40 41  1  0  0  0
 41 42  1  0  0  0
 41 43  2  0  0  0
 33 34  1  0  0  0
 34 35  1  0  0  0
 35 36  1  0  0  0
 35 37  2  0  0  0
 28  1  1  0  0  0
  1  2  2  0  0  0
  1  3  1  0  0  0
  3  5  1  0  0  0
  5 17  1  0  0  0
 17 18  1  0  0  0
 18 19  1  0  0  0
 19 20  1  0  0  0
 20 22  1  0  0  0
 22 23  1  0  0  0
 22 24  2  0  0  0
  5  6  1  0  0  0
  6  7  2  0  0  0
  6  8  1  0  0  0
  8  9  2  0  0  0
  9 10  1  0  0  0
 10 11  2  0  0  0
 11 12  1  0  0  0
 12 13  2  0  0  0
 13 14  1  0  0  0
 14 15  2  0  0  0
 15 16  1  0  0  0
 16  8  1  0  0  0
 15 10  1  0  0  0
 29 32  1  0  0  0
 42 44  1  0  0  0
 42 45  1  0  0  0
 34 38  1  0  0  0
  3  4  1  0  0  0
 20 21  1  0  0  0
 23 25  1  0  0  0
 23 26  1  0  0  0
 24 27  1  0  0  0
M  END
> <minimizedAffinity>
-6.80849

> <CNNscore>
0.1199337170

> <CNNaffinity>
6.8011779785

> <CNN_VS>
0.8156905770

> <CNNaffinity_variance>
0.2267988473

$$$$
[H]N=C(N([H])[H])N([H])C([H])([H])C([H])([H])C([H])([H])[C@@]([H])(C(=O)c1nc2c([H])c([H])c([H])c([H])c2s1)N([H])C(=O)[C@@]([H])(N([H])C(=O)[C@@]([H])(N([H])C(=O)C([H])([H])[H])C([H])([H])C([H])([H])C(=O)N([H])[H])C([H])([H])C([H])(C([H])([H])[H])C([H])([H])[H]


 49 50  0  0  0  0  0  0  0  0999 V2000
  -89.0055   28.4093   -2.3639 C   0  0  0  0  0  0  0  0  0  0  0  0
  -88.1029   28.4703   -3.2135 O   0  0  0  0  0  0  0  0  0  0  0  0
  -89.4398   29.6273   -1.7996 N   0  0  0  0  0  0  0  0  0  0  0  0
  -90.1861   29.7305   -1.0916 H   0  0  0  0  0  0  0  0  0  0  0  0
  -88.8252   30.9037   -2.2236 C   0  0  0  0  0  0  0  0  0  0  0  0
  -88.3659   31.6860   -1.0696 C   0  0  0  0  0  0  0  0  0  0  0  0
  -89.0646   32.5986   -0.6079 O   0  0  0  0  0  0  0  0  0  0  0  0
  -87.0609   31.3403   -0.4964 C   0  0  0  0  0  0  0  0  0  0  0  0
  -85.9387   31.9938   -0.4231 N   0  0  0  0  0  0  0  0  0  0  0  0
  -84.9008   31.4941    0.1750 C   0  0  0  0  0  0  0  0  0  0  0  0
  -83.6461   32.0885    0.3221 C   0  0  0  0  0  0  0  0  0  0  0  0
  -82.6419   31.4550    0.9754 C   0  0  0  0  0  0  0  0  0  0  0  0
  -82.7571   30.1839    1.5470 C   0  0  0  0  0  0  0  0  0  0  0  0
  -83.9921   29.6014    1.4001 C   0  0  0  0  0  0  0  0  0  0  0  0
  -85.0302   30.2444    0.7314 C   0  0  0  0  0  0  0  0  0  0  0  0
  -86.6543   29.8815    0.3464 S   0  0  0  0  0  0  0  0  0  0  0  0
  -89.8732   31.6592   -3.0475 C   0  0  0  0  0  0  0  0  0  0  0  0
  -89.5111   31.6194   -4.5132 C   0  0  0  0  0  0  0  0  0  0  0  0
  -88.0105   31.8562   -4.6839 C   0  0  0  0  0  0  0  0  0  0  0  0
  -87.7267   33.2787   -4.5897 N   0  0  0  0  0  0  0  0  0  0  0  0
  -87.9104   33.8972   -5.4436 H   0  0  0  0  0  0  0  0  0  0  0  0
  -87.2198   33.9574   -3.4762 C   0  0  0  0  0  0  0  0  0  0  0  0
  -85.8664   33.6863   -3.0762 N   0  0  0  0  0  0  0  0  0  0  0  0
  -87.8790   34.8121   -2.7932 N   0  0  0  0  0  0  0  0  0  0  0  0
  -85.5961   32.8185   -2.6089 H   0  0  0  0  0  0  0  0  0  0  0  0
  -85.1777   34.4501   -3.3056 H   0  0  0  0  0  0  0  0  0  0  0  0
  -87.5123   35.3073   -1.9786 H   0  0  0  0  0  0  0  0  0  0  0  0
  -89.6014   27.1383   -1.9597 C   0  0  0  0  0  0  0  0  0  0  0  0
  -89.8277   26.9054   -0.5760 N   0  0  0  0  0  0  0  0  0  0  0  0
  -89.7016   25.7764    0.2122 C   0  0  0  0  0  0  0  0  0  0  0  0
  -89.2884   24.6267   -0.1292 O   0  0  0  0  0  0  0  0  0  0  0  0
  -90.1684   27.8085   -0.0695 H   0  0  0  0  0  0  0  0  0  0  0  0
  -90.0819   25.7974    1.6888 C   0  0  0  0  0  0  0  0  0  0  0  0
  -90.5547   24.5818    2.1202 N   0  0  0  0  0  0  0  0  0  0  0  0
  -91.0244   23.3851    2.5534 C   0  0  0  0  0  0  0  0  0  0  0  0
  -90.8737   22.1284    1.7234 C   0  0  0  0  0  0  0  0  0  0  0  0
  -91.6261   23.1728    3.6586 O   0  0  0  0  0  0  0  0  0  0  0  0
  -90.9041   25.1712    3.3176 H   0  0  0  0  0  0  0  0  0  0  0  0
  -88.8683   26.1747    2.5595 C   0  0  0  0  0  0  0  0  0  0  0  0
  -89.2887   25.7859    3.9688 C   0  0  0  0  0  0  0  0  0  0  0  0
  -90.2671   26.6900    4.5556 C   0  0  0  0  0  0  0  0  0  0  0  0
  -90.0088   28.0779    4.6498 N   0  0  0  0  0  0  0  0  0  0  0  0
  -91.3601   26.2569    4.9908 O   0  0  0  0  0  0  0  0  0  0  0  0
  -90.7354   28.8150    4.8037 H   0  0  0  0  0  0  0  0  0  0  0  0
  -88.9988   28.3831    4.5541 H   0  0  0  0  0  0  0  0  0  0  0  0
  -90.6238   26.5991   -2.8612 C   0  0  0  0  0  0  0  0  0  0  0  0
  -92.7413   27.9409   -2.4712 C   0  0  0  0  0  0  0  0  0  0  0  0
  -91.6706   27.4707   -3.4194 C   0  0  0  0  0  0  0  0  0  0  0  0
  -92.4197   26.6369   -4.4816 C   0  0  0  0  0  0  0  0  0  0  0  0
 47 48  1  0  0  0
 48 49  1  0  0  0
 48 46  1  0  0  0
 46 28  1  0  0  0
 28 29  1  0  0  0
 29 30  1  0  0  0
 30 31  2  0  0  0
 30 33  1  0  0  0
 33 39  1  0  0  0
 39 40  1  0  0  0
 40 41  1  0  0  0
 41 42  1  0  0  0
 41 43  2  0  0  0
 33 34  1  0  0  0
 34 35  1  0  0  0
 35 36  1  0  0  0
 35 37  2  0  0  0
 28  1  1  0  0  0
  1  2  2  0  0  0
  1  3  1  0  0  0
  3  5  1  0  0  0
  5 17  1  0  0  0
 17 18  1  0  0  0
 18 19  1  0  0  0
 19 20  1  0  0  0
 20 22  1  0  0  0
 22 23  1  0  0  0
 22 24  2  0  0  0
  5  6  1  0  0  0
  6  7  2  0  0  0
  6  8  1  0  0  0
  8  9  2  0  0  0
  9 10  1  0  0  0
 10 11  2  0  0  0
 11 12  1  0  0  0
 12 13  2  0  0  0
 13 14  1  0  0  0
 14 15  2  0  0  0
 15 16  1  0  0  0
 16  8  1  0  0  0
 15 10  1  0  0  0
 29 32  1  0  0  0
 42 44  1  0  0  0
 42 45  1  0  0  0
 34 38  1  0  0  0
  3  4  1  0  0  0
 20 21  1  0  0  0
 23 25  1  0  0  0
 23 26  1  0  0  0
 24 27  1  0  0  0
M  END
> <minimizedAffinity>
-8.62323

> <CNNscore>
0.1073612571

> <CNNaffinity>
6.2952013016

> <CNN_VS>
0.6758607030

> <CNNaffinity_variance>
0.9702612162

$$$$
[H]N=C(N([H])[H])N([H])C([H])([H])C([H])([H])C([H])([H])[C@@]([H])(C(=O)c1nc2c([H])c([H])c([H])c([H])c2s1)N([H])C(=O)[C@@]([H])(N([H])C(=O)[C@@]([H])(N([H])C(=O)C([H])([H])[H])C([H])([H])C([H])([H])C(=O)N([H])[H])C([H])([H])C([H])(C([H])([H])[H])C([H])([H])[H]


 49 50  0  0  0  0  0  0  0  0999 V2000
  -89.7748   27.5077   -0.3421 C   0  0  0  0  0  0  0  0  0  0  0  0
  -89.7309   26.3090   -0.0238 O   0  0  0  0  0  0  0  0  0  0  0  0
  -89.4501   28.4498    0.6568 N   0  0  0  0  0  0  0  0  0  0  0  0
  -89.4344   29.4762    0.5339 H   0  0  0  0  0  0  0  0  0  0  0  0
  -89.0783   27.9956    2.0140 C   0  0  0  0  0  0  0  0  0  0  0  0
  -87.7586   27.3530    2.0206 C   0  0  0  0  0  0  0  0  0  0  0  0
  -87.6466   26.1447    2.2689 O   0  0  0  0  0  0  0  0  0  0  0  0
  -86.5961   28.1962    1.7223 C   0  0  0  0  0  0  0  0  0  0  0  0
  -86.4721   29.3108    1.0635 N   0  0  0  0  0  0  0  0  0  0  0  0
  -85.3261   29.9108    0.9558 C   0  0  0  0  0  0  0  0  0  0  0  0
  -85.0602   31.1037    0.2809 C   0  0  0  0  0  0  0  0  0  0  0  0
  -83.8106   31.6270    0.2468 C   0  0  0  0  0  0  0  0  0  0  0  0
  -82.6987   31.0431    0.8620 C   0  0  0  0  0  0  0  0  0  0  0  0
  -82.9631   29.8695    1.5244 C   0  0  0  0  0  0  0  0  0  0  0  0
  -84.2435   29.3244    1.5658 C   0  0  0  0  0  0  0  0  0  0  0  0
  -84.9672   27.9392    2.2553 S   0  0  0  0  0  0  0  0  0  0  0  0
  -90.1810   27.0445    2.4910 C   0  0  0  0  0  0  0  0  0  0  0  0
  -90.6736   27.4613    3.8565 C   0  0  0  0  0  0  0  0  0  0  0  0
  -90.3317   26.3818    4.8836 C   0  0  0  0  0  0  0  0  0  0  0  0
  -90.5151   25.0675    4.2900 N   0  0  0  0  0  0  0  0  0  0  0  0
  -91.4609   24.8300    3.8490 H   0  0  0  0  0  0  0  0  0  0  0  0
  -89.5685   24.0391    4.2293 C   0  0  0  0  0  0  0  0  0  0  0  0
  -89.9369   22.8178    3.5674 N   0  0  0  0  0  0  0  0  0  0  0  0
  -88.3905   24.1159    4.7170 N   0  0  0  0  0  0  0  0  0  0  0  0
  -90.5758   22.1385    3.9857 H   0  0  0  0  0  0  0  0  0  0  0  0
  -89.4994   22.6815    2.6186 H   0  0  0  0  0  0  0  0  0  0  0  0
  -87.6983   23.3660    4.6761 H   0  0  0  0  0  0  0  0  0  0  0  0
  -90.1427   27.9364   -1.6892 C   0  0  0  0  0  0  0  0  0  0  0  0
  -89.7497   29.2329   -2.1190 N   0  0  0  0  0  0  0  0  0  0  0  0
  -88.5128   29.7948   -2.3757 C   0  0  0  0  0  0  0  0  0  0  0  0
  -87.3748   29.2366   -2.3252 O   0  0  0  0  0  0  0  0  0  0  0  0
  -90.6117   29.8851   -2.2604 H   0  0  0  0  0  0  0  0  0  0  0  0
  -88.3782   31.2612   -2.7718 C   0  0  0  0  0  0  0  0  0  0  0  0
  -89.3409   31.6457   -3.6734 N   0  0  0  0  0  0  0  0  0  0  0  0
  -90.2958   32.0181   -4.5621 C   0  0  0  0  0  0  0  0  0  0  0  0
  -90.2072   33.3271   -5.3168 C   0  0  0  0  0  0  0  0  0  0  0  0
  -91.3412   31.3501   -4.8613 O   0  0  0  0  0  0  0  0  0  0  0  0
  -89.9614   30.4269   -3.4921 H   0  0  0  0  0  0  0  0  0  0  0  0
  -88.4900   32.1730   -1.5351 C   0  0  0  0  0  0  0  0  0  0  0  0
  -88.3039   33.5764   -2.0919 C   0  0  0  0  0  0  0  0  0  0  0  0
  -86.9184   33.9046   -2.3945 C   0  0  0  0  0  0  0  0  0  0  0  0
  -86.5390   34.3312   -3.6891 N   0  0  0  0  0  0  0  0  0  0  0  0
  -86.0313   33.8153   -1.5133 O   0  0  0  0  0  0  0  0  0  0  0  0
  -85.6482   34.8291   -3.9204 H   0  0  0  0  0  0  0  0  0  0  0  0
  -87.2172   34.1270   -4.4770 H   0  0  0  0  0  0  0  0  0  0  0  0
  -90.1047   26.8959   -2.7211 C   0  0  0  0  0  0  0  0  0  0  0  0
  -92.5828   27.2437   -3.1383 C   0  0  0  0  0  0  0  0  0  0  0  0
  -91.3452   26.4129   -3.3493 C   0  0  0  0  0  0  0  0  0  0  0  0
  -91.6674   25.0494   -2.7001 C   0  0  0  0  0  0  0  0  0  0  0  0
 47 48  1  0  0  0
 48 49  1  0  0  0
 48 46  1  0  0  0
 46 28  1  0  0  0
 28 29  1  0  0  0
 29 30  1  0  0  0
 30 31  2  0  0  0
 30 33  1  0  0  0
 33 39  1  0  0  0
 39 40  1  0  0  0
 40 41  1  0  0  0
 41 42  1  0  0  0
 41 43  2  0  0  0
 33 34  1  0  0  0
 34 35  1  0  0  0
 35 36  1  0  0  0
 35 37  2  0  0  0
 28  1  1  0  0  0
  1  2  2  0  0  0
  1  3  1  0  0  0
  3  5  1  0  0  0
  5 17  1  0  0  0
 17 18  1  0  0  0
 18 19  1  0  0  0
 19 20  1  0  0  0
 20 22  1  0  0  0
 22 23  1  0  0  0
 22 24  2  0  0  0
  5  6  1  0  0  0
  6  7  2  0  0  0
  6  8  1  0  0  0
  8  9  2  0  0  0
  9 10  1  0  0  0
 10 11  2  0  0  0
 11 12  1  0  0  0
 12 13  2  0  0  0
 13 14  1  0  0  0
 14 15  2  0  0  0
 15 16  1  0  0  0
 16  8  1  0  0  0
 15 10  1  0  0  0
 29 32  1  0  0  0
 42 44  1  0  0  0
 42 45  1  0  0  0
 34 38  1  0  0  0
  3  4  1  0  0  0
 20 21  1  0  0  0
 23 25  1  0  0  0
 23 26  1  0  0  0
 24 27  1  0  0  0
M  END
> <minimizedAffinity>
-7.89449

> <CNNscore>
0.0972031355

> <CNNaffinity>
6.8897895813

> <CNN_VS>
0.6697091460

> <CNNaffinity_variance>
0.3100811541

$$$$
[H]N=C(N([H])[H])N([H])C([H])([H])C([H])([H])C([H])([H])[C@@]([H])(C(=O)c1nc2c([H])c([H])c([H])c([H])c2s1)N([H])C(=O)[C@@]([H])(N([H])C(=O)[C@@]([H])(N([H])C(=O)C([H])([H])[H])C([H])([H])C([H])([H])C(=O)N([H])[H])C([H])([H])C([H])(C([H])([H])[H])C([H])([H])[H]


 49 50  0  0  0  0  0  0  0  0999 V2000
  -89.1013   28.2559   -2.4577 C   0  0  0  0  0  0  0  0  0  0  0  0
  -88.1265   28.3669   -3.2177 O   0  0  0  0  0  0  0  0  0  0  0  0
  -89.5621   29.4314   -1.8281 N   0  0  0  0  0  0  0  0  0  0  0  0
  -90.3659   29.4921   -1.1808 H   0  0  0  0  0  0  0  0  0  0  0  0
  -88.8901   30.7236   -2.0837 C   0  0  0  0  0  0  0  0  0  0  0  0
  -88.4876   31.3746   -0.8312 C   0  0  0  0  0  0  0  0  0  0  0  0
  -89.0966   32.3689   -0.4132 O   0  0  0  0  0  0  0  0  0  0  0  0
  -87.3485   30.7999   -0.1078 C   0  0  0  0  0  0  0  0  0  0  0  0
  -87.1769   29.6528    0.4811 N   0  0  0  0  0  0  0  0  0  0  0  0
  -86.0475   29.3390    1.0383 C   0  0  0  0  0  0  0  0  0  0  0  0
  -85.7360   28.1488    1.6984 C   0  0  0  0  0  0  0  0  0  0  0  0
  -84.5095   27.9458    2.2376 C   0  0  0  0  0  0  0  0  0  0  0  0
  -83.4679   28.8778    2.1904 C   0  0  0  0  0  0  0  0  0  0  0  0
  -83.7773   30.0478    1.5411 C   0  0  0  0  0  0  0  0  0  0  0  0
  -85.0341   30.2653    0.9832 C   0  0  0  0  0  0  0  0  0  0  0  0
  -85.7942   31.5308    0.1237 S   0  0  0  0  0  0  0  0  0  0  0  0
  -89.8636   31.5882   -2.8917 C   0  0  0  0  0  0  0  0  0  0  0  0
  -89.5718   31.4600   -4.3681 C   0  0  0  0  0  0  0  0  0  0  0  0
  -88.1557   31.9550   -4.6623 C   0  0  0  0  0  0  0  0  0  0  0  0
  -88.0839   33.3898   -4.4398 N   0  0  0  0  0  0  0  0  0  0  0  0
  -88.8981   34.0022   -4.7674 H   0  0  0  0  0  0  0  0  0  0  0  0
  -87.0366   34.0891   -3.8303 C   0  0  0  0  0  0  0  0  0  0  0  0
  -86.8809   35.4832   -4.1427 N   0  0  0  0  0  0  0  0  0  0  0  0
  -86.2109   33.5718   -3.0043 N   0  0  0  0  0  0  0  0  0  0  0  0
  -86.5099   35.8063   -5.0385 H   0  0  0  0  0  0  0  0  0  0  0  0
  -87.1819   36.1424   -3.3778 H   0  0  0  0  0  0  0  0  0  0  0  0
  -85.4442   34.0793   -2.5596 H   0  0  0  0  0  0  0  0  0  0  0  0
  -89.7528   26.9702   -2.2197 C   0  0  0  0  0  0  0  0  0  0  0  0
  -90.0489   26.5981   -0.8803 N   0  0  0  0  0  0  0  0  0  0  0  0
  -89.2640   26.1045    0.1453 C   0  0  0  0  0  0  0  0  0  0  0  0
  -88.0125   25.8969    0.1416 O   0  0  0  0  0  0  0  0  0  0  0  0
  -91.1056   26.7369   -0.6516 H   0  0  0  0  0  0  0  0  0  0  0  0
  -89.8709   25.7233    1.4912 C   0  0  0  0  0  0  0  0  0  0  0  0
  -90.2710   26.8235    2.2103 N   0  0  0  0  0  0  0  0  0  0  0  0
  -90.6705   27.9126    2.9136 C   0  0  0  0  0  0  0  0  0  0  0  0
  -90.2386   28.1307    4.3477 C   0  0  0  0  0  0  0  0  0  0  0  0
  -91.4257   28.8465    2.4821 O   0  0  0  0  0  0  0  0  0  0  0  0
  -90.8855   27.3104    1.0751 H   0  0  0  0  0  0  0  0  0  0  0  0
  -91.0945   24.8074    1.2983 C   0  0  0  0  0  0  0  0  0  0  0  0
  -90.6256   23.4517    1.8050 C   0  0  0  0  0  0  0  0  0  0  0  0
  -90.6469   23.3324    3.2556 C   0  0  0  0  0  0  0  0  0  0  0  0
  -89.4720   23.0110    3.9754 N   0  0  0  0  0  0  0  0  0  0  0  0
  -91.7084   23.5115    3.8980 O   0  0  0  0  0  0  0  0  0  0  0  0
  -89.3357   23.1633    5.0016 H   0  0  0  0  0  0  0  0  0  0  0  0
  -88.6747   22.5856    3.4224 H   0  0  0  0  0  0  0  0  0  0  0  0
  -90.7487   26.5669   -3.2168 C   0  0  0  0  0  0  0  0  0  0  0  0
  -93.0794   27.2713   -2.5041 C   0  0  0  0  0  0  0  0  0  0  0  0
  -91.9356   27.3986   -3.4746 C   0  0  0  0  0  0  0  0  0  0  0  0
  -92.5126   26.9368   -4.8305 C   0  0  0  0  0  0  0  0  0  0  0  0
 47 48  1  0  0  0
 48 49  1  0  0  0
 48 46  1  0  0  0
 46 28  1  0  0  0
 28 29  1  0  0  0
 29 30  1  0  0  0
 30 31  2  0  0  0
 30 33  1  0  0  0
 33 39  1  0  0  0
 39 40  1  0  0  0
 40 41  1  0  0  0
 41 42  1  0  0  0
 41 43  2  0  0  0
 33 34  1  0  0  0
 34 35  1  0  0  0
 35 36  1  0  0  0
 35 37  2  0  0  0
 28  1  1  0  0  0
  1  2  2  0  0  0
  1  3  1  0  0  0
  3  5  1  0  0  0
  5 17  1  0  0  0
 17 18  1  0  0  0
 18 19  1  0  0  0
 19 20  1  0  0  0
 20 22  1  0  0  0
 22 23  1  0  0  0
 22 24  2  0  0  0
  5  6  1  0  0  0
  6  7  2  0  0  0
  6  8  1  0  0  0
  8  9  2  0  0  0
  9 10  1  0  0  0
 10 11  2  0  0  0
 11 12  1  0  0  0
 12 13  2  0  0  0
 13 14  1  0  0  0
 14 15  2  0  0  0
 15 16  1  0  0  0
 16  8  1  0  0  0
 15 10  1  0  0  0
 29 32  1  0  0  0
 42 44  1  0  0  0
 42 45  1  0  0  0
 34 38  1  0  0  0
  3  4  1  0  0  0
 20 21  1  0  0  0
 23 25  1  0  0  0
 23 26  1  0  0  0
 24 27  1  0  0  0
M  END
> <minimizedAffinity>
-8.29118

> <CNNscore>
0.0952107012

> <CNNaffinity>
6.3162050247

> <CNN_VS>
0.6013703346

> <CNNaffinity_variance>
1.1343606710

$$$$
[H]C1=C([H])C([H])(F)C([H])([H])C([H])=C1N([H])C(=O)C1(C(=O)N([H])c2c([H])c([H])c(Oc3c([H])c([H])nc4c([H])c(OC([H])([H])C([H])([H])C([H])([H])N5C([H])([H])C([H])([H])C([H])([H])C([H])([H])C5([H])[H])c(OC([H])([H])[H])c([H])c34)c(F)c2[H])C([H])([H])C1([H])[H]


 48 53  0  0  0  0  0  0  0  0999 V2000
  -86.2291   28.8573    1.3835 C   0  0  0  0  0  0  0  0  0  0  0  0
  -87.3174   28.8875    0.5376 C   0  0  0  0  0  0  0  0  0  0  0  0
  -87.9074   27.6999    0.1027 C   0  0  0  0  0  0  0  0  0  0  0  0
  -87.4534   26.4746    0.4794 C   0  0  0  0  0  0  0  0  0  0  0  0
  -86.3597   26.4464    1.3292 C   0  0  0  0  0  0  0  0  0  0  0  0
  -85.7690   27.6131    1.7644 C   0  0  0  0  0  0  0  0  0  0  0  0
  -84.6727   27.5058    2.5832 F   0  0  0  0  0  0  0  0  0  0  0  0
  -87.9892   25.2296    0.0436 N   0  0  0  0  0  0  0  0  0  0  0  0
  -89.3475   24.9344    0.0671 C   0  0  0  0  0  0  0  0  0  0  0  0
  -90.1125   25.8906    0.4845 O   0  0  0  0  0  0  0  0  0  0  0  0
  -87.2472   24.5731   -0.3284 H   0  0  0  0  0  0  0  0  0  0  0  0
  -90.0661   23.6985   -0.3183 C   0  0  0  0  0  0  0  0  0  0  0  0
  -91.1688   23.8737   -1.3193 C   0  0  0  0  0  0  0  0  0  0  0  0
  -89.8607   23.3726   -1.7793 C   0  0  0  0  0  0  0  0  0  0  0  0
  -90.2975   22.5671    0.5935 C   0  0  0  0  0  0  0  0  0  0  0  0
  -91.2802   22.7785    1.4316 O   0  0  0  0  0  0  0  0  0  0  0  0
  -89.6289   21.3543    0.6804 N   0  0  0  0  0  0  0  0  0  0  0  0
  -88.8092   21.1401    0.0871 H   0  0  0  0  0  0  0  0  0  0  0  0
  -89.9951   20.3419    1.6311 C   0  0  0  0  0  0  0  0  0  0  0  0
  -90.9652   19.4837    1.3862 C   0  0  0  0  0  0  0  0  0  0  0  0
  -91.3542   18.4366    2.3558 C   0  0  0  0  0  0  0  0  0  0  0  0
  -90.5776   18.3586    3.6032 C   0  0  0  0  0  0  0  0  0  0  0  0
  -90.0292   17.0655    3.6969 F   0  0  0  0  0  0  0  0  0  0  0  0
  -89.5249   19.3614    3.7733 C   0  0  0  0  0  0  0  0  0  0  0  0
  -89.2567   20.2710    2.8697 C   0  0  0  0  0  0  0  0  0  0  0  0
  -85.6249   30.0215    1.8275 O   0  0  0  0  0  0  0  0  0  0  0  0
  -87.1607   32.8426   -0.7663 C   0  0  0  0  0  0  0  0  0  0  0  0
  -86.6512   31.9004    0.1007 C   0  0  0  0  0  0  0  0  0  0  0  0
  -85.2876   31.7241    0.2363 C   0  0  0  0  0  0  0  0  0  0  0  0
  -84.7433   30.7739    1.1122 C   0  0  0  0  0  0  0  0  0  0  0  0
  -83.3817   30.6166    1.2331 C   0  0  0  0  0  0  0  0  0  0  0  0
  -82.5313   31.4063    0.4788 C   0  0  0  0  0  0  0  0  0  0  0  0
  -83.0567   32.3148   -0.3593 N   0  0  0  0  0  0  0  0  0  0  0  0
  -84.3913   32.4795   -0.4862 C   0  0  0  0  0  0  0  0  0  0  0  0
  -84.9192   33.4262   -1.3574 C   0  0  0  0  0  0  0  0  0  0  0  0
  -86.2895   33.6136   -1.5032 C   0  0  0  0  0  0  0  0  0  0  0  0
  -89.4306   31.9521   -0.6756 C   0  0  0  0  0  0  0  0  0  0  0  0
  -88.5314   33.0254   -0.9071 O   0  0  0  0  0  0  0  0  0  0  0  0
  -86.8210   34.5557   -2.3712 O   0  0  0  0  0  0  0  0  0  0  0  0
  -86.9840   34.1677   -3.7287 C   0  0  0  0  0  0  0  0  0  0  0  0
  -87.3279   35.4047   -4.5452 C   0  0  0  0  0  0  0  0  0  0  0  0
  -88.4455   35.0593   -5.4748 C   0  0  0  0  0  0  0  0  0  0  0  0
  -89.5081   34.4123   -4.7692 N   0  0  0  0  0  0  0  0  0  0  0  0
  -90.3947   35.4134   -4.1713 C   0  0  0  0  0  0  0  0  0  0  0  0
  -91.7006   35.5030   -4.8910 C   0  0  0  0  0  0  0  0  0  0  0  0
  -91.5842   35.3923   -6.3964 C   0  0  0  0  0  0  0  0  0  0  0  0
  -90.7949   34.2035   -6.8323 C   0  0  0  0  0  0  0  0  0  0  0  0
  -90.2609   33.5088   -5.6093 C   0  0  0  0  0  0  0  0  0  0  0  0
 37 38  1  0  0  0
 38 27  1  0  0  0
 27 28  2  0  0  0
 28 29  1  0  0  0
 29 30  2  0  0  0
 30 26  1  0  0  0
 26  1  1  0  0  0
  1  2  2  0  0  0
  2  3  1  0  0  0
  3  4  2  0  0  0
  4  8  1  0  0  0
  8  9  1  0  0  0
  9 10  2  0  0  0
  9 12  1  0  0  0
 12 13  1  0  0  0
 13 14  1  0  0  0
 12 15  1  0  0  0
 15 16  2  0  0  0
 15 17  1  0  0  0
 17 19  1  0  0  0
 19 20  2  0  0  0
 20 21  1  0  0  0
 21 22  1  0  0  0
 22 23  1  0  0  0
 22 24  1  0  0  0
 24 25  2  0  0  0
  4  5  1  0  0  0
  5  6  2  0  0  0
  6  7  1  0  0  0
 30 31  1  0  0  0
 31 32  2  0  0  0
 32 33  1  0  0  0
 33 34  2  0  0  0
 34 35  1  0  0  0
 35 36  2  0  0  0
 36 39  1  0  0  0
 39 40  1  0  0  0
 40 41  1  0  0  0
 41 42  1  0  0  0
 42 43  1  0  0  0
 43 44  1  0  0  0
 44 45  1  0  0  0
 45 46  1  0  0  0
 46 47  1  0  0  0
 47 48  1  0  0  0
 36 27  1  0  0  0
 48 43  1  0  0  0
 34 29  1  0  0  0
  6  1  1  0  0  0
 14 12  1  0  0  0
 25 19  1  0  0  0
  8 11  1  0  0  0
 17 18  1  0  0  0
M  END
> <minimizedAffinity>
-9.55087

> <CNNscore>
0.7003557682

> <CNNaffinity>
7.6816511154

> <CNN_VS>
5.3798885345

> <CNNaffinity_variance>
0.0812298059

$$$$
[H]C1=C([H])C([H])(F)C([H])([H])C([H])=C1N([H])C(=O)C1(C(=O)N([H])c2c([H])c([H])c(Oc3c([H])c([H])nc4c([H])c(OC([H])([H])C([H])([H])C([H])([H])N5C([H])([H])C([H])([H])C([H])([H])C([H])([H])C5([H])[H])c(OC([H])([H])[H])c([H])c34)c(F)c2[H])C([H])([H])C1([H])[H]


 48 53  0  0  0  0  0  0  0  0999 V2000
  -86.3081   28.8212    1.3603 C   0  0  0  0  0  0  0  0  0  0  0  0
  -87.4095   28.8649    0.5322 C   0  0  0  0  0  0  0  0  0  0  0  0
  -87.9724   27.6856    0.0424 C   0  0  0  0  0  0  0  0  0  0  0  0
  -87.4783   26.4556    0.3464 C   0  0  0  0  0  0  0  0  0  0  0  0
  -86.3714   26.4138    1.1784 C   0  0  0  0  0  0  0  0  0  0  0  0
  -85.8073   27.5723    1.6676 C   0  0  0  0  0  0  0  0  0  0  0  0
  -84.6961   27.4534    2.4644 F   0  0  0  0  0  0  0  0  0  0  0  0
  -87.9854   25.2206   -0.1482 N   0  0  0  0  0  0  0  0  0  0  0  0
  -89.3061   24.8188    0.0153 C   0  0  0  0  0  0  0  0  0  0  0  0
  -90.0691   25.6669    0.6256 O   0  0  0  0  0  0  0  0  0  0  0  0
  -87.2587   24.6636   -0.6789 H   0  0  0  0  0  0  0  0  0  0  0  0
  -89.9878   23.5736   -0.4055 C   0  0  0  0  0  0  0  0  0  0  0  0
  -91.2774   23.7582   -1.1482 C   0  0  0  0  0  0  0  0  0  0  0  0
  -90.0514   23.4601   -1.9109 C   0  0  0  0  0  0  0  0  0  0  0  0
  -89.9444   22.3171    0.3589 C   0  0  0  0  0  0  0  0  0  0  0  0
  -89.0250   21.4898   -0.0690 O   0  0  0  0  0  0  0  0  0  0  0  0
  -90.7274   21.9092    1.4294 N   0  0  0  0  0  0  0  0  0  0  0  0
  -91.5073   22.4877    1.7858 H   0  0  0  0  0  0  0  0  0  0  0  0
  -90.5428   20.6404    2.0765 C   0  0  0  0  0  0  0  0  0  0  0  0
  -89.8233   20.5241    3.1749 C   0  0  0  0  0  0  0  0  0  0  0  0
  -89.6233   19.2242    3.8518 C   0  0  0  0  0  0  0  0  0  0  0  0
  -90.3036   18.0560    3.2706 C   0  0  0  0  0  0  0  0  0  0  0  0
  -91.1338   17.4962    4.2601 F   0  0  0  0  0  0  0  0  0  0  0  0
  -91.0744   18.2977    2.0498 C   0  0  0  0  0  0  0  0  0  0  0  0
  -91.1850   19.4822    1.5016 C   0  0  0  0  0  0  0  0  0  0  0  0
  -85.7302   29.9771    1.8579 O   0  0  0  0  0  0  0  0  0  0  0  0
  -87.1744   32.8014   -0.7846 C   0  0  0  0  0  0  0  0  0  0  0  0
  -86.6955   31.8580    0.0984 C   0  0  0  0  0  0  0  0  0  0  0  0
  -85.3383   31.7030    0.3049 C   0  0  0  0  0  0  0  0  0  0  0  0
  -84.8250   30.7522    1.1987 C   0  0  0  0  0  0  0  0  0  0  0  0
  -83.4692   30.6164    1.3905 C   0  0  0  0  0  0  0  0  0  0  0  0
  -82.5937   31.4287    0.6910 C   0  0  0  0  0  0  0  0  0  0  0  0
  -83.0894   32.3377   -0.1644 N   0  0  0  0  0  0  0  0  0  0  0  0
  -84.4180   32.4816   -0.3608 C   0  0  0  0  0  0  0  0  0  0  0  0
  -84.9150   33.4291   -1.2490 C   0  0  0  0  0  0  0  0  0  0  0  0
  -86.2787   33.5952   -1.4658 C   0  0  0  0  0  0  0  0  0  0  0  0
  -89.4325   31.8771   -0.8056 C   0  0  0  0  0  0  0  0  0  0  0  0
  -88.5386   32.9627   -0.9965 O   0  0  0  0  0  0  0  0  0  0  0  0
  -86.7795   34.5380   -2.3511 O   0  0  0  0  0  0  0  0  0  0  0  0
  -86.9838   34.1219   -3.6946 C   0  0  0  0  0  0  0  0  0  0  0  0
  -87.8628   35.1514   -4.3893 C   0  0  0  0  0  0  0  0  0  0  0  0
  -87.0157   36.3295   -4.7460 C   0  0  0  0  0  0  0  0  0  0  0  0
  -87.8199   37.3908   -5.2677 N   0  0  0  0  0  0  0  0  0  0  0  0
  -89.0835   37.4705   -4.5311 C   0  0  0  0  0  0  0  0  0  0  0  0
  -89.1271   38.6572   -3.6250 C   0  0  0  0  0  0  0  0  0  0  0  0
  -87.8176   38.9452   -2.9220 C   0  0  0  0  0  0  0  0  0  0  0  0
  -86.6574   39.0087   -3.8582 C   0  0  0  0  0  0  0  0  0  0  0  0
  -87.1391   38.6655   -5.2415 C   0  0  0  0  0  0  0  0  0  0  0  0
 37 38  1  0  0  0
 38 27  1  0  0  0
 27 28  2  0  0  0
 28 29  1  0  0  0
 29 30  2  0  0  0
 30 26  1  0  0  0
 26  1  1  0  0  0
  1  2  2  0  0  0
  2  3  1  0  0  0
  3  4  2  0  0  0
  4  8  1  0  0  0
  8  9  1  0  0  0
  9 10  2  0  0  0
  9 12  1  0  0  0
 12 13  1  0  0  0
 13 14  1  0  0  0
 12 15  1  0  0  0
 15 16  2  0  0  0
 15 17  1  0  0  0
 17 19  1  0  0  0
 19 20  2  0  0  0
 20 21  1  0  0  0
 21 22  1  0  0  0
 22 23  1  0  0  0
 22 24  1  0  0  0
 24 25  2  0  0  0
  4  5  1  0  0  0
  5  6  2  0  0  0
  6  7  1  0  0  0
 30 31  1  0  0  0
 31 32  2  0  0  0
 32 33  1  0  0  0
 33 34  2  0  0  0
 34 35  1  0  0  0
 35 36  2  0  0  0
 36 39  1  0  0  0
 39 40  1  0  0  0
 40 41  1  0  0  0
 41 42  1  0  0  0
 42 43  1  0  0  0
 43 44  1  0  0  0
 44 45  1  0  0  0
 45 46  1  0  0  0
 46 47  1  0  0  0
 47 48  1  0  0  0
 36 27  1  0  0  0
 48 43  1  0  0  0
 34 29  1  0  0  0
  6  1  1  0  0  0
 14 12  1  0  0  0
 25 19  1  0  0  0
  8 11  1  0  0  0
 17 18  1  0  0  0
M  END
> <minimizedAffinity>
-9.70065

> <CNNscore>
0.6976961493

> <CNNaffinity>
7.7030715942

> <CNN_VS>
5.3744034767

> <CNNaffinity_variance>
0.0402162671

$$$$
[H]C1=C([H])C([H])(F)C([H])([H])C([H])=C1N([H])C(=O)C1(C(=O)N([H])c2c([H])c([H])c(Oc3c([H])c([H])nc4c([H])c(OC([H])([H])C([H])([H])C([H])([H])N5C([H])([H])C([H])([H])C([H])([H])C([H])([H])C5([H])[H])c(OC([H])([H])[H])c([H])c34)c(F)c2[H])C([H])([H])C1([H])[H]


 48 53  0  0  0  0  0  0  0  0999 V2000
  -88.9342   29.5874   -1.4966 C   0  0  0  0  0  0  0  0  0  0  0  0
  -89.9485   29.9708   -0.6451 C   0  0  0  0  0  0  0  0  0  0  0  0
  -90.4657   29.0711    0.2878 C   0  0  0  0  0  0  0  0  0  0  0  0
  -90.0099   27.7954    0.4074 C   0  0  0  0  0  0  0  0  0  0  0  0
  -88.9908   27.4121   -0.4492 C   0  0  0  0  0  0  0  0  0  0  0  0
  -88.4729   28.2923   -1.3746 C   0  0  0  0  0  0  0  0  0  0  0  0
  -87.4834   27.8329   -2.2075 F   0  0  0  0  0  0  0  0  0  0  0  0
  -90.5186   26.8220    1.3133 N   0  0  0  0  0  0  0  0  0  0  0  0
  -89.8778   26.4739    2.4968 C   0  0  0  0  0  0  0  0  0  0  0  0
  -88.7883   27.1255    2.7464 O   0  0  0  0  0  0  0  0  0  0  0  0
  -91.4480   26.4218    1.0036 H   0  0  0  0  0  0  0  0  0  0  0  0
  -90.2464   25.4781    3.5288 C   0  0  0  0  0  0  0  0  0  0  0  0
  -89.5316   25.6073    4.8407 C   0  0  0  0  0  0  0  0  0  0  0  0
  -90.9032   26.1346    4.7206 C   0  0  0  0  0  0  0  0  0  0  0  0
  -90.6396   24.0926    3.2272 C   0  0  0  0  0  0  0  0  0  0  0  0
  -91.7103   23.7122    3.8765 O   0  0  0  0  0  0  0  0  0  0  0  0
  -90.0402   23.1707    2.3809 N   0  0  0  0  0  0  0  0  0  0  0  0
  -89.1620   23.3835    1.8775 H   0  0  0  0  0  0  0  0  0  0  0  0
  -90.5668   21.8484    2.1892 C   0  0  0  0  0  0  0  0  0  0  0  0
  -91.3354   21.5541    1.1595 C   0  0  0  0  0  0  0  0  0  0  0  0
  -91.8859   20.1974    0.9495 C   0  0  0  0  0  0  0  0  0  0  0  0
  -91.5021   19.1620    1.9223 C   0  0  0  0  0  0  0  0  0  0  0  0
  -90.8816   18.1112    1.2207 F   0  0  0  0  0  0  0  0  0  0  0  0
  -90.6472   19.5984    3.0275 C   0  0  0  0  0  0  0  0  0  0  0  0
  -90.2175   20.8296    3.1508 C   0  0  0  0  0  0  0  0  0  0  0  0
  -88.4054   30.4608   -2.4321 O   0  0  0  0  0  0  0  0  0  0  0  0
  -88.7130   33.6958   -4.9788 C   0  0  0  0  0  0  0  0  0  0  0  0
  -88.6128   32.6144   -4.1304 C   0  0  0  0  0  0  0  0  0  0  0  0
  -87.7832   32.6526   -3.0263 C   0  0  0  0  0  0  0  0  0  0  0  0
  -87.6643   31.5672   -2.1466 C   0  0  0  0  0  0  0  0  0  0  0  0
  -86.8333   31.6278   -1.0515 C   0  0  0  0  0  0  0  0  0  0  0  0
  -86.0999   32.7766   -0.8110 C   0  0  0  0  0  0  0  0  0  0  0  0
  -86.2163   33.8138   -1.6563 N   0  0  0  0  0  0  0  0  0  0  0  0
  -87.0292   33.7671   -2.7340 C   0  0  0  0  0  0  0  0  0  0  0  0
  -87.1397   34.8507   -3.5986 C   0  0  0  0  0  0  0  0  0  0  0  0
  -87.9710   34.8250   -4.7132 C   0  0  0  0  0  0  0  0  0  0  0  0
  -90.9568   33.6837   -5.9374 C   0  0  0  0  0  0  0  0  0  0  0  0
  -89.5461   33.6639   -6.0910 O   0  0  0  0  0  0  0  0  0  0  0  0
  -88.0841   35.9025   -5.5790 O   0  0  0  0  0  0  0  0  0  0  0  0
  -87.0542   36.8809   -5.5347 C   0  0  0  0  0  0  0  0  0  0  0  0
  -86.9065   37.4879   -6.9221 C   0  0  0  0  0  0  0  0  0  0  0  0
  -88.2491   37.9643   -7.3728 C   0  0  0  0  0  0  0  0  0  0  0  0
  -88.1989   39.3463   -7.7373 N   0  0  0  0  0  0  0  0  0  0  0  0
  -86.8466   39.7000   -8.1753 C   0  0  0  0  0  0  0  0  0  0  0  0
  -86.7738   39.9021   -9.6535 C   0  0  0  0  0  0  0  0  0  0  0  0
  -87.5981   38.9151  -10.4524 C   0  0  0  0  0  0  0  0  0  0  0  0
  -89.0095   38.8186   -9.9779 C   0  0  0  0  0  0  0  0  0  0  0  0
  -89.1647   39.6851   -8.7578 C   0  0  0  0  0  0  0  0  0  0  0  0
 37 38  1  0  0  0
 38 27  1  0  0  0
 27 28  2  0  0  0
 28 29  1  0  0  0
 29 30  2  0  0  0
 30 26  1  0  0  0
 26  1  1  0  0  0
  1  2  2  0  0  0
  2  3  1  0  0  0
  3  4  2  0  0  0
  4  8  1  0  0  0
  8  9  1  0  0  0
  9 10  2  0  0  0
  9 12  1  0  0  0
 12 13  1  0  0  0
 13 14  1  0  0  0
 12 15  1  0  0  0
 15 16  2  0  0  0
 15 17  1  0  0  0
 17 19  1  0  0  0
 19 20  2  0  0  0
 20 21  1  0  0  0
 21 22  1  0  0  0
 22 23  1  0  0  0
 22 24  1  0  0  0
 24 25  2  0  0  0
  4  5  1  0  0  0
  5  6  2  0  0  0
  6  7  1  0  0  0
 30 31  1  0  0  0
 31 32  2  0  0  0
 32 33  1  0  0  0
 33 34  2  0  0  0
 34 35  1  0  0  0
 35 36  2  0  0  0
 36 39  1  0  0  0
 39 40  1  0  0  0
 40 41  1  0  0  0
 41 42  1  0  0  0
 42 43  1  0  0  0
 43 44  1  0  0  0
 44 45  1  0  0  0
 45 46  1  0  0  0
 46 47  1  0  0  0
 47 48  1  0  0  0
 36 27  1  0  0  0
 48 43  1  0  0  0
 34 29  1  0  0  0
  6  1  1  0  0  0
 14 12  1  0  0  0
 25 19  1  0  0  0
  8 11  1  0  0  0
 17 18  1  0  0  0
M  END
> <minimizedAffinity>
-8.49078

> <CNNscore>
0.1276341230

> <CNNaffinity>
6.5466980934

> <CNN_VS>
0.8355820775

> <CNNaffinity_variance>
0.1737403870

$$$$
[H]C1=C([H])C([H])(F)C([H])([H])C([H])=C1N([H])C(=O)C1(C(=O)N([H])c2c([H])c([H])c(Oc3c([H])c([H])nc4c([H])c(OC([H])([H])C([H])([H])C([H])([H])N5C([H])([H])C([H])([H])C([H])([H])C([H])([H])C5([H])[H])c(OC([H])([H])[H])c([H])c34)c(F)c2[H])C([H])([H])C1([H])[H]


 48 53  0  0  0  0  0  0  0  0999 V2000
  -88.9085   29.6692   -1.4032 C   0  0  0  0  0  0  0  0  0  0  0  0
  -89.8935   30.0292   -0.5082 C   0  0  0  0  0  0  0  0  0  0  0  0
  -90.3984   29.0970    0.3993 C   0  0  0  0  0  0  0  0  0  0  0  0
  -89.9585   27.8112    0.4511 C   0  0  0  0  0  0  0  0  0  0  0  0
  -88.9690   27.4514   -0.4492 C   0  0  0  0  0  0  0  0  0  0  0  0
  -88.4635   28.3639   -1.3500 C   0  0  0  0  0  0  0  0  0  0  0  0
  -87.5039   27.9275   -2.2290 F   0  0  0  0  0  0  0  0  0  0  0  0
  -90.4569   26.8064    1.3281 N   0  0  0  0  0  0  0  0  0  0  0  0
  -89.8036   26.4189    2.4925 C   0  0  0  0  0  0  0  0  0  0  0  0
  -88.7125   27.0632    2.7533 O   0  0  0  0  0  0  0  0  0  0  0  0
  -91.3889   26.4156    1.0143 H   0  0  0  0  0  0  0  0  0  0  0  0
  -90.1605   25.3876    3.4933 C   0  0  0  0  0  0  0  0  0  0  0  0
  -89.3812   25.4281    4.7738 C   0  0  0  0  0  0  0  0  0  0  0  0
  -90.7365   26.0080    4.7447 C   0  0  0  0  0  0  0  0  0  0  0  0
  -90.6182   24.0329    3.1464 C   0  0  0  0  0  0  0  0  0  0  0  0
  -91.8020   23.7538    3.6299 O   0  0  0  0  0  0  0  0  0  0  0  0
  -89.9780   23.0485    2.4072 N   0  0  0  0  0  0  0  0  0  0  0  0
  -89.0198   23.1791    2.0403 H   0  0  0  0  0  0  0  0  0  0  0  0
  -90.5784   21.7697    2.1485 C   0  0  0  0  0  0  0  0  0  0  0  0
  -91.3251   21.5608    1.0825 C   0  0  0  0  0  0  0  0  0  0  0  0
  -91.9507   20.2499    0.8034 C   0  0  0  0  0  0  0  0  0  0  0  0
  -91.6685   19.1591    1.7500 C   0  0  0  0  0  0  0  0  0  0  0  0
  -91.0889   18.0960    1.0321 F   0  0  0  0  0  0  0  0  0  0  0  0
  -90.8297   19.5016    2.8997 C   0  0  0  0  0  0  0  0  0  0  0  0
  -90.3291   20.6981    3.0834 C   0  0  0  0  0  0  0  0  0  0  0  0
  -88.3925   30.5751   -2.3147 O   0  0  0  0  0  0  0  0  0  0  0  0
  -88.7353   33.9423   -4.6789 C   0  0  0  0  0  0  0  0  0  0  0  0
  -88.6235   32.8170   -3.8914 C   0  0  0  0  0  0  0  0  0  0  0  0
  -87.7502   32.7830   -2.8214 C   0  0  0  0  0  0  0  0  0  0  0  0
  -87.6184   31.6516   -2.0036 C   0  0  0  0  0  0  0  0  0  0  0  0
  -86.7436   31.6404   -0.9415 C   0  0  0  0  0  0  0  0  0  0  0  0
  -85.9781   32.7618   -0.6728 C   0  0  0  0  0  0  0  0  0  0  0  0
  -86.1070   33.8432   -1.4589 N   0  0  0  0  0  0  0  0  0  0  0  0
  -86.9627   33.8670   -2.5037 C   0  0  0  0  0  0  0  0  0  0  0  0
  -87.0855   34.9956   -3.3068 C   0  0  0  0  0  0  0  0  0  0  0  0
  -87.9607   35.0427   -4.3866 C   0  0  0  0  0  0  0  0  0  0  0  0
  -90.8704   33.3297   -5.6888 C   0  0  0  0  0  0  0  0  0  0  0  0
  -89.6124   33.9831   -5.7565 O   0  0  0  0  0  0  0  0  0  0  0  0
  -88.0863   36.1653   -5.1911 O   0  0  0  0  0  0  0  0  0  0  0  0
  -87.4165   37.3451   -4.7673 C   0  0  0  0  0  0  0  0  0  0  0  0
  -88.4586   38.4218   -4.5027 C   0  0  0  0  0  0  0  0  0  0  0  0
  -89.6944   38.0793   -5.2694 C   0  0  0  0  0  0  0  0  0  0  0  0
  -90.7794   37.7996   -4.3806 N   0  0  0  0  0  0  0  0  0  0  0  0
  -91.3591   39.0515   -3.8884 C   0  0  0  0  0  0  0  0  0  0  0  0
  -92.6918   39.3290   -4.5033 C   0  0  0  0  0  0  0  0  0  0  0  0
  -92.7782   38.9772   -5.9732 C   0  0  0  0  0  0  0  0  0  0  0  0
  -92.3136   37.5900   -6.2669 C   0  0  0  0  0  0  0  0  0  0  0  0
  -91.7987   36.9778   -4.9928 C   0  0  0  0  0  0  0  0  0  0  0  0
 37 38  1  0  0  0
 38 27  1  0  0  0
 27 28  2  0  0  0
 28 29  1  0  0  0
 29 30  2  0  0  0
 30 26  1  0  0  0
 26  1  1  0  0  0
  1  2  2  0  0  0
  2  3  1  0  0  0
  3  4  2  0  0  0
  4  8  1  0  0  0
  8  9  1  0  0  0
  9 10  2  0  0  0
  9 12  1  0  0  0
 12 13  1  0  0  0
 13 14  1  0  0  0
 12 15  1  0  0  0
 15 16  2  0  0  0
 15 17  1  0  0  0
 17 19  1  0  0  0
 19 20  2  0  0  0
 20 21  1  0  0  0
 21 22  1  0  0  0
 22 23  1  0  0  0
 22 24  1  0  0  0
 24 25  2  0  0  0
  4  5  1  0  0  0
  5  6  2  0  0  0
  6  7  1  0  0  0
 30 31  1  0  0  0
 31 32  2  0  0  0
 32 33  1  0  0  0
 33 34  2  0  0  0
 34 35  1  0  0  0
 35 36  2  0  0  0
 36 39  1  0  0  0
 39 40  1  0  0  0
 40 41  1  0  0  0
 41 42  1  0  0  0
 42 43  1  0  0  0
 43 44  1  0  0  0
 44 45  1  0  0  0
 45 46  1  0  0  0
 46 47  1  0  0  0
 47 48  1  0  0  0
 36 27  1  0  0  0
 48 43  1  0  0  0
 34 29  1  0  0  0
  6  1  1  0  0  0
 14 12  1  0  0  0
 25 19  1  0  0  0
  8 11  1  0  0  0
 17 18  1  0  0  0
M  END
> <minimizedAffinity>
-8.00133

> <CNNscore>
0.1254260242

> <CNNaffinity>
6.6816544533

> <CNN_VS>
0.8380533457

> <CNNaffinity_variance>
0.2410529405

$$$$
[H]C1=C([H])C([H])(F)C([H])([H])C([H])=C1N([H])C(=O)C1(C(=O)N([H])c2c([H])c([H])c(Oc3c([H])c([H])nc4c([H])c(OC([H])([H])C([H])([H])C([H])([H])N5C([H])([H])C([H])([H])C([H])([H])C([H])([H])C5([H])[H])c(OC([H])([H])[H])c([H])c34)c(F)c2[H])C([H])([H])C1([H])[H]


 48 53  0  0  0  0  0  0  0  0999 V2000
  -86.5727   32.9813   -0.7914 C   0  0  0  0  0  0  0  0  0  0  0  0
  -87.9015   32.9601   -1.1584 C   0  0  0  0  0  0  0  0  0  0  0  0
  -88.2870   33.3569   -2.4396 C   0  0  0  0  0  0  0  0  0  0  0  0
  -87.3955   33.7772   -3.3765 C   0  0  0  0  0  0  0  0  0  0  0  0
  -86.0609   33.7980   -3.0058 C   0  0  0  0  0  0  0  0  0  0  0  0
  -85.6691   33.4087   -1.7430 C   0  0  0  0  0  0  0  0  0  0  0  0
  -84.3326   33.4818   -1.4392 F   0  0  0  0  0  0  0  0  0  0  0  0
  -87.7290   34.2264   -4.6858 N   0  0  0  0  0  0  0  0  0  0  0  0
  -88.1679   35.5166   -4.9600 C   0  0  0  0  0  0  0  0  0  0  0  0
  -88.2228   36.3092   -3.9390 O   0  0  0  0  0  0  0  0  0  0  0  0
  -87.5741   33.4844   -5.4243 H   0  0  0  0  0  0  0  0  0  0  0  0
  -88.5774   36.1374   -6.2404 C   0  0  0  0  0  0  0  0  0  0  0  0
  -88.3431   37.6144   -6.3503 C   0  0  0  0  0  0  0  0  0  0  0  0
  -87.3888   36.6912   -6.9911 C   0  0  0  0  0  0  0  0  0  0  0  0
  -89.7221   35.6798   -7.0438 C   0  0  0  0  0  0  0  0  0  0  0  0
  -90.4633   36.6641   -7.4849 O   0  0  0  0  0  0  0  0  0  0  0  0
  -90.1061   34.3882   -7.3751 N   0  0  0  0  0  0  0  0  0  0  0  0
  -89.5995   33.5604   -7.0175 H   0  0  0  0  0  0  0  0  0  0  0  0
  -91.2574   34.1142   -8.1887 C   0  0  0  0  0  0  0  0  0  0  0  0
  -91.1948   34.1423   -9.5052 C   0  0  0  0  0  0  0  0  0  0  0  0
  -92.3720   33.8634  -10.3561 C   0  0  0  0  0  0  0  0  0  0  0  0
  -93.6233   33.5046   -9.6698 C   0  0  0  0  0  0  0  0  0  0  0  0
  -94.0320   32.2413  -10.1375 F   0  0  0  0  0  0  0  0  0  0  0  0
  -93.5816   33.5061   -8.2065 C   0  0  0  0  0  0  0  0  0  0  0  0
  -92.4974   33.7851   -7.5264 C   0  0  0  0  0  0  0  0  0  0  0  0
  -86.1650   32.5944    0.4742 O   0  0  0  0  0  0  0  0  0  0  0  0
  -88.1743   29.0020    0.1535 C   0  0  0  0  0  0  0  0  0  0  0  0
  -87.5063   30.2027    0.2592 C   0  0  0  0  0  0  0  0  0  0  0  0
  -86.1828   30.2466    0.6531 C   0  0  0  0  0  0  0  0  0  0  0  0
  -85.4797   31.4545    0.7670 C   0  0  0  0  0  0  0  0  0  0  0  0
  -84.1609   31.4748    1.1592 C   0  0  0  0  0  0  0  0  0  0  0  0
  -83.5138   30.2859    1.4481 C   0  0  0  0  0  0  0  0  0  0  0  0
  -84.1910   29.1313    1.3383 N   0  0  0  0  0  0  0  0  0  0  0  0
  -85.4853   29.0979    0.9534 C   0  0  0  0  0  0  0  0  0  0  0  0
  -86.1717   27.8935    0.8429 C   0  0  0  0  0  0  0  0  0  0  0  0
  -87.5038   27.8356    0.4474 C   0  0  0  0  0  0  0  0  0  0  0  0
  -89.9732   29.7616   -1.3095 C   0  0  0  0  0  0  0  0  0  0  0  0
  -89.5056   28.9508   -0.2428 O   0  0  0  0  0  0  0  0  0  0  0  0
  -88.1930   26.6373    0.3365 O   0  0  0  0  0  0  0  0  0  0  0  0
  -88.5983   26.0080    1.5446 C   0  0  0  0  0  0  0  0  0  0  0  0
  -90.1186   25.9528    1.5725 C   0  0  0  0  0  0  0  0  0  0  0  0
  -90.5917   25.3603    0.2850 C   0  0  0  0  0  0  0  0  0  0  0  0
  -90.8386   23.9594    0.4338 N   0  0  0  0  0  0  0  0  0  0  0  0
  -92.2217   23.6524    0.0618 C   0  0  0  0  0  0  0  0  0  0  0  0
  -92.3020   22.9406   -1.2490 C   0  0  0  0  0  0  0  0  0  0  0  0
  -91.3305   23.4541   -2.2903 C   0  0  0  0  0  0  0  0  0  0  0  0
  -89.9272   23.5293   -1.7888 C   0  0  0  0  0  0  0  0  0  0  0  0
  -89.9183   23.1506   -0.3328 C   0  0  0  0  0  0  0  0  0  0  0  0
 37 38  1  0  0  0
 38 27  1  0  0  0
 27 28  2  0  0  0
 28 29  1  0  0  0
 29 30  2  0  0  0
 30 26  1  0  0  0
 26  1  1  0  0  0
  1  2  2  0  0  0
  2  3  1  0  0  0
  3  4  2  0  0  0
  4  8  1  0  0  0
  8  9  1  0  0  0
  9 10  2  0  0  0
  9 12  1  0  0  0
 12 13  1  0  0  0
 13 14  1  0  0  0
 12 15  1  0  0  0
 15 16  2  0  0  0
 15 17  1  0  0  0
 17 19  1  0  0  0
 19 20  2  0  0  0
 20 21  1  0  0  0
 21 22  1  0  0  0
 22 23  1  0  0  0
 22 24  1  0  0  0
 24 25  2  0  0  0
  4  5  1  0  0  0
  5  6  2  0  0  0
  6  7  1  0  0  0
 30 31  1  0  0  0
 31 32  2  0  0  0
 32 33  1  0  0  0
 33 34  2  0  0  0
 34 35  1  0  0  0
 35 36  2  0  0  0
 36 39  1  0  0  0
 39 40  1  0  0  0
 40 41  1  0  0  0
 41 42  1  0  0  0
 42 43  1  0  0  0
 43 44  1  0  0  0
 44 45  1  0  0  0
 45 46  1  0  0  0
 46 47  1  0  0  0
 47 48  1  0  0  0
 36 27  1  0  0  0
 48 43  1  0  0  0
 34 29  1  0  0  0
  6  1  1  0  0  0
 14 12  1  0  0  0
 25 19  1  0  0  0
  8 11  1  0  0  0
 17 18  1  0  0  0
M  END
> <minimizedAffinity>
-8.42594

> <CNNscore>
0.1104338691

> <CNNaffinity>
6.7716584206

> <CNN_VS>
0.7478204370

> <CNNaffinity_variance>
0.3078658283

$$$$
[H]C1=C([H])C([H])(F)C([H])([H])C([H])=C1N([H])C(=O)C1(C(=O)N([H])c2c([H])c([H])c(Oc3c([H])c([H])nc4c([H])c(OC([H])([H])C([H])([H])C([H])([H])N5C([H])([H])C([H])([H])C([H])([H])C([H])([H])C5([H])[H])c(OC([H])([H])[H])c([H])c34)c(F)c2[H])C([H])([H])C1([H])[H]


 48 53  0  0  0  0  0  0  0  0999 V2000
  -86.4907   32.0627   -1.2728 C   0  0  0  0  0  0  0  0  0  0  0  0
  -87.7909   31.6374   -1.4443 C   0  0  0  0  0  0  0  0  0  0  0  0
  -88.7515   32.4984   -1.9767 C   0  0  0  0  0  0  0  0  0  0  0  0
  -88.4668   33.7754   -2.3476 C   0  0  0  0  0  0  0  0  0  0  0  0
  -87.1599   34.2010   -2.1742 C   0  0  0  0  0  0  0  0  0  0  0  0
  -86.2033   33.3592   -1.6490 C   0  0  0  0  0  0  0  0  0  0  0  0
  -84.9362   33.8596   -1.4815 F   0  0  0  0  0  0  0  0  0  0  0  0
  -89.4080   34.7111   -2.8632 N   0  0  0  0  0  0  0  0  0  0  0  0
  -89.5751   34.9540   -4.2217 C   0  0  0  0  0  0  0  0  0  0  0  0
  -88.8336   34.2396   -5.0050 O   0  0  0  0  0  0  0  0  0  0  0  0
  -89.9841   35.1716   -2.1043 H   0  0  0  0  0  0  0  0  0  0  0  0
  -90.4755   35.8977   -4.9225 C   0  0  0  0  0  0  0  0  0  0  0  0
  -91.4958   36.5819   -4.0626 C   0  0  0  0  0  0  0  0  0  0  0  0
  -90.2738   37.3153   -4.4402 C   0  0  0  0  0  0  0  0  0  0  0  0
  -90.9261   35.7215   -6.3121 C   0  0  0  0  0  0  0  0  0  0  0  0
  -92.2294   35.7259   -6.4315 O   0  0  0  0  0  0  0  0  0  0  0  0
  -90.1759   35.5507   -7.4669 N   0  0  0  0  0  0  0  0  0  0  0  0
  -89.1441   35.4833   -7.4415 H   0  0  0  0  0  0  0  0  0  0  0  0
  -90.7811   35.4037   -8.7611 C   0  0  0  0  0  0  0  0  0  0  0  0
  -91.1537   34.2251   -9.2189 C   0  0  0  0  0  0  0  0  0  0  0  0
  -91.7770   34.0579  -10.5498 C   0  0  0  0  0  0  0  0  0  0  0  0
  -92.0099   35.2790  -11.3373 C   0  0  0  0  0  0  0  0  0  0  0  0
  -93.3850   35.3562  -11.6282 F   0  0  0  0  0  0  0  0  0  0  0  0
  -91.5555   36.5334  -10.7349 C   0  0  0  0  0  0  0  0  0  0  0  0
  -90.9922   36.5918   -9.5537 C   0  0  0  0  0  0  0  0  0  0  0  0
  -85.5198   31.2283   -0.7449 O   0  0  0  0  0  0  0  0  0  0  0  0
  -87.2459   27.6418    0.3517 C   0  0  0  0  0  0  0  0  0  0  0  0
  -86.6704   28.8382   -0.0176 C   0  0  0  0  0  0  0  0  0  0  0  0
  -86.0242   29.6318    0.9106 C   0  0  0  0  0  0  0  0  0  0  0  0
  -85.4290   30.8523    0.5609 C   0  0  0  0  0  0  0  0  0  0  0  0
  -84.7886   31.6259    1.5015 C   0  0  0  0  0  0  0  0  0  0  0  0
  -84.7293   31.1969    2.8160 C   0  0  0  0  0  0  0  0  0  0  0  0
  -85.3011   30.0275    3.1469 N   0  0  0  0  0  0  0  0  0  0  0  0
  -85.9318   29.2586    2.2328 C   0  0  0  0  0  0  0  0  0  0  0  0
  -86.5172   28.0493    2.5916 C   0  0  0  0  0  0  0  0  0  0  0  0
  -87.1704   27.2414    1.6671 C   0  0  0  0  0  0  0  0  0  0  0  0
  -88.6080   27.4178   -1.6603 C   0  0  0  0  0  0  0  0  0  0  0  0
  -87.8970   26.8386   -0.5773 O   0  0  0  0  0  0  0  0  0  0  0  0
  -87.7566   26.0350    2.0199 O   0  0  0  0  0  0  0  0  0  0  0  0
  -88.8864   26.0901    2.8804 C   0  0  0  0  0  0  0  0  0  0  0  0
  -90.1422   25.9240    2.0375 C   0  0  0  0  0  0  0  0  0  0  0  0
  -90.1116   24.5686    1.4093 C   0  0  0  0  0  0  0  0  0  0  0  0
  -91.3056   24.3326    0.6582 N   0  0  0  0  0  0  0  0  0  0  0  0
  -91.4509   25.3511   -0.3844 C   0  0  0  0  0  0  0  0  0  0  0  0
  -91.1744   24.8001   -1.7450 C   0  0  0  0  0  0  0  0  0  0  0  0
  -90.0187   23.8234   -1.7918 C   0  0  0  0  0  0  0  0  0  0  0  0
  -90.1310   22.7410   -0.7710 C   0  0  0  0  0  0  0  0  0  0  0  0
  -91.3428   23.0088    0.0794 C   0  0  0  0  0  0  0  0  0  0  0  0
 37 38  1  0  0  0
 38 27  1  0  0  0
 27 28  2  0  0  0
 28 29  1  0  0  0
 29 30  2  0  0  0
 30 26  1  0  0  0
 26  1  1  0  0  0
  1  2  2  0  0  0
  2  3  1  0  0  0
  3  4  2  0  0  0
  4  8  1  0  0  0
  8  9  1  0  0  0
  9 10  2  0  0  0
  9 12  1  0  0  0
 12 13  1  0  0  0
 13 14  1  0  0  0
 12 15  1  0  0  0
 15 16  2  0  0  0
 15 17  1  0  0  0
 17 19  1  0  0  0
 19 20  2  0  0  0
 20 21  1  0  0  0
 21 22  1  0  0  0
 22 23  1  0  0  0
 22 24  1  0  0  0
 24 25  2  0  0  0
  4  5  1  0  0  0
  5  6  2  0  0  0
  6  7  1  0  0  0
 30 31  1  0  0  0
 31 32  2  0  0  0
 32 33  1  0  0  0
 33 34  2  0  0  0
 34 35  1  0  0  0
 35 36  2  0  0  0
 36 39  1  0  0  0
 39 40  1  0  0  0
 40 41  1  0  0  0
 41 42  1  0  0  0
 42 43  1  0  0  0
 43 44  1  0  0  0
 44 45  1  0  0  0
 45 46  1  0  0  0
 46 47  1  0  0  0
 47 48  1  0  0  0
 36 27  1  0  0  0
 48 43  1  0  0  0
 34 29  1  0  0  0
  6  1  1  0  0  0
 14 12  1  0  0  0
 25 19  1  0  0  0
  8 11  1  0  0  0
 17 18  1  0  0  0
M  END
> <minimizedAffinity>
-8.32811

> <CNNscore>
0.1093183085

> <CNNaffinity>
6.6395483017

> <CNN_VS>
0.7258241773

> <CNNaffinity_variance>
0.3318178654

$$$$
[H]C1=C([H])C([H])(F)C([H])([H])C([H])=C1N([H])C(=O)C1(C(=O)N([H])c2c([H])c([H])c(Oc3c([H])c([H])nc4c([H])c(OC([H])([H])C([H])([H])C([H])([H])N5C([H])([H])C([H])([H])C([H])([H])C([H])([H])C5([H])[H])c(OC([H])([H])[H])c([H])c34)c(F)c2[H])C([H])([H])C1([H])[H]


 48 53  0  0  0  0  0  0  0  0999 V2000
  -88.0855   30.8898   -2.6843 C   0  0  0  0  0  0  0  0  0  0  0  0
  -87.9891   31.1213   -4.0400 C   0  0  0  0  0  0  0  0  0  0  0  0
  -87.5741   32.3655   -4.5165 C   0  0  0  0  0  0  0  0  0  0  0  0
  -87.2490   33.3959   -3.6907 C   0  0  0  0  0  0  0  0  0  0  0  0
  -87.3467   33.1614   -2.3288 C   0  0  0  0  0  0  0  0  0  0  0  0
  -87.7560   31.9366   -1.8473 C   0  0  0  0  0  0  0  0  0  0  0  0
  -87.8546   31.7870   -0.4865 F   0  0  0  0  0  0  0  0  0  0  0  0
  -86.8531   34.6961   -4.1148 N   0  0  0  0  0  0  0  0  0  0  0  0
  -87.7572   35.6862   -4.4819 C   0  0  0  0  0  0  0  0  0  0  0  0
  -89.0048   35.3592   -4.3796 O   0  0  0  0  0  0  0  0  0  0  0  0
  -85.8041   34.8333   -4.0868 H   0  0  0  0  0  0  0  0  0  0  0  0
  -87.5229   37.0657   -4.9661 C   0  0  0  0  0  0  0  0  0  0  0  0
  -87.9859   38.1618   -4.0534 C   0  0  0  0  0  0  0  0  0  0  0  0
  -86.5549   37.8075   -4.0741 C   0  0  0  0  0  0  0  0  0  0  0  0
  -87.5560   37.4527   -6.3853 C   0  0  0  0  0  0  0  0  0  0  0  0
  -86.9713   36.5808   -7.1668 O   0  0  0  0  0  0  0  0  0  0  0  0
  -88.1001   38.5832   -6.9781 N   0  0  0  0  0  0  0  0  0  0  0  0
  -88.5295   39.3392   -6.4179 H   0  0  0  0  0  0  0  0  0  0  0  0
  -88.0566   38.8029   -8.3967 C   0  0  0  0  0  0  0  0  0  0  0  0
  -87.0925   39.5060   -8.9570 C   0  0  0  0  0  0  0  0  0  0  0  0
  -87.0350   39.7416  -10.4161 C   0  0  0  0  0  0  0  0  0  0  0  0
  -88.0843   39.1160  -11.2364 C   0  0  0  0  0  0  0  0  0  0  0  0
  -87.4598   38.2892  -12.1892 F   0  0  0  0  0  0  0  0  0  0  0  0
  -89.1065   38.3592  -10.5116 C   0  0  0  0  0  0  0  0  0  0  0  0
  -89.0947   38.2148   -9.2097 C   0  0  0  0  0  0  0  0  0  0  0  0
  -88.4966   29.6647   -2.1865 O   0  0  0  0  0  0  0  0  0  0  0  0
  -88.4555   28.0655    1.6195 C   0  0  0  0  0  0  0  0  0  0  0  0
  -88.4658   28.5996    0.3493 C   0  0  0  0  0  0  0  0  0  0  0  0
  -89.6563   28.8747   -0.2957 C   0  0  0  0  0  0  0  0  0  0  0  0
  -89.6947   29.4197   -1.5871 C   0  0  0  0  0  0  0  0  0  0  0  0
  -90.8921   29.6877   -2.2099 C   0  0  0  0  0  0  0  0  0  0  0  0
  -92.0807   29.4155   -1.5553 C   0  0  0  0  0  0  0  0  0  0  0  0
  -92.0395   28.8930   -0.3187 N   0  0  0  0  0  0  0  0  0  0  0  0
  -90.8708   28.6263    0.3039 C   0  0  0  0  0  0  0  0  0  0  0  0
  -90.8456   28.0870    1.5854 C   0  0  0  0  0  0  0  0  0  0  0  0
  -89.6543   27.8056    2.2455 C   0  0  0  0  0  0  0  0  0  0  0  0
  -86.3887   26.7794    1.7869 C   0  0  0  0  0  0  0  0  0  0  0  0
  -87.2613   27.7869    2.2741 O   0  0  0  0  0  0  0  0  0  0  0  0
  -89.6236   27.2669    3.5231 O   0  0  0  0  0  0  0  0  0  0  0  0
  -90.4890   26.1705    3.7855 C   0  0  0  0  0  0  0  0  0  0  0  0
  -89.9323   24.9394    3.0859 C   0  0  0  0  0  0  0  0  0  0  0  0
  -91.0789   24.1349    2.5655 C   0  0  0  0  0  0  0  0  0  0  0  0
  -91.3201   24.4314    1.1874 N   0  0  0  0  0  0  0  0  0  0  0  0
  -90.0495   24.5163    0.4636 C   0  0  0  0  0  0  0  0  0  0  0  0
  -89.8334   23.3350   -0.4247 C   0  0  0  0  0  0  0  0  0  0  0  0
  -90.2785   22.0198    0.1787 C   0  0  0  0  0  0  0  0  0  0  0  0
  -91.6735   22.0651    0.7063 C   0  0  0  0  0  0  0  0  0  0  0  0
  -92.1956   23.4684    0.5590 C   0  0  0  0  0  0  0  0  0  0  0  0
 37 38  1  0  0  0
 38 27  1  0  0  0
 27 28  2  0  0  0
 28 29  1  0  0  0
 29 30  2  0  0  0
 30 26  1  0  0  0
 26  1  1  0  0  0
  1  2  2  0  0  0
  2  3  1  0  0  0
  3  4  2  0  0  0
  4  8  1  0  0  0
  8  9  1  0  0  0
  9 10  2  0  0  0
  9 12  1  0  0  0
 12 13  1  0  0  0
 13 14  1  0  0  0
 12 15  1  0  0  0
 15 16  2  0  0  0
 15 17  1  0  0  0
 17 19  1  0  0  0
 19 20  2  0  0  0
 20 21  1  0  0  0
 21 22  1  0  0  0
 22 23  1  0  0  0
 22 24  1  0  0  0
 24 25  2  0  0  0
  4  5  1  0  0  0
  5  6  2  0  0  0
  6  7  1  0  0  0
 30 31  1  0  0  0
 31 32  2  0  0  0
 32 33  1  0  0  0
 33 34  2  0  0  0
 34 35  1  0  0  0
 35 36  2  0  0  0
 36 39  1  0  0  0
 39 40  1  0  0  0
 40 41  1  0  0  0
 41 42  1  0  0  0
 42 43  1  0  0  0
 43 44  1  0  0  0
 44 45  1  0  0  0
 45 46  1  0  0  0
 46 47  1  0  0  0
 47 48  1  0  0  0
 36 27  1  0  0  0
 48 43  1  0  0  0
 34 29  1  0  0  0
  6  1  1  0  0  0
 14 12  1  0  0  0
 25 19  1  0  0  0
  8 11  1  0  0  0
 17 18  1  0  0  0
M  END
> <minimizedAffinity>
-7.91859

> <CNNscore>
0.1076562628

> <CNNaffinity>
6.3077077866

> <CNN_VS>
0.6790642738

> <CNNaffinity_variance>
0.4882237017

$$$$
[H]C1=C([H])C([H])(F)C([H])([H])C([H])=C1N([H])C(=O)C1(C(=O)N([H])c2c([H])c([H])c(Oc3c([H])c([H])nc4c([H])c(OC([H])([H])C([H])([H])C([H])([H])N5C([H])([H])C([H])([H])C([H])([H])C([H])([H])C5([H])[H])c(OC([H])([H])[H])c([H])c34)c(F)c2[H])C([H])([H])C1([H])[H]


 48 53  0  0  0  0  0  0  0  0999 V2000
  -93.6390   27.3388   -3.8034 C   0  0  0  0  0  0  0  0  0  0  0  0
  -92.9300   26.1594   -3.7180 C   0  0  0  0  0  0  0  0  0  0  0  0
  -91.6250   26.1537   -3.2236 C   0  0  0  0  0  0  0  0  0  0  0  0
  -90.9932   27.2840   -2.8081 C   0  0  0  0  0  0  0  0  0  0  0  0
  -91.7071   28.4680   -2.8949 C   0  0  0  0  0  0  0  0  0  0  0  0
  -92.9963   28.4852   -3.3819 C   0  0  0  0  0  0  0  0  0  0  0  0
  -93.6310   29.6995   -3.4635 F   0  0  0  0  0  0  0  0  0  0  0  0
  -89.6545   27.3483   -2.3278 N   0  0  0  0  0  0  0  0  0  0  0  0
  -89.3266   27.3087   -0.9774 C   0  0  0  0  0  0  0  0  0  0  0  0
  -90.3285   27.1725   -0.1704 O   0  0  0  0  0  0  0  0  0  0  0  0
  -88.9418   27.3950   -3.1087 H   0  0  0  0  0  0  0  0  0  0  0  0
  -88.0078   27.3893   -0.3090 C   0  0  0  0  0  0  0  0  0  0  0  0
  -87.8967   26.6628    0.9981 C   0  0  0  0  0  0  0  0  0  0  0  0
  -87.3508   26.0318   -0.2175 C   0  0  0  0  0  0  0  0  0  0  0  0
  -87.1186   28.5589   -0.3892 C   0  0  0  0  0  0  0  0  0  0  0  0
  -86.9768   29.0106   -1.6093 O   0  0  0  0  0  0  0  0  0  0  0  0
  -86.4318   29.2149    0.6224 N   0  0  0  0  0  0  0  0  0  0  0  0
  -86.4539   28.8814    1.6012 H   0  0  0  0  0  0  0  0  0  0  0  0
  -85.6062   30.3629    0.3709 C   0  0  0  0  0  0  0  0  0  0  0  0
  -84.2907   30.2892    0.4114 C   0  0  0  0  0  0  0  0  0  0  0  0
  -83.4276   31.4629    0.1558 C   0  0  0  0  0  0  0  0  0  0  0  0
  -84.1002   32.7240   -0.1943 C   0  0  0  0  0  0  0  0  0  0  0  0
  -83.6165   33.1445   -1.4476 F   0  0  0  0  0  0  0  0  0  0  0  0
  -85.5637   32.6942   -0.2080 C   0  0  0  0  0  0  0  0  0  0  0  0
  -86.2553   31.6122    0.0507 C   0  0  0  0  0  0  0  0  0  0  0  0
  -94.9343   27.3710   -4.2919 O   0  0  0  0  0  0  0  0  0  0  0  0
  -96.5691   24.0480   -6.1168 C   0  0  0  0  0  0  0  0  0  0  0  0
  -96.0235   25.1556   -5.5047 C   0  0  0  0  0  0  0  0  0  0  0  0
  -95.8300   26.3307   -6.2049 C   0  0  0  0  0  0  0  0  0  0  0  0
  -95.2786   27.4723   -5.6057 C   0  0  0  0  0  0  0  0  0  0  0  0
  -95.0966   28.6331   -6.3217 C   0  0  0  0  0  0  0  0  0  0  0  0
  -95.4612   28.6792   -7.6560 C   0  0  0  0  0  0  0  0  0  0  0  0
  -95.9885   27.5835   -8.2263 N   0  0  0  0  0  0  0  0  0  0  0  0
  -96.1732   26.4384   -7.5341 C   0  0  0  0  0  0  0  0  0  0  0  0
  -96.7222   25.3131   -8.1392 C   0  0  0  0  0  0  0  0  0  0  0  0
  -96.9223   24.1244   -7.4456 C   0  0  0  0  0  0  0  0  0  0  0  0
  -95.6690   22.0248   -5.0920 C   0  0  0  0  0  0  0  0  0  0  0  0
  -96.7669   22.8629   -5.4178 O   0  0  0  0  0  0  0  0  0  0  0  0
  -97.4686   22.9992   -8.0446 O   0  0  0  0  0  0  0  0  0  0  0  0
  -97.8576   23.1138   -9.4067 C   0  0  0  0  0  0  0  0  0  0  0  0
  -97.5312   21.8059  -10.1125 C   0  0  0  0  0  0  0  0  0  0  0  0
  -97.1519   20.7955   -9.0792 C   0  0  0  0  0  0  0  0  0  0  0  0
  -96.5079   19.6709   -9.6845 N   0  0  0  0  0  0  0  0  0  0  0  0
  -95.9107   20.0640  -10.9629 C   0  0  0  0  0  0  0  0  0  0  0  0
  -94.4212   20.1426  -10.8821 C   0  0  0  0  0  0  0  0  0  0  0  0
  -93.9039   20.7330   -9.5876 C   0  0  0  0  0  0  0  0  0  0  0  0
  -94.4881   20.0830   -8.3783 C   0  0  0  0  0  0  0  0  0  0  0  0
  -95.5116   19.0744   -8.8241 C   0  0  0  0  0  0  0  0  0  0  0  0
 37 38  1  0  0  0
 38 27  1  0  0  0
 27 28  2  0  0  0
 28 29  1  0  0  0
 29 30  2  0  0  0
 30 26  1  0  0  0
 26  1  1  0  0  0
  1  2  2  0  0  0
  2  3  1  0  0  0
  3  4  2  0  0  0
  4  8  1  0  0  0
  8  9  1  0  0  0
  9 10  2  0  0  0
  9 12  1  0  0  0
 12 13  1  0  0  0
 13 14  1  0  0  0
 12 15  1  0  0  0
 15 16  2  0  0  0
 15 17  1  0  0  0
 17 19  1  0  0  0
 19 20  2  0  0  0
 20 21  1  0  0  0
 21 22  1  0  0  0
 22 23  1  0  0  0
 22 24  1  0  0  0
 24 25  2  0  0  0
  4  5  1  0  0  0
  5  6  2  0  0  0
  6  7  1  0  0  0
 30 31  1  0  0  0
 31 32  2  0  0  0
 32 33  1  0  0  0
 33 34  2  0  0  0
 34 35  1  0  0  0
 35 36  2  0  0  0
 36 39  1  0  0  0
 39 40  1  0  0  0
 40 41  1  0  0  0
 41 42  1  0  0  0
 42 43  1  0  0  0
 43 44  1  0  0  0
 44 45  1  0  0  0
 45 46  1  0  0  0
 46 47  1  0  0  0
 47 48  1  0  0  0
 36 27  1  0  0  0
 48 43  1  0  0  0
 34 29  1  0  0  0
  6  1  1  0  0  0
 14 12  1  0  0  0
 25 19  1  0  0  0
  8 11  1  0  0  0
 17 18  1  0  0  0
M  END
> <minimizedAffinity>
-7.03615

> <CNNscore>
0.0894749165

> <CNNaffinity>
6.2147712708

> <CNN_VS>
0.5560661554

> <CNNaffinity_variance>
0.1548884809

$$$$
[H]C1=C([H])C([H])(F)C([H])([H])C([H])=C1N([H])C(=O)C1(C(=O)N([H])c2c([H])c([H])c(Oc3c([H])c([H])nc4c([H])c(OC([H])([H])C([H])([H])C([H])([H])N5C([H])([H])C([H])([H])C([H])([H])C([H])([H])C5([H])[H])c(OC([H])([H])[H])c([H])c34)c(F)c2[H])C([H])([H])C1([H])[H]


 48 53  0  0  0  0  0  0  0  0999 V2000
  -88.8479   29.6291   -1.3379 C   0  0  0  0  0  0  0  0  0  0  0  0
  -89.8405   30.0546   -0.4809 C   0  0  0  0  0  0  0  0  0  0  0  0
  -90.3823   29.1803    0.4623 C   0  0  0  0  0  0  0  0  0  0  0  0
  -89.9721   27.8896    0.5866 C   0  0  0  0  0  0  0  0  0  0  0  0
  -88.9749   27.4639   -0.2756 C   0  0  0  0  0  0  0  0  0  0  0  0
  -88.4331   28.3189   -1.2110 C   0  0  0  0  0  0  0  0  0  0  0  0
  -87.4679   27.8184   -2.0488 F   0  0  0  0  0  0  0  0  0  0  0  0
  -90.5084   26.9412    1.5031 N   0  0  0  0  0  0  0  0  0  0  0  0
  -89.7414   26.2916    2.4635 C   0  0  0  0  0  0  0  0  0  0  0  0
  -88.4941   26.6335    2.4970 O   0  0  0  0  0  0  0  0  0  0  0  0
  -91.5532   26.8130    1.3941 H   0  0  0  0  0  0  0  0  0  0  0  0
  -90.1244   25.2715    3.4662 C   0  0  0  0  0  0  0  0  0  0  0  0
  -89.3471   25.2971    4.7483 C   0  0  0  0  0  0  0  0  0  0  0  0
  -90.6883   25.9085    4.7148 C   0  0  0  0  0  0  0  0  0  0  0  0
  -90.6130   23.9270    3.1218 C   0  0  0  0  0  0  0  0  0  0  0  0
  -91.8297   23.7006    3.5476 O   0  0  0  0  0  0  0  0  0  0  0  0
  -89.9719   22.9050    2.4364 N   0  0  0  0  0  0  0  0  0  0  0  0
  -88.9918   22.9935    2.1179 H   0  0  0  0  0  0  0  0  0  0  0  0
  -90.6046   21.6433    2.1710 C   0  0  0  0  0  0  0  0  0  0  0  0
  -91.3675   21.4631    1.1113 C   0  0  0  0  0  0  0  0  0  0  0  0
  -92.0265   20.1701    0.8255 C   0  0  0  0  0  0  0  0  0  0  0  0
  -91.7594   19.0630    1.7574 C   0  0  0  0  0  0  0  0  0  0  0  0
  -91.2126   17.9946    1.0220 F   0  0  0  0  0  0  0  0  0  0  0  0
  -90.9004   19.3737    2.9012 C   0  0  0  0  0  0  0  0  0  0  0  0
  -90.3701   20.5562    3.0918 C   0  0  0  0  0  0  0  0  0  0  0  0
  -88.2956   30.4766   -2.2835 O   0  0  0  0  0  0  0  0  0  0  0  0
  -88.8746   33.7343   -4.7528 C   0  0  0  0  0  0  0  0  0  0  0  0
  -88.6838   32.6453   -3.9302 C   0  0  0  0  0  0  0  0  0  0  0  0
  -87.8080   32.7061   -2.8634 C   0  0  0  0  0  0  0  0  0  0  0  0
  -87.5969   31.6133   -2.0103 C   0  0  0  0  0  0  0  0  0  0  0  0
  -86.7212   31.6967   -0.9522 C   0  0  0  0  0  0  0  0  0  0  0  0
  -86.0343   32.8761   -0.7229 C   0  0  0  0  0  0  0  0  0  0  0  0
  -86.2390   33.9202   -1.5426 N   0  0  0  0  0  0  0  0  0  0  0  0
  -87.0965   33.8514   -2.5839 C   0  0  0  0  0  0  0  0  0  0  0  0
  -87.2984   34.9424   -3.4222 C   0  0  0  0  0  0  0  0  0  0  0  0
  -88.1771   34.8942   -4.4992 C   0  0  0  0  0  0  0  0  0  0  0  0
  -91.1552   33.6064   -5.6108 C   0  0  0  0  0  0  0  0  0  0  0  0
  -89.7546   33.6799   -5.8274 O   0  0  0  0  0  0  0  0  0  0  0  0
  -88.3813   35.9790   -5.3388 O   0  0  0  0  0  0  0  0  0  0  0  0
  -87.4317   36.1842   -6.3761 C   0  0  0  0  0  0  0  0  0  0  0  0
  -87.5123   37.6365   -6.8225 C   0  0  0  0  0  0  0  0  0  0  0  0
  -88.4679   38.3526   -5.9245 C   0  0  0  0  0  0  0  0  0  0  0  0
  -87.9844   39.6621   -5.6132 N   0  0  0  0  0  0  0  0  0  0  0  0
  -89.1103   40.5789   -5.4196 C   0  0  0  0  0  0  0  0  0  0  0  0
  -89.2993   40.9343   -3.9811 C   0  0  0  0  0  0  0  0  0  0  0  0
  -89.0872   39.7782   -3.0270 C   0  0  0  0  0  0  0  0  0  0  0  0
  -87.7952   39.0671   -3.2540 C   0  0  0  0  0  0  0  0  0  0  0  0
  -87.1203   39.6722   -4.4547 C   0  0  0  0  0  0  0  0  0  0  0  0
 37 38  1  0  0  0
 38 27  1  0  0  0
 27 28  2  0  0  0
 28 29  1  0  0  0
 29 30  2  0  0  0
 30 26  1  0  0  0
 26  1  1  0  0  0
  1  2  2  0  0  0
  2  3  1  0  0  0
  3  4  2  0  0  0
  4  8  1  0  0  0
  8  9  1  0  0  0
  9 10  2  0  0  0
  9 12  1  0  0  0
 12 13  1  0  0  0
 13 14  1  0  0  0
 12 15  1  0  0  0
 15 16  2  0  0  0
 15 17  1  0  0  0
 17 19  1  0  0  0
 19 20  2  0  0  0
 20 21  1  0  0  0
 21 22  1  0  0  0
 22 23  1  0  0  0
 22 24  1  0  0  0
 24 25  2  0  0  0
  4  5  1  0  0  0
  5  6  2  0  0  0
  6  7  1  0  0  0
 30 31  1  0  0  0
 31 32  2  0  0  0
 32 33  1  0  0  0
 33 34  2  0  0  0
 34 35  1  0  0  0
 35 36  2  0  0  0
 36 39  1  0  0  0
 39 40  1  0  0  0
 40 41  1  0  0  0
 41 42  1  0  0  0
 42 43  1  0  0  0
 43 44  1  0  0  0
 44 45  1  0  0  0
 45 46  1  0  0  0
 46 47  1  0  0  0
 47 48  1  0  0  0
 36 27  1  0  0  0
 48 43  1  0  0  0
 34 29  1  0  0  0
  6  1  1  0  0  0
 14 12  1  0  0  0
 25 19  1  0  0  0
  8 11  1  0  0  0
 17 18  1  0  0  0
M  END
> <minimizedAffinity>
-8.46993

> <CNNscore>
0.0834794044

> <CNNaffinity>
6.5183992386

> <CNN_VS>
0.5441520810

> <CNNaffinity_variance>
0.2384825051

$$$$
[H]c1c([H])c([H])c(C2(C(=O)N([H])[H])C([H])([H])C([H])([H])N(C([H])([H])C([H])([H])[C@]3(c4c([H])c([H])c(Cl)c(Cl)c4[H])C([H])([H])N(C(=O)c4c([H])c(OC([H])([H])[H])c(OC([H])([H])[H])c(OC([H])([H])[H])c4[H])C([H])([H])C3([H])[H])C([H])([H])C2([H])[H])c([H])c1[H]


 46 50  0  0  0  0  0  0  0  0999 V2000
  -88.5828   29.9078   -0.3735 C   0  0  0  0  0  0  0  0  0  0  0  0
  -89.7332   30.2493    0.0771 O   0  0  0  0  0  0  0  0  0  0  0  0
  -88.4696   28.6491   -0.9174 N   0  0  0  0  0  0  0  0  0  0  0  0
  -87.3753   27.8515   -1.4383 C   0  0  0  0  0  0  0  0  0  0  0  0
  -87.6892   26.4432   -0.8929 C   0  0  0  0  0  0  0  0  0  0  0  0
  -89.1437   26.4391   -0.5092 C   0  0  0  0  0  0  0  0  0  0  0  0
  -89.6165   27.7218   -1.1558 C   0  0  0  0  0  0  0  0  0  0  0  0
  -89.3919   26.5775    0.9233 C   0  0  0  0  0  0  0  0  0  0  0  0
  -88.7554   25.7106    1.7851 C   0  0  0  0  0  0  0  0  0  0  0  0
  -88.9650   25.8344    3.1595 C   0  0  0  0  0  0  0  0  0  0  0  0
  -89.7912   26.7981    3.6670 C   0  0  0  0  0  0  0  0  0  0  0  0
  -90.0422   26.9533    5.3943 Cl  0  0  0  0  0  0  0  0  0  0  0  0
  -90.4108   27.6456    2.7696 C   0  0  0  0  0  0  0  0  0  0  0  0
  -91.4654   28.8749    3.3980 Cl  0  0  0  0  0  0  0  0  0  0  0  0
  -90.2300   27.5569    1.4179 C   0  0  0  0  0  0  0  0  0  0  0  0
  -86.5658   32.9339   -1.0739 C   0  0  0  0  0  0  0  0  0  0  0  0
  -87.5752   32.0275   -1.0734 C   0  0  0  0  0  0  0  0  0  0  0  0
  -87.5167   30.8775   -0.2583 C   0  0  0  0  0  0  0  0  0  0  0  0
  -86.4061   30.6969    0.5384 C   0  0  0  0  0  0  0  0  0  0  0  0
  -85.3654   31.6130    0.5479 C   0  0  0  0  0  0  0  0  0  0  0  0
  -85.4647   32.7177   -0.2600 C   0  0  0  0  0  0  0  0  0  0  0  0
  -86.8906   34.0330   -3.2517 C   0  0  0  0  0  0  0  0  0  0  0  0
  -86.6355   34.0586   -1.8701 O   0  0  0  0  0  0  0  0  0  0  0  0
  -84.2462   31.4039    1.3663 O   0  0  0  0  0  0  0  0  0  0  0  0
  -83.5706   30.1570    1.3097 C   0  0  0  0  0  0  0  0  0  0  0  0
  -84.4538   33.6621   -0.2832 O   0  0  0  0  0  0  0  0  0  0  0  0
  -83.1547   33.2687   -0.6103 C   0  0  0  0  0  0  0  0  0  0  0  0
  -89.8663   25.2642   -1.1580 C   0  0  0  0  0  0  0  0  0  0  0  0
  -91.3263   25.3367   -0.8685 C   0  0  0  0  0  0  0  0  0  0  0  0
  -92.2492   25.2520   -1.9393 N   0  0  0  0  0  0  0  0  0  0  0  0
  -91.9881   26.1867   -2.9778 C   0  0  0  0  0  0  0  0  0  0  0  0
  -92.9342   26.2520   -4.1063 C   0  0  0  0  0  0  0  0  0  0  0  0
  -94.1538   25.3833   -3.8300 C   0  0  0  0  0  0  0  0  0  0  0  0
  -93.6878   24.0332   -3.4599 C   0  0  0  0  0  0  0  0  0  0  0  0
  -92.8579   24.0405   -2.2058 C   0  0  0  0  0  0  0  0  0  0  0  0
  -94.8715   25.3110   -5.1590 C   0  0  0  0  0  0  0  0  0  0  0  0
  -94.9601   24.1242   -5.8567 C   0  0  0  0  0  0  0  0  0  0  0  0
  -95.5658   24.0049   -7.0979 C   0  0  0  0  0  0  0  0  0  0  0  0
  -96.1103   25.1405   -7.6711 C   0  0  0  0  0  0  0  0  0  0  0  0
  -96.0328   26.3315   -6.9924 C   0  0  0  0  0  0  0  0  0  0  0  0
  -95.4168   26.4337   -5.7340 C   0  0  0  0  0  0  0  0  0  0  0  0
  -94.9402   26.0994   -2.8088 C   0  0  0  0  0  0  0  0  0  0  0  0
  -94.6286   27.3782   -2.2938 N   0  0  0  0  0  0  0  0  0  0  0  0
  -95.9774   25.5545   -2.3415 O   0  0  0  0  0  0  0  0  0  0  0  0
  -93.7966   27.4691   -1.6863 H   0  0  0  0  0  0  0  0  0  0  0  0
  -95.1828   28.2217   -2.4922 H   0  0  0  0  0  0  0  0  0  0  0  0
 22 23  1  0  0  0
 23 16  1  0  0  0
 16 17  2  0  0  0
 17 18  1  0  0  0
 18 19  2  0  0  0
 19 20  1  0  0  0
 20 24  1  0  0  0
 24 25  1  0  0  0
 20 21  2  0  0  0
 21 26  1  0  0  0
 26 27  1  0  0  0
 18  1  1  0  0  0
  1  2  2  0  0  0
  1  3  1  0  0  0
  3  4  1  0  0  0
  4  5  1  0  0  0
  5  6  1  0  0  0
  6 28  1  0  0  0
 28 29  1  0  0  0
 29 30  1  0  0  0
 30 31  1  0  0  0
 31 32  1  0  0  0
 32 33  1  0  0  0
 33 34  1  0  0  0
 34 35  1  0  0  0
 33 42  1  0  0  0
 42 43  1  0  0  0
 42 44  2  0  0  0
 33 36  1  0  0  0
 36 37  2  0  0  0
 37 38  1  0  0  0
 38 39  2  0  0  0
 39 40  1  0  0  0
 40 41  2  0  0  0
  6  7  1  0  0  0
  6  8  1  0  0  0
  8  9  2  0  0  0
  9 10  1  0  0  0
 10 11  2  0  0  0
 11 12  1  0  0  0
 11 13  1  0  0  0
 13 14  1  0  0  0
 13 15  2  0  0  0
 21 16  1  0  0  0
  7  3  1  0  0  0
 15  8  1  0  0  0
 35 30  1  0  0  0
 41 36  1  0  0  0
 43 45  1  0  0  0
 43 46  1  0  0  0
M  END
> <minimizedAffinity>
-8.39509

> <CNNscore>
0.4406001866

> <CNNaffinity>
7.4429230690

> <CNN_VS>
3.2793533802

> <CNNaffinity_variance>
0.1278446466

$$$$
[H]c1c([H])c([H])c(C2(C(=O)N([H])[H])C([H])([H])C([H])([H])N(C([H])([H])C([H])([H])[C@]3(c4c([H])c([H])c(Cl)c(Cl)c4[H])C([H])([H])N(C(=O)c4c([H])c(OC([H])([H])[H])c(OC([H])([H])[H])c(OC([H])([H])[H])c4[H])C([H])([H])C3([H])[H])C([H])([H])C2([H])[H])c([H])c1[H]


 46 50  0  0  0  0  0  0  0  0999 V2000
  -89.6347   32.9152   -2.9378 C   0  0  0  0  0  0  0  0  0  0  0  0
  -90.0045   32.9605   -1.7112 O   0  0  0  0  0  0  0  0  0  0  0  0
  -89.3227   31.6789   -3.4546 N   0  0  0  0  0  0  0  0  0  0  0  0
  -88.7918   31.1991   -4.7167 C   0  0  0  0  0  0  0  0  0  0  0  0
  -87.8046   30.0989   -4.2758 C   0  0  0  0  0  0  0  0  0  0  0  0
  -88.1801   29.7146   -2.8707 C   0  0  0  0  0  0  0  0  0  0  0  0
  -89.5299   30.3837   -2.7393 C   0  0  0  0  0  0  0  0  0  0  0  0
  -87.3254   30.2919   -1.8368 C   0  0  0  0  0  0  0  0  0  0  0  0
  -86.6846   29.4384   -0.9648 C   0  0  0  0  0  0  0  0  0  0  0  0
  -85.8502   29.9669    0.0214 C   0  0  0  0  0  0  0  0  0  0  0  0
  -85.6577   31.3151    0.1400 C   0  0  0  0  0  0  0  0  0  0  0  0
  -84.6012   31.9707    1.3748 Cl  0  0  0  0  0  0  0  0  0  0  0  0
  -86.3192   32.1357   -0.7526 C   0  0  0  0  0  0  0  0  0  0  0  0
  -86.0869   33.8519   -0.6145 Cl  0  0  0  0  0  0  0  0  0  0  0  0
  -87.1431   31.6564   -1.7320 C   0  0  0  0  0  0  0  0  0  0  0  0
  -88.7165   36.4187   -3.7116 C   0  0  0  0  0  0  0  0  0  0  0  0
  -88.7523   35.1913   -3.1347 C   0  0  0  0  0  0  0  0  0  0  0  0
  -89.5754   34.1699   -3.6537 C   0  0  0  0  0  0  0  0  0  0  0  0
  -90.3445   34.4505   -4.7630 C   0  0  0  0  0  0  0  0  0  0  0  0
  -90.3205   35.7002   -5.3631 C   0  0  0  0  0  0  0  0  0  0  0  0
  -89.5047   36.6637   -4.8254 C   0  0  0  0  0  0  0  0  0  0  0  0
  -86.6593   37.7687   -3.7456 C   0  0  0  0  0  0  0  0  0  0  0  0
  -87.9034   37.4090   -3.2002 O   0  0  0  0  0  0  0  0  0  0  0  0
  -91.1144   35.9596   -6.4893 O   0  0  0  0  0  0  0  0  0  0  0  0
  -91.2694   34.9498   -7.4745 C   0  0  0  0  0  0  0  0  0  0  0  0
  -89.4434   37.9252   -5.3904 O   0  0  0  0  0  0  0  0  0  0  0  0
  -88.7399   38.1098   -6.5822 C   0  0  0  0  0  0  0  0  0  0  0  0
  -88.3646   28.2057   -2.7585 C   0  0  0  0  0  0  0  0  0  0  0  0
  -89.6377   27.8959   -2.0485 C   0  0  0  0  0  0  0  0  0  0  0  0
  -89.5898   27.4447   -0.7070 N   0  0  0  0  0  0  0  0  0  0  0  0
  -89.7008   28.4975    0.2414 C   0  0  0  0  0  0  0  0  0  0  0  0
  -89.5766   28.1595    1.6708 C   0  0  0  0  0  0  0  0  0  0  0  0
  -89.1597   26.7049    1.8399 C   0  0  0  0  0  0  0  0  0  0  0  0
  -90.0857   25.8628    1.0589 C   0  0  0  0  0  0  0  0  0  0  0  0
  -90.0316   26.1691   -0.4124 C   0  0  0  0  0  0  0  0  0  0  0  0
  -89.3610   26.4260    3.3125 C   0  0  0  0  0  0  0  0  0  0  0  0
  -89.8159   27.4083    4.1675 C   0  0  0  0  0  0  0  0  0  0  0  0
  -89.9781   27.2257    5.5321 C   0  0  0  0  0  0  0  0  0  0  0  0
  -89.6637   25.9893    6.0678 C   0  0  0  0  0  0  0  0  0  0  0  0
  -89.2097   24.9980    5.2333 C   0  0  0  0  0  0  0  0  0  0  0  0
  -89.0532   25.2001    3.8519 C   0  0  0  0  0  0  0  0  0  0  0  0
  -87.7396   26.6409    1.4484 C   0  0  0  0  0  0  0  0  0  0  0  0
  -87.2038   25.7630    0.4788 N   0  0  0  0  0  0  0  0  0  0  0  0
  -86.9159   27.4187    2.0031 O   0  0  0  0  0  0  0  0  0  0  0  0
  -87.1656   24.7543    0.7032 H   0  0  0  0  0  0  0  0  0  0  0  0
  -86.8527   26.0731   -0.4369 H   0  0  0  0  0  0  0  0  0  0  0  0
 22 23  1  0  0  0
 23 16  1  0  0  0
 16 17  2  0  0  0
 17 18  1  0  0  0
 18 19  2  0  0  0
 19 20  1  0  0  0
 20 24  1  0  0  0
 24 25  1  0  0  0
 20 21  2  0  0  0
 21 26  1  0  0  0
 26 27  1  0  0  0
 18  1  1  0  0  0
  1  2  2  0  0  0
  1  3  1  0  0  0
  3  4  1  0  0  0
  4  5  1  0  0  0
  5  6  1  0  0  0
  6 28  1  0  0  0
 28 29  1  0  0  0
 29 30  1  0  0  0
 30 31  1  0  0  0
 31 32  1  0  0  0
 32 33  1  0  0  0
 33 34  1  0  0  0
 34 35  1  0  0  0
 33 42  1  0  0  0
 42 43  1  0  0  0
 42 44  2  0  0  0
 33 36  1  0  0  0
 36 37  2  0  0  0
 37 38  1  0  0  0
 38 39  2  0  0  0
 39 40  1  0  0  0
 40 41  2  0  0  0
  6  7  1  0  0  0
  6  8  1  0  0  0
  8  9  2  0  0  0
  9 10  1  0  0  0
 10 11  2  0  0  0
 11 12  1  0  0  0
 11 13  1  0  0  0
 13 14  1  0  0  0
 13 15  2  0  0  0
 21 16  1  0  0  0
  7  3  1  0  0  0
 15  8  1  0  0  0
 35 30  1  0  0  0
 41 36  1  0  0  0
 43 45  1  0  0  0
 43 46  1  0  0  0
M  END
> <minimizedAffinity>
-8.26552

> <CNNscore>
0.3283724189

> <CNNaffinity>
7.5836687088

> <CNN_VS>
2.4902677536

> <CNNaffinity_variance>
0.2134304494

$$$$
[H]c1c([H])c([H])c(C2(C(=O)N([H])[H])C([H])([H])C([H])([H])N(C([H])([H])C([H])([H])[C@]3(c4c([H])c([H])c(Cl)c(Cl)c4[H])C([H])([H])N(C(=O)c4c([H])c(OC([H])([H])[H])c(OC([H])([H])[H])c(OC([H])([H])[H])c4[H])C([H])([H])C3([H])[H])C([H])([H])C2([H])[H])c([H])c1[H]


 46 50  0  0  0  0  0  0  0  0999 V2000
  -89.4389   32.6857   -2.3399 C   0  0  0  0  0  0  0  0  0  0  0  0
  -89.7091   32.7488   -1.0884 O   0  0  0  0  0  0  0  0  0  0  0  0
  -89.1631   31.4426   -2.8611 N   0  0  0  0  0  0  0  0  0  0  0  0
  -88.7329   30.9451   -4.1543 C   0  0  0  0  0  0  0  0  0  0  0  0
  -87.7080   29.8556   -3.7775 C   0  0  0  0  0  0  0  0  0  0  0  0
  -87.9673   29.4920   -2.3410 C   0  0  0  0  0  0  0  0  0  0  0  0
  -89.3056   30.1580   -2.1117 C   0  0  0  0  0  0  0  0  0  0  0  0
  -87.0353   30.0887   -1.3881 C   0  0  0  0  0  0  0  0  0  0  0  0
  -86.3014   29.2503   -0.5771 C   0  0  0  0  0  0  0  0  0  0  0  0
  -85.3928   29.7977    0.3301 C   0  0  0  0  0  0  0  0  0  0  0  0
  -85.2182   31.1498    0.4306 C   0  0  0  0  0  0  0  0  0  0  0  0
  -84.0687   31.8293    1.5655 Cl  0  0  0  0  0  0  0  0  0  0  0  0
  -85.9738   31.9549   -0.3990 C   0  0  0  0  0  0  0  0  0  0  0  0
  -85.7653   33.6758   -0.2826 Cl  0  0  0  0  0  0  0  0  0  0  0  0
  -86.8723   31.4569   -1.3003 C   0  0  0  0  0  0  0  0  0  0  0  0
  -90.4370   35.2144   -4.8550 C   0  0  0  0  0  0  0  0  0  0  0  0
  -90.4289   34.1070   -4.0714 C   0  0  0  0  0  0  0  0  0  0  0  0
  -89.4436   33.9291   -3.0775 C   0  0  0  0  0  0  0  0  0  0  0  0
  -88.4871   34.9098   -2.9225 C   0  0  0  0  0  0  0  0  0  0  0  0
  -88.4806   36.0465   -3.7164 C   0  0  0  0  0  0  0  0  0  0  0  0
  -89.4583   36.1786   -4.6701 C   0  0  0  0  0  0  0  0  0  0  0  0
  -92.6915   34.8119   -5.7556 C   0  0  0  0  0  0  0  0  0  0  0  0
  -91.4087   35.3819   -5.8200 O   0  0  0  0  0  0  0  0  0  0  0  0
  -87.4949   37.0278   -3.5391 O   0  0  0  0  0  0  0  0  0  0  0  0
  -87.8258   38.2254   -2.8532 C   0  0  0  0  0  0  0  0  0  0  0  0
  -89.4963   37.2963   -5.4847 O   0  0  0  0  0  0  0  0  0  0  0  0
  -88.7301   37.3212   -6.6517 C   0  0  0  0  0  0  0  0  0  0  0  0
  -88.1346   27.9844   -2.1912 C   0  0  0  0  0  0  0  0  0  0  0  0
  -89.4714   27.6716   -1.6116 C   0  0  0  0  0  0  0  0  0  0  0  0
  -89.5622   27.2764   -0.2548 N   0  0  0  0  0  0  0  0  0  0  0  0
  -88.3084   26.9106    0.3061 C   0  0  0  0  0  0  0  0  0  0  0  0
  -88.2899   26.3979    1.6880 C   0  0  0  0  0  0  0  0  0  0  0  0
  -89.7093   26.1899    2.1981 C   0  0  0  0  0  0  0  0  0  0  0  0
  -90.4663   27.4384    1.9865 C   0  0  0  0  0  0  0  0  0  0  0  0
  -90.5694   27.8027    0.5311 C   0  0  0  0  0  0  0  0  0  0  0  0
  -89.5438   25.9584    3.6834 C   0  0  0  0  0  0  0  0  0  0  0  0
  -90.0091   26.8753    4.6030 C   0  0  0  0  0  0  0  0  0  0  0  0
  -89.8482   26.7399    5.9733 C   0  0  0  0  0  0  0  0  0  0  0  0
  -89.1812   25.6235    6.4457 C   0  0  0  0  0  0  0  0  0  0  0  0
  -88.7108   24.6987    5.5464 C   0  0  0  0  0  0  0  0  0  0  0  0
  -88.8845   24.8511    4.1607 C   0  0  0  0  0  0  0  0  0  0  0  0
  -90.2212   24.9960    1.5005 C   0  0  0  0  0  0  0  0  0  0  0  0
  -89.4765   24.2004    0.6004 N   0  0  0  0  0  0  0  0  0  0  0  0
  -91.4113   24.6311    1.7042 O   0  0  0  0  0  0  0  0  0  0  0  0
  -89.2298   24.6055   -0.3185 H   0  0  0  0  0  0  0  0  0  0  0  0
  -89.1657   23.2427    0.8110 H   0  0  0  0  0  0  0  0  0  0  0  0
 22 23  1  0  0  0
 23 16  1  0  0  0
 16 17  2  0  0  0
 17 18  1  0  0  0
 18 19  2  0  0  0
 19 20  1  0  0  0
 20 24  1  0  0  0
 24 25  1  0  0  0
 20 21  2  0  0  0
 21 26  1  0  0  0
 26 27  1  0  0  0
 18  1  1  0  0  0
  1  2  2  0  0  0
  1  3  1  0  0  0
  3  4  1  0  0  0
  4  5  1  0  0  0
  5  6  1  0  0  0
  6 28  1  0  0  0
 28 29  1  0  0  0
 29 30  1  0  0  0
 30 31  1  0  0  0
 31 32  1  0  0  0
 32 33  1  0  0  0
 33 34  1  0  0  0
 34 35  1  0  0  0
 33 42  1  0  0  0
 42 43  1  0  0  0
 42 44  2  0  0  0
 33 36  1  0  0  0
 36 37  2  0  0  0
 37 38  1  0  0  0
 38 39  2  0  0  0
 39 40  1  0  0  0
 40 41  2  0  0  0
  6  7  1  0  0  0
  6  8  1  0  0  0
  8  9  2  0  0  0
  9 10  1  0  0  0
 10 11  2  0  0  0
 11 12  1  0  0  0
 11 13  1  0  0  0
 13 14  1  0  0  0
 13 15  2  0  0  0
 21 16  1  0  0  0
  7  3  1  0  0  0
 15  8  1  0  0  0
 35 30  1  0  0  0
 41 36  1  0  0  0
 43 45  1  0  0  0
 43 46  1  0  0  0
M  END
> <minimizedAffinity>
-8.81392

> <CNNscore>
0.2971180677

> <CNNaffinity>
7.5488004684

> <CNN_VS>
2.2428851128

> <CNNaffinity_variance>
0.1779316664

$$$$
[H]c1c([H])c([H])c(C2(C(=O)N([H])[H])C([H])([H])C([H])([H])N(C([H])([H])C([H])([H])[C@]3(c4c([H])c([H])c(Cl)c(Cl)c4[H])C([H])([H])N(C(=O)c4c([H])c(OC([H])([H])[H])c(OC([H])([H])[H])c(OC([H])([H])[H])c4[H])C([H])([H])C3([H])[H])C([H])([H])C2([H])[H])c([H])c1[H]


 46 50  0  0  0  0  0  0  0  0999 V2000
  -88.3846   29.4954   -0.0475 C   0  0  0  0  0  0  0  0  0  0  0  0
  -89.4285   30.0302    0.4697 O   0  0  0  0  0  0  0  0  0  0  0  0
  -88.5306   28.2482   -0.6096 N   0  0  0  0  0  0  0  0  0  0  0  0
  -87.6283   27.2766   -1.1986 C   0  0  0  0  0  0  0  0  0  0  0  0
  -88.1637   25.9375   -0.6511 C   0  0  0  0  0  0  0  0  0  0  0  0
  -89.5725   26.1887   -0.1875 C   0  0  0  0  0  0  0  0  0  0  0  0
  -89.8378   27.5485   -0.7938 C   0  0  0  0  0  0  0  0  0  0  0  0
  -89.7157   26.3408    1.2579 C   0  0  0  0  0  0  0  0  0  0  0  0
  -90.4471   27.4071    1.7350 C   0  0  0  0  0  0  0  0  0  0  0  0
  -90.6107   27.5635    3.1123 C   0  0  0  0  0  0  0  0  0  0  0  0
  -90.0579   26.6802    3.9972 C   0  0  0  0  0  0  0  0  0  0  0  0
  -90.2755   26.8779    5.7247 Cl  0  0  0  0  0  0  0  0  0  0  0  0
  -89.3315   25.6264    3.4782 C   0  0  0  0  0  0  0  0  0  0  0  0
  -88.6207   24.4956    4.5892 Cl  0  0  0  0  0  0  0  0  0  0  0  0
  -89.1500   25.4388    2.1367 C   0  0  0  0  0  0  0  0  0  0  0  0
  -84.9879   30.4944    1.0392 C   0  0  0  0  0  0  0  0  0  0  0  0
  -86.1318   29.7852    0.8685 C   0  0  0  0  0  0  0  0  0  0  0  0
  -87.1556   30.2539    0.0185 C   0  0  0  0  0  0  0  0  0  0  0  0
  -86.9649   31.4528   -0.6348 C   0  0  0  0  0  0  0  0  0  0  0  0
  -85.8024   32.1903   -0.4697 C   0  0  0  0  0  0  0  0  0  0  0  0
  -84.8326   31.6962    0.3660 C   0  0  0  0  0  0  0  0  0  0  0  0
  -84.0479   28.8016    2.5581 C   0  0  0  0  0  0  0  0  0  0  0  0
  -83.9899   30.0242    1.8678 O   0  0  0  0  0  0  0  0  0  0  0  0
  -85.6350   33.4079   -1.1446 O   0  0  0  0  0  0  0  0  0  0  0  0
  -86.5310   33.7478   -2.1915 C   0  0  0  0  0  0  0  0  0  0  0  0
  -83.6536   32.3936    0.5609 O   0  0  0  0  0  0  0  0  0  0  0  0
  -82.5324   32.0739   -0.2073 C   0  0  0  0  0  0  0  0  0  0  0  0
  -90.5295   25.1772   -0.8074 C   0  0  0  0  0  0  0  0  0  0  0  0
  -91.9401   25.6071   -0.5926 C   0  0  0  0  0  0  0  0  0  0  0  0
  -92.7978   25.7501   -1.7103 N   0  0  0  0  0  0  0  0  0  0  0  0
  -92.1072   25.7219   -2.9523 C   0  0  0  0  0  0  0  0  0  0  0  0
  -92.8849   25.9490   -4.1838 C   0  0  0  0  0  0  0  0  0  0  0  0
  -94.3108   26.3615   -3.8449 C   0  0  0  0  0  0  0  0  0  0  0  0
  -94.8700   25.3704   -2.9058 C   0  0  0  0  0  0  0  0  0  0  0  0
  -94.1064   25.3177   -1.6113 C   0  0  0  0  0  0  0  0  0  0  0  0
  -95.0510   26.2678   -5.1603 C   0  0  0  0  0  0  0  0  0  0  0  0
  -95.8359   27.3087   -5.6113 C   0  0  0  0  0  0  0  0  0  0  0  0
  -96.5718   27.2646   -6.7853 C   0  0  0  0  0  0  0  0  0  0  0  0
  -96.5184   26.1106   -7.5469 C   0  0  0  0  0  0  0  0  0  0  0  0
  -95.7425   25.0634   -7.1154 C   0  0  0  0  0  0  0  0  0  0  0  0
  -95.0014   25.1261   -5.9236 C   0  0  0  0  0  0  0  0  0  0  0  0
  -94.2263   27.7475   -3.3491 C   0  0  0  0  0  0  0  0  0  0  0  0
  -94.9895   28.2763   -2.2835 N   0  0  0  0  0  0  0  0  0  0  0  0
  -93.4179   28.5456   -3.8975 O   0  0  0  0  0  0  0  0  0  0  0  0
  -96.0036   28.4137   -2.4320 H   0  0  0  0  0  0  0  0  0  0  0  0
  -94.5912   28.5291   -1.3694 H   0  0  0  0  0  0  0  0  0  0  0  0
 22 23  1  0  0  0
 23 16  1  0  0  0
 16 17  2  0  0  0
 17 18  1  0  0  0
 18 19  2  0  0  0
 19 20  1  0  0  0
 20 24  1  0  0  0
 24 25  1  0  0  0
 20 21  2  0  0  0
 21 26  1  0  0  0
 26 27  1  0  0  0
 18  1  1  0  0  0
  1  2  2  0  0  0
  1  3  1  0  0  0
  3  4  1  0  0  0
  4  5  1  0  0  0
  5  6  1  0  0  0
  6 28  1  0  0  0
 28 29  1  0  0  0
 29 30  1  0  0  0
 30 31  1  0  0  0
 31 32  1  0  0  0
 32 33  1  0  0  0
 33 34  1  0  0  0
 34 35  1  0  0  0
 33 42  1  0  0  0
 42 43  1  0  0  0
 42 44  2  0  0  0
 33 36  1  0  0  0
 36 37  2  0  0  0
 37 38  1  0  0  0
 38 39  2  0  0  0
 39 40  1  0  0  0
 40 41  2  0  0  0
  6  7  1  0  0  0
  6  8  1  0  0  0
  8  9  2  0  0  0
  9 10  1  0  0  0
 10 11  2  0  0  0
 11 12  1  0  0  0
 11 13  1  0  0  0
 13 14  1  0  0  0
 13 15  2  0  0  0
 21 16  1  0  0  0
  7  3  1  0  0  0
 15  8  1  0  0  0
 35 30  1  0  0  0
 41 36  1  0  0  0
 43 45  1  0  0  0
 43 46  1  0  0  0
M  END
> <minimizedAffinity>
-8.18416

> <CNNscore>
0.2502443790

> <CNNaffinity>
7.2125902176

> <CNN_VS>
1.8049101830

> <CNNaffinity_variance>
0.1242458969

$$$$
[H]c1c([H])c([H])c(C2(C(=O)N([H])[H])C([H])([H])C([H])([H])N(C([H])([H])C([H])([H])[C@]3(c4c([H])c([H])c(Cl)c(Cl)c4[H])C([H])([H])N(C(=O)c4c([H])c(OC([H])([H])[H])c(OC([H])([H])[H])c(OC([H])([H])[H])c4[H])C([H])([H])C3([H])[H])C([H])([H])C2([H])[H])c([H])c1[H]


 46 50  0  0  0  0  0  0  0  0999 V2000
  -88.9086   31.7924   -1.5554 C   0  0  0  0  0  0  0  0  0  0  0  0
  -88.9111   32.3543   -0.4032 O   0  0  0  0  0  0  0  0  0  0  0  0
  -88.7288   30.4288   -1.5888 N   0  0  0  0  0  0  0  0  0  0  0  0
  -88.5718   29.4404   -2.6392 C   0  0  0  0  0  0  0  0  0  0  0  0
  -87.4735   28.5151   -2.0762 C   0  0  0  0  0  0  0  0  0  0  0  0
  -87.4199   28.7558   -0.5922 C   0  0  0  0  0  0  0  0  0  0  0  0
  -88.6906   29.5484   -0.3822 C   0  0  0  0  0  0  0  0  0  0  0  0
  -86.3181   29.6101   -0.1573 C   0  0  0  0  0  0  0  0  0  0  0  0
  -85.3497   29.0657    0.6583 C   0  0  0  0  0  0  0  0  0  0  0  0
  -84.2789   29.8591    1.0733 C   0  0  0  0  0  0  0  0  0  0  0  0
  -84.1734   31.1663    0.6876 C   0  0  0  0  0  0  0  0  0  0  0  0
  -82.8211   32.1534    1.2052 Cl  0  0  0  0  0  0  0  0  0  0  0  0
  -85.1652   31.6735   -0.1287 C   0  0  0  0  0  0  0  0  0  0  0  0
  -85.0470   33.3338   -0.6266 Cl  0  0  0  0  0  0  0  0  0  0  0  0
  -86.2280   30.9286   -0.5568 C   0  0  0  0  0  0  0  0  0  0  0  0
  -90.4923   33.2634   -4.5626 C   0  0  0  0  0  0  0  0  0  0  0  0
  -90.2960   32.5481   -3.4268 C   0  0  0  0  0  0  0  0  0  0  0  0
  -89.0876   32.6496   -2.7057 C   0  0  0  0  0  0  0  0  0  0  0  0
  -88.1093   33.4944   -3.1852 C   0  0  0  0  0  0  0  0  0  0  0  0
  -88.2939   34.2308   -4.3454 C   0  0  0  0  0  0  0  0  0  0  0  0
  -89.4851   34.1020   -5.0143 C   0  0  0  0  0  0  0  0  0  0  0  0
  -92.4262   31.9771   -5.3760 C   0  0  0  0  0  0  0  0  0  0  0  0
  -91.6802   33.1619   -5.2572 O   0  0  0  0  0  0  0  0  0  0  0  0
  -87.2815   35.0812   -4.8123 O   0  0  0  0  0  0  0  0  0  0  0  0
  -87.1516   36.3773   -4.2486 C   0  0  0  0  0  0  0  0  0  0  0  0
  -89.7182   34.8183   -6.1748 O   0  0  0  0  0  0  0  0  0  0  0  0
  -90.3353   36.0684   -6.0972 C   0  0  0  0  0  0  0  0  0  0  0  0
  -87.5282   27.4396    0.1689 C   0  0  0  0  0  0  0  0  0  0  0  0
  -88.9200   27.2471    0.6653 C   0  0  0  0  0  0  0  0  0  0  0  0
  -89.8630   26.5849   -0.1579 N   0  0  0  0  0  0  0  0  0  0  0  0
  -89.2982   25.5184   -0.9088 C   0  0  0  0  0  0  0  0  0  0  0  0
  -90.1650   24.8102   -1.8680 C   0  0  0  0  0  0  0  0  0  0  0  0
  -91.5094   25.5142   -1.9916 C   0  0  0  0  0  0  0  0  0  0  0  0
  -92.0646   25.6957   -0.6368 C   0  0  0  0  0  0  0  0  0  0  0  0
  -91.1901   26.5629    0.2262 C   0  0  0  0  0  0  0  0  0  0  0  0
  -92.3759   24.5368   -2.7536 C   0  0  0  0  0  0  0  0  0  0  0  0
  -93.4701   24.9676   -3.4748 C   0  0  0  0  0  0  0  0  0  0  0  0
  -94.3259   24.1161   -4.1563 C   0  0  0  0  0  0  0  0  0  0  0  0
  -94.0701   22.7572   -4.1087 C   0  0  0  0  0  0  0  0  0  0  0  0
  -92.9855   22.3083   -3.3966 C   0  0  0  0  0  0  0  0  0  0  0  0
  -92.1273   23.1858   -2.7133 C   0  0  0  0  0  0  0  0  0  0  0  0
  -91.2533   26.7481   -2.7571 C   0  0  0  0  0  0  0  0  0  0  0  0
  -91.8407   28.0056   -2.4900 N   0  0  0  0  0  0  0  0  0  0  0  0
  -90.4513   26.7097   -3.7300 O   0  0  0  0  0  0  0  0  0  0  0  0
  -92.8503   28.1220   -2.6808 H   0  0  0  0  0  0  0  0  0  0  0  0
  -91.3190   28.8087   -2.1147 H   0  0  0  0  0  0  0  0  0  0  0  0
 22 23  1  0  0  0
 23 16  1  0  0  0
 16 17  2  0  0  0
 17 18  1  0  0  0
 18 19  2  0  0  0
 19 20  1  0  0  0
 20 24  1  0  0  0
 24 25  1  0  0  0
 20 21  2  0  0  0
 21 26  1  0  0  0
 26 27  1  0  0  0
 18  1  1  0  0  0
  1  2  2  0  0  0
  1  3  1  0  0  0
  3  4  1  0  0  0
  4  5  1  0  0  0
  5  6  1  0  0  0
  6 28  1  0  0  0
 28 29  1  0  0  0
 29 30  1  0  0  0
 30 31  1  0  0  0
 31 32  1  0  0  0
 32 33  1  0  0  0
 33 34  1  0  0  0
 34 35  1  0  0  0
 33 42  1  0  0  0
 42 43  1  0  0  0
 42 44  2  0  0  0
 33 36  1  0  0  0
 36 37  2  0  0  0
 37 38  1  0  0  0
 38 39  2  0  0  0
 39 40  1  0  0  0
 40 41  2  0  0  0
  6  7  1  0  0  0
  6  8  1  0  0  0
  8  9  2  0  0  0
  9 10  1  0  0  0
 10 11  2  0  0  0
 11 12  1  0  0  0
 11 13  1  0  0  0
 13 14  1  0  0  0
 13 15  2  0  0  0
 21 16  1  0  0  0
  7  3  1  0  0  0
 15  8  1  0  0  0
 35 30  1  0  0  0
 41 36  1  0  0  0
 43 45  1  0  0  0
 43 46  1  0  0  0
M  END
> <minimizedAffinity>
-8.99511

> <CNNscore>
0.2161334753

> <CNNaffinity>
6.8404798508

> <CNN_VS>
1.4784567356

> <CNNaffinity_variance>
0.8600767851

$$$$
[H]c1c([H])c([H])c(C2(C(=O)N([H])[H])C([H])([H])C([H])([H])N(C([H])([H])C([H])([H])[C@]3(c4c([H])c([H])c(Cl)c(Cl)c4[H])C([H])([H])N(C(=O)c4c([H])c(OC([H])([H])[H])c(OC([H])([H])[H])c(OC([H])([H])[H])c4[H])C([H])([H])C3([H])[H])C([H])([H])C2([H])[H])c([H])c1[H]


 46 50  0  0  0  0  0  0  0  0999 V2000
  -88.8343   30.4155   -0.7207 C   0  0  0  0  0  0  0  0  0  0  0  0
  -89.8929   30.8619   -0.1520 O   0  0  0  0  0  0  0  0  0  0  0  0
  -88.9442   29.2304   -1.4110 N   0  0  0  0  0  0  0  0  0  0  0  0
  -88.0145   28.3531   -2.0972 C   0  0  0  0  0  0  0  0  0  0  0  0
  -88.5091   26.9487   -1.6942 C   0  0  0  0  0  0  0  0  0  0  0  0
  -89.9241   27.1081   -1.2091 C   0  0  0  0  0  0  0  0  0  0  0  0
  -90.2305   28.5156   -1.6697 C   0  0  0  0  0  0  0  0  0  0  0  0
  -90.0696   27.1033    0.2441 C   0  0  0  0  0  0  0  0  0  0  0  0
  -91.0618   27.8778    0.8055 C   0  0  0  0  0  0  0  0  0  0  0  0
  -91.2297   27.8764    2.1912 C   0  0  0  0  0  0  0  0  0  0  0  0
  -90.4277   27.1228    3.0022 C   0  0  0  0  0  0  0  0  0  0  0  0
  -90.6506   27.1191    4.7403 Cl  0  0  0  0  0  0  0  0  0  0  0  0
  -89.4448   26.3621    2.3999 C   0  0  0  0  0  0  0  0  0  0  0  0
  -88.4156   25.3999    3.4165 Cl  0  0  0  0  0  0  0  0  0  0  0  0
  -89.2500   26.3360    1.0475 C   0  0  0  0  0  0  0  0  0  0  0  0
  -86.2690   32.9883   -1.4386 C   0  0  0  0  0  0  0  0  0  0  0  0
  -87.4179   32.2676   -1.4700 C   0  0  0  0  0  0  0  0  0  0  0  0
  -87.6282   31.1989   -0.5734 C   0  0  0  0  0  0  0  0  0  0  0  0
  -86.6353   30.9040    0.3364 C   0  0  0  0  0  0  0  0  0  0  0  0
  -85.4547   31.6298    0.3801 C   0  0  0  0  0  0  0  0  0  0  0  0
  -85.2929   32.6616   -0.5101 C   0  0  0  0  0  0  0  0  0  0  0  0
  -87.1009   34.6371   -3.0652 C   0  0  0  0  0  0  0  0  0  0  0  0
  -86.0756   34.0358   -2.3156 O   0  0  0  0  0  0  0  0  0  0  0  0
  -84.4600   31.3074    1.3142 O   0  0  0  0  0  0  0  0  0  0  0  0
  -84.7402   31.4443    2.6988 C   0  0  0  0  0  0  0  0  0  0  0  0
  -84.1341   33.4174   -0.5037 O   0  0  0  0  0  0  0  0  0  0  0  0
  -82.8979   32.7791   -0.6212 C   0  0  0  0  0  0  0  0  0  0  0  0
  -90.8517   26.1394   -1.9333 C   0  0  0  0  0  0  0  0  0  0  0  0
  -90.4815   24.7334   -1.6065 C   0  0  0  0  0  0  0  0  0  0  0  0
  -91.4815   23.8444   -1.1425 N   0  0  0  0  0  0  0  0  0  0  0  0
  -92.3704   24.4414   -0.2078 C   0  0  0  0  0  0  0  0  0  0  0  0
  -93.4011   23.5888    0.4115 C   0  0  0  0  0  0  0  0  0  0  0  0
  -93.1814   22.1296    0.0360 C   0  0  0  0  0  0  0  0  0  0  0  0
  -93.0709   22.0398   -1.4325 C   0  0  0  0  0  0  0  0  0  0  0  0
  -91.8964   22.8138   -1.9641 C   0  0  0  0  0  0  0  0  0  0  0  0
  -94.4485   21.4335    0.4795 C   0  0  0  0  0  0  0  0  0  0  0  0
  -94.4969   20.0615    0.6153 C   0  0  0  0  0  0  0  0  0  0  0  0
  -95.6397   19.3640    0.9752 C   0  0  0  0  0  0  0  0  0  0  0  0
  -96.7980   20.0838    1.2089 C   0  0  0  0  0  0  0  0  0  0  0  0
  -96.7704   21.4503    1.0795 C   0  0  0  0  0  0  0  0  0  0  0  0
  -95.6026   22.1412    0.7157 C   0  0  0  0  0  0  0  0  0  0  0  0
  -92.0027   21.6855    0.8025 C   0  0  0  0  0  0  0  0  0  0  0  0
  -90.9959   20.8216    0.3149 N   0  0  0  0  0  0  0  0  0  0  0  0
  -91.8534   22.0931    1.9868 O   0  0  0  0  0  0  0  0  0  0  0  0
  -91.2403   19.8294    0.1564 H   0  0  0  0  0  0  0  0  0  0  0  0
  -90.0358   21.1271    0.1077 H   0  0  0  0  0  0  0  0  0  0  0  0
 22 23  1  0  0  0
 23 16  1  0  0  0
 16 17  2  0  0  0
 17 18  1  0  0  0
 18 19  2  0  0  0
 19 20  1  0  0  0
 20 24  1  0  0  0
 24 25  1  0  0  0
 20 21  2  0  0  0
 21 26  1  0  0  0
 26 27  1  0  0  0
 18  1  1  0  0  0
  1  2  2  0  0  0
  1  3  1  0  0  0
  3  4  1  0  0  0
  4  5  1  0  0  0
  5  6  1  0  0  0
  6 28  1  0  0  0
 28 29  1  0  0  0
 29 30  1  0  0  0
 30 31  1  0  0  0
 31 32  1  0  0  0
 32 33  1  0  0  0
 33 34  1  0  0  0
 34 35  1  0  0  0
 33 42  1  0  0  0
 42 43  1  0  0  0
 42 44  2  0  0  0
 33 36  1  0  0  0
 36 37  2  0  0  0
 37 38  1  0  0  0
 38 39  2  0  0  0
 39 40  1  0  0  0
 40 41  2  0  0  0
  6  7  1  0  0  0
  6  8  1  0  0  0
  8  9  2  0  0  0
  9 10  1  0  0  0
 10 11  2  0  0  0
 11 12  1  0  0  0
 11 13  1  0  0  0
 13 14  1  0  0  0
 13 15  2  0  0  0
 21 16  1  0  0  0
  7  3  1  0  0  0
 15  8  1  0  0  0
 35 30  1  0  0  0
 41 36  1  0  0  0
 43 45  1  0  0  0
 43 46  1  0  0  0
M  END
> <minimizedAffinity>
-7.59810

> <CNNscore>
0.2083144784

> <CNNaffinity>
7.0921440125

> <CNN_VS>
1.4773962498

> <CNNaffinity_variance>
0.1024475098

$$$$
[H]c1c([H])c([H])c(C2(C(=O)N([H])[H])C([H])([H])C([H])([H])N(C([H])([H])C([H])([H])[C@]3(c4c([H])c([H])c(Cl)c(Cl)c4[H])C([H])([H])N(C(=O)c4c([H])c(OC([H])([H])[H])c(OC([H])([H])[H])c(OC([H])([H])[H])c4[H])C([H])([H])C3([H])[H])C([H])([H])C2([H])[H])c([H])c1[H]


 46 50  0  0  0  0  0  0  0  0999 V2000
  -88.2756   35.5270   -3.6517 C   0  0  0  0  0  0  0  0  0  0  0  0
  -88.0719   36.1354   -2.5419 O   0  0  0  0  0  0  0  0  0  0  0  0
  -88.8366   34.2724   -3.5865 N   0  0  0  0  0  0  0  0  0  0  0  0
  -89.1411   33.2337   -4.5525 C   0  0  0  0  0  0  0  0  0  0  0  0
  -88.7397   31.9448   -3.8061 C   0  0  0  0  0  0  0  0  0  0  0  0
  -88.6828   32.2888   -2.3428 C   0  0  0  0  0  0  0  0  0  0  0  0
  -89.3599   33.6411   -2.3376 C   0  0  0  0  0  0  0  0  0  0  0  0
  -87.3342   32.4951   -1.8218 C   0  0  0  0  0  0  0  0  0  0  0  0
  -86.4317   33.1906   -2.5972 C   0  0  0  0  0  0  0  0  0  0  0  0
  -85.1418   33.4136   -2.1129 C   0  0  0  0  0  0  0  0  0  0  0  0
  -84.7560   32.9537   -0.8847 C   0  0  0  0  0  0  0  0  0  0  0  0
  -83.1375   33.2457   -0.2795 Cl  0  0  0  0  0  0  0  0  0  0  0  0
  -85.6898   32.2604   -0.1400 C   0  0  0  0  0  0  0  0  0  0  0  0
  -85.2150   31.6675    1.4225 Cl  0  0  0  0  0  0  0  0  0  0  0  0
  -86.9621   32.0230   -0.5789 C   0  0  0  0  0  0  0  0  0  0  0  0
  -88.4132   36.7047   -7.1602 C   0  0  0  0  0  0  0  0  0  0  0  0
  -88.7565   36.1492   -5.9711 C   0  0  0  0  0  0  0  0  0  0  0  0
  -87.8882   36.2176   -4.8612 C   0  0  0  0  0  0  0  0  0  0  0  0
  -86.6799   36.8633   -5.0155 C   0  0  0  0  0  0  0  0  0  0  0  0
  -86.3136   37.4345   -6.2246 C   0  0  0  0  0  0  0  0  0  0  0  0
  -87.1893   37.3450   -7.2774 C   0  0  0  0  0  0  0  0  0  0  0  0
  -90.4262   37.4274   -8.3775 C   0  0  0  0  0  0  0  0  0  0  0  0
  -89.2721   36.6379   -8.2379 O   0  0  0  0  0  0  0  0  0  0  0  0
  -85.0776   38.0836   -6.3549 O   0  0  0  0  0  0  0  0  0  0  0  0
  -84.4956   38.6991   -5.2162 C   0  0  0  0  0  0  0  0  0  0  0  0
  -86.8708   37.9021   -8.5031 O   0  0  0  0  0  0  0  0  0  0  0  0
  -87.1101   39.2601   -8.7226 C   0  0  0  0  0  0  0  0  0  0  0  0
  -89.5246   31.3127   -1.5292 C   0  0  0  0  0  0  0  0  0  0  0  0
  -89.3730   29.9316   -2.0681 C   0  0  0  0  0  0  0  0  0  0  0  0
  -89.5220   28.8274   -1.1940 N   0  0  0  0  0  0  0  0  0  0  0  0
  -89.3073   29.1617    0.1707 C   0  0  0  0  0  0  0  0  0  0  0  0
  -89.3495   28.0751    1.1660 C   0  0  0  0  0  0  0  0  0  0  0  0
  -89.4461   26.7223    0.4739 C   0  0  0  0  0  0  0  0  0  0  0  0
  -90.5735   26.7667   -0.4768 C   0  0  0  0  0  0  0  0  0  0  0  0
  -90.3724   27.7989   -1.5517 C   0  0  0  0  0  0  0  0  0  0  0  0
  -89.7769   25.7542    1.5875 C   0  0  0  0  0  0  0  0  0  0  0  0
  -90.6839   24.7324    1.3967 C   0  0  0  0  0  0  0  0  0  0  0  0
  -91.0600   23.8422    2.3905 C   0  0  0  0  0  0  0  0  0  0  0  0
  -90.4962   23.9877    3.6457 C   0  0  0  0  0  0  0  0  0  0  0  0
  -89.5908   24.9982    3.8558 C   0  0  0  0  0  0  0  0  0  0  0  0
  -89.2196   25.8905    2.8363 C   0  0  0  0  0  0  0  0  0  0  0  0
  -88.1163   26.4685   -0.1101 C   0  0  0  0  0  0  0  0  0  0  0  0
  -87.8821   25.8204   -1.3442 N   0  0  0  0  0  0  0  0  0  0  0  0
  -87.0897   26.8494    0.5162 O   0  0  0  0  0  0  0  0  0  0  0  0
  -88.0799   24.8074   -1.4076 H   0  0  0  0  0  0  0  0  0  0  0  0
  -87.5281   26.3021   -2.1813 H   0  0  0  0  0  0  0  0  0  0  0  0
 22 23  1  0  0  0
 23 16  1  0  0  0
 16 17  2  0  0  0
 17 18  1  0  0  0
 18 19  2  0  0  0
 19 20  1  0  0  0
 20 24  1  0  0  0
 24 25  1  0  0  0
 20 21  2  0  0  0
 21 26  1  0  0  0
 26 27  1  0  0  0
 18  1  1  0  0  0
  1  2  2  0  0  0
  1  3  1  0  0  0
  3  4  1  0  0  0
  4  5  1  0  0  0
  5  6  1  0  0  0
  6 28  1  0  0  0
 28 29  1  0  0  0
 29 30  1  0  0  0
 30 31  1  0  0  0
 31 32  1  0  0  0
 32 33  1  0  0  0
 33 34  1  0  0  0
 34 35  1  0  0  0
 33 42  1  0  0  0
 42 43  1  0  0  0
 42 44  2  0  0  0
 33 36  1  0  0  0
 36 37  2  0  0  0
 37 38  1  0  0  0
 38 39  2  0  0  0
 39 40  1  0  0  0
 40 41  2  0  0  0
  6  7  1  0  0  0
  6  8  1  0  0  0
  8  9  2  0  0  0
  9 10  1  0  0  0
 10 11  2  0  0  0
 11 12  1  0  0  0
 11 13  1  0  0  0
 13 14  1  0  0  0
 13 15  2  0  0  0
 21 16  1  0  0  0
  7  3  1  0  0  0
 15  8  1  0  0  0
 35 30  1  0  0  0
 41 36  1  0  0  0
 43 45  1  0  0  0
 43 46  1  0  0  0
M  END
> <minimizedAffinity>
-8.39671

> <CNNscore>
0.2028696835

> <CNNaffinity>
7.1887030602

> <CNN_VS>
1.4583699703

> <CNNaffinity_variance>
0.2603376210

$$$$
[H]c1c([H])c([H])c(C2(C(=O)N([H])[H])C([H])([H])C([H])([H])N(C([H])([H])C([H])([H])[C@]3(c4c([H])c([H])c(Cl)c(Cl)c4[H])C([H])([H])N(C(=O)c4c([H])c(OC([H])([H])[H])c(OC([H])([H])[H])c(OC([H])([H])[H])c4[H])C([H])([H])C3([H])[H])C([H])([H])C2([H])[H])c([H])c1[H]


 46 50  0  0  0  0  0  0  0  0999 V2000
  -89.0571   32.0230   -1.5786 C   0  0  0  0  0  0  0  0  0  0  0  0
  -89.0201   32.5975   -0.4333 O   0  0  0  0  0  0  0  0  0  0  0  0
  -88.9078   30.6555   -1.6005 N   0  0  0  0  0  0  0  0  0  0  0  0
  -88.7973   29.6523   -2.6428 C   0  0  0  0  0  0  0  0  0  0  0  0
  -87.7064   28.7093   -2.0951 C   0  0  0  0  0  0  0  0  0  0  0  0
  -87.6123   28.9652   -0.6157 C   0  0  0  0  0  0  0  0  0  0  0  0
  -88.8601   29.7878   -0.3851 C   0  0  0  0  0  0  0  0  0  0  0  0
  -86.4823   29.7998   -0.2167 C   0  0  0  0  0  0  0  0  0  0  0  0
  -85.4510   29.2140    0.4852 C   0  0  0  0  0  0  0  0  0  0  0  0
  -84.3532   29.9887    0.8631 C   0  0  0  0  0  0  0  0  0  0  0  0
  -84.2822   31.3179    0.5517 C   0  0  0  0  0  0  0  0  0  0  0  0
  -82.8962   32.2819    1.0215 Cl  0  0  0  0  0  0  0  0  0  0  0  0
  -85.3368   31.8664   -0.1513 C   0  0  0  0  0  0  0  0  0  0  0  0
  -85.2630   33.5550   -0.5535 Cl  0  0  0  0  0  0  0  0  0  0  0  0
  -86.4278   31.1409   -0.5399 C   0  0  0  0  0  0  0  0  0  0  0  0
  -88.6574   34.9267   -3.8424 C   0  0  0  0  0  0  0  0  0  0  0  0
  -88.4705   34.0469   -2.8268 C   0  0  0  0  0  0  0  0  0  0  0  0
  -89.2447   32.8711   -2.7343 C   0  0  0  0  0  0  0  0  0  0  0  0
  -90.1981   32.6385   -3.7026 C   0  0  0  0  0  0  0  0  0  0  0  0
  -90.4025   33.5286   -4.7458 C   0  0  0  0  0  0  0  0  0  0  0  0
  -89.6262   34.6590   -4.7970 C   0  0  0  0  0  0  0  0  0  0  0  0
  -88.1205   37.2328   -3.1717 C   0  0  0  0  0  0  0  0  0  0  0  0
  -87.8906   36.0706   -3.9274 O   0  0  0  0  0  0  0  0  0  0  0  0
  -91.3805   33.2687   -5.7164 O   0  0  0  0  0  0  0  0  0  0  0  0
  -92.4181   32.3457   -5.4236 C   0  0  0  0  0  0  0  0  0  0  0  0
  -89.7900   35.5759   -5.8202 O   0  0  0  0  0  0  0  0  0  0  0  0
  -90.7703   36.5636   -5.7060 C   0  0  0  0  0  0  0  0  0  0  0  0
  -87.7311   27.6601    0.1629 C   0  0  0  0  0  0  0  0  0  0  0  0
  -89.1339   27.4651    0.6263 C   0  0  0  0  0  0  0  0  0  0  0  0
  -90.0419   26.7545   -0.1960 N   0  0  0  0  0  0  0  0  0  0  0  0
  -89.4355   25.6773   -0.8976 C   0  0  0  0  0  0  0  0  0  0  0  0
  -90.2631   24.9180   -1.8524 C   0  0  0  0  0  0  0  0  0  0  0  0
  -91.6196   25.5862   -2.0304 C   0  0  0  0  0  0  0  0  0  0  0  0
  -92.2109   25.7991   -0.6956 C   0  0  0  0  0  0  0  0  0  0  0  0
  -91.3769   26.7142    0.1579 C   0  0  0  0  0  0  0  0  0  0  0  0
  -92.4455   24.5644   -2.7792 C   0  0  0  0  0  0  0  0  0  0  0  0
  -93.5729   24.9367   -3.4816 C   0  0  0  0  0  0  0  0  0  0  0  0
  -94.3935   24.0412   -4.1499 C   0  0  0  0  0  0  0  0  0  0  0  0
  -94.0651   22.6977   -4.1083 C   0  0  0  0  0  0  0  0  0  0  0  0
  -92.9464   22.3069   -3.4148 C   0  0  0  0  0  0  0  0  0  0  0  0
  -92.1249   23.2285   -2.7447 C   0  0  0  0  0  0  0  0  0  0  0  0
  -91.3732   26.7998   -2.8306 C   0  0  0  0  0  0  0  0  0  0  0  0
  -92.0088   28.0464   -2.6312 N   0  0  0  0  0  0  0  0  0  0  0  0
  -90.5342   26.7530   -3.7714 O   0  0  0  0  0  0  0  0  0  0  0  0
  -93.0137   28.1233   -2.8629 H   0  0  0  0  0  0  0  0  0  0  0  0
  -91.5267   28.8787   -2.2666 H   0  0  0  0  0  0  0  0  0  0  0  0
 22 23  1  0  0  0
 23 16  1  0  0  0
 16 17  2  0  0  0
 17 18  1  0  0  0
 18 19  2  0  0  0
 19 20  1  0  0  0
 20 24  1  0  0  0
 24 25  1  0  0  0
 20 21  2  0  0  0
 21 26  1  0  0  0
 26 27  1  0  0  0
 18  1  1  0  0  0
  1  2  2  0  0  0
  1  3  1  0  0  0
  3  4  1  0  0  0
  4  5  1  0  0  0
  5  6  1  0  0  0
  6 28  1  0  0  0
 28 29  1  0  0  0
 29 30  1  0  0  0
 30 31  1  0  0  0
 31 32  1  0  0  0
 32 33  1  0  0  0
 33 34  1  0  0  0
 34 35  1  0  0  0
 33 42  1  0  0  0
 42 43  1  0  0  0
 42 44  2  0  0  0
 33 36  1  0  0  0
 36 37  2  0  0  0
 37 38  1  0  0  0
 38 39  2  0  0  0
 39 40  1  0  0  0
 40 41  2  0  0  0
  6  7  1  0  0  0
  6  8  1  0  0  0
  8  9  2  0  0  0
  9 10  1  0  0  0
 10 11  2  0  0  0
 11 12  1  0  0  0
 11 13  1  0  0  0
 13 14  1  0  0  0
 13 15  2  0  0  0
 21 16  1  0  0  0
  7  3  1  0  0  0
 15  8  1  0  0  0
 35 30  1  0  0  0
 41 36  1  0  0  0
 43 45  1  0  0  0
 43 46  1  0  0  0
M  END
> <minimizedAffinity>
-9.06033

> <CNNscore>
0.1989304721

> <CNNaffinity>
6.7798089981

> <CNN_VS>
1.3487106562

> <CNNaffinity_variance>
0.8479712605

$$$$
[H]c1c([H])c([H])c(C2(C(=O)N([H])[H])C([H])([H])C([H])([H])N(C([H])([H])C([H])([H])[C@]3(c4c([H])c([H])c(Cl)c(Cl)c4[H])C([H])([H])N(C(=O)c4c([H])c(OC([H])([H])[H])c(OC([H])([H])[H])c(OC([H])([H])[H])c4[H])C([H])([H])C3([H])[H])C([H])([H])C2([H])[H])c([H])c1[H]


 46 50  0  0  0  0  0  0  0  0999 V2000
  -88.4114   28.7850   -1.7861 C   0  0  0  0  0  0  0  0  0  0  0  0
  -87.3243   28.3576   -2.3141 O   0  0  0  0  0  0  0  0  0  0  0  0
  -88.5818   30.1484   -1.7155 N   0  0  0  0  0  0  0  0  0  0  0  0
  -89.5785   31.0288   -1.1355 C   0  0  0  0  0  0  0  0  0  0  0  0
  -88.7235   32.1609   -0.5299 C   0  0  0  0  0  0  0  0  0  0  0  0
  -87.3768   32.0937   -1.1968 C   0  0  0  0  0  0  0  0  0  0  0  0
  -87.6688   31.1510   -2.3427 C   0  0  0  0  0  0  0  0  0  0  0  0
  -86.3341   31.4626   -0.3922 C   0  0  0  0  0  0  0  0  0  0  0  0
  -86.6786   30.3902    0.4019 C   0  0  0  0  0  0  0  0  0  0  0  0
  -85.6952   29.7612    1.1673 C   0  0  0  0  0  0  0  0  0  0  0  0
  -84.3973   30.1898    1.1455 C   0  0  0  0  0  0  0  0  0  0  0  0
  -83.1665   29.3891    2.1020 Cl  0  0  0  0  0  0  0  0  0  0  0  0
  -84.0942   31.2681    0.3376 C   0  0  0  0  0  0  0  0  0  0  0  0
  -82.4495   31.8266    0.2998 Cl  0  0  0  0  0  0  0  0  0  0  0  0
  -85.0282   31.9093   -0.4267 C   0  0  0  0  0  0  0  0  0  0  0  0
  -91.3455   26.5253   -1.7604 C   0  0  0  0  0  0  0  0  0  0  0  0
  -90.3874   27.3914   -2.1754 C   0  0  0  0  0  0  0  0  0  0  0  0
  -89.3469   27.7907   -1.3103 C   0  0  0  0  0  0  0  0  0  0  0  0
  -89.3284   27.2788   -0.0304 C   0  0  0  0  0  0  0  0  0  0  0  0
  -90.3012   26.3942    0.4095 C   0  0  0  0  0  0  0  0  0  0  0  0
  -91.2942   26.0323   -0.4658 C   0  0  0  0  0  0  0  0  0  0  0  0
  -92.2850   26.2340   -4.0162 C   0  0  0  0  0  0  0  0  0  0  0  0
  -92.3553   26.1361   -2.6162 O   0  0  0  0  0  0  0  0  0  0  0  0
  -90.2600   25.8902    1.7173 O   0  0  0  0  0  0  0  0  0  0  0  0
  -89.0365   25.9286    2.4356 C   0  0  0  0  0  0  0  0  0  0  0  0
  -92.2856   25.1499   -0.0750 O   0  0  0  0  0  0  0  0  0  0  0  0
  -92.0564   23.7757   -0.1674 C   0  0  0  0  0  0  0  0  0  0  0  0
  -86.9907   33.4548   -1.7640 C   0  0  0  0  0  0  0  0  0  0  0  0
  -87.0869   33.4369   -3.2510 C   0  0  0  0  0  0  0  0  0  0  0  0
  -87.6979   34.5264   -3.9181 N   0  0  0  0  0  0  0  0  0  0  0  0
  -88.4463   34.1338   -5.0609 C   0  0  0  0  0  0  0  0  0  0  0  0
  -89.0566   35.1910   -5.8872 C   0  0  0  0  0  0  0  0  0  0  0  0
  -88.5915   36.5647   -5.4235 C   0  0  0  0  0  0  0  0  0  0  0  0
  -88.8272   36.6686   -3.9707 C   0  0  0  0  0  0  0  0  0  0  0  0
  -88.0414   35.6504   -3.1916 C   0  0  0  0  0  0  0  0  0  0  0  0
  -89.5047   37.5322   -6.1424 C   0  0  0  0  0  0  0  0  0  0  0  0
  -89.7120   38.8079   -5.6600 C   0  0  0  0  0  0  0  0  0  0  0  0
  -90.5699   39.7233   -6.2497 C   0  0  0  0  0  0  0  0  0  0  0  0
  -91.2594   39.3353   -7.3849 C   0  0  0  0  0  0  0  0  0  0  0  0
  -91.0664   38.0698   -7.8812 C   0  0  0  0  0  0  0  0  0  0  0  0
  -90.1914   37.1554   -7.2716 C   0  0  0  0  0  0  0  0  0  0  0  0
  -87.1894   36.6889   -5.8625 C   0  0  0  0  0  0  0  0  0  0  0  0
  -86.1230   37.1433   -5.0539 N   0  0  0  0  0  0  0  0  0  0  0  0
  -86.8878   36.3706   -7.0453 O   0  0  0  0  0  0  0  0  0  0  0  0
  -86.1056   38.1421   -4.7867 H   0  0  0  0  0  0  0  0  0  0  0  0
  -85.3660   36.5343   -4.7160 H   0  0  0  0  0  0  0  0  0  0  0  0
 22 23  1  0  0  0
 23 16  1  0  0  0
 16 17  2  0  0  0
 17 18  1  0  0  0
 18 19  2  0  0  0
 19 20  1  0  0  0
 20 24  1  0  0  0
 24 25  1  0  0  0
 20 21  2  0  0  0
 21 26  1  0  0  0
 26 27  1  0  0  0
 18  1  1  0  0  0
  1  2  2  0  0  0
  1  3  1  0  0  0
  3  4  1  0  0  0
  4  5  1  0  0  0
  5  6  1  0  0  0
  6 28  1  0  0  0
 28 29  1  0  0  0
 29 30  1  0  0  0
 30 31  1  0  0  0
 31 32  1  0  0  0
 32 33  1  0  0  0
 33 34  1  0  0  0
 34 35  1  0  0  0
 33 42  1  0  0  0
 42 43  1  0  0  0
 42 44  2  0  0  0
 33 36  1  0  0  0
 36 37  2  0  0  0
 37 38  1  0  0  0
 38 39  2  0  0  0
 39 40  1  0  0  0
 40 41  2  0  0  0
  6  7  1  0  0  0
  6  8  1  0  0  0
  8  9  2  0  0  0
  9 10  1  0  0  0
 10 11  2  0  0  0
 11 12  1  0  0  0
 11 13  1  0  0  0
 13 14  1  0  0  0
 13 15  2  0  0  0
 21 16  1  0  0  0
  7  3  1  0  0  0
 15  8  1  0  0  0
 35 30  1  0  0  0
 41 36  1  0  0  0
 43 45  1  0  0  0
 43 46  1  0  0  0
M  END
> <minimizedAffinity>
-9.26609

> <CNNscore>
0.1925176978

> <CNNaffinity>
6.8821105957

> <CNN_VS>
1.3249280453

> <CNNaffinity_variance>
0.6445397139

$$$$
[H]c1nc(N([H])c2c([H])c([H])c(N3C([H])([H])C([H])([H])C([H])(N4C([H])([H])C([H])([H])OC([H])([H])C4([H])[H])C([H])([H])C3([H])[H])c([H])c2OC([H])([H])[H])nc(N([H])c2c([H])c([H])c([H])c([H])c2S(=O)(=O)C([H])(C([H])([H])[H])C([H])([H])[H])c1Cl


 43 47  0  0  0  0  0  0  0  0999 V2000
  -86.1391   32.3229    0.2817 N   0  0  0  0  0  0  0  0  0  0  0  0
  -85.8556   33.1036    0.9913 H   0  0  0  0  0  0  0  0  0  0  0  0
  -85.8091   31.0239    0.7121 C   0  0  0  0  0  0  0  0  0  0  0  0
  -84.7087   30.9038    1.5380 N   0  0  0  0  0  0  0  0  0  0  0  0
  -84.2871   29.7655    2.0483 C   0  0  0  0  0  0  0  0  0  0  0  0
  -84.9670   28.6038    1.7582 C   0  0  0  0  0  0  0  0  0  0  0  0
  -84.4776   27.0603    2.3961 Cl  0  0  0  0  0  0  0  0  0  0  0  0
  -86.0980   28.6550    0.9238 C   0  0  0  0  0  0  0  0  0  0  0  0
  -86.4355   29.8823    0.4581 N   0  0  0  0  0  0  0  0  0  0  0  0
  -86.7434   27.4506    0.6336 N   0  0  0  0  0  0  0  0  0  0  0  0
  -86.2012   26.5725    0.9078 H   0  0  0  0  0  0  0  0  0  0  0  0
  -87.9996   27.1778    0.0570 C   0  0  0  0  0  0  0  0  0  0  0  0
  -88.2501   27.3026   -1.2846 C   0  0  0  0  0  0  0  0  0  0  0  0
  -89.5154   27.0857   -1.7873 C   0  0  0  0  0  0  0  0  0  0  0  0
  -90.5660   26.7399   -0.9753 C   0  0  0  0  0  0  0  0  0  0  0  0
  -90.3316   26.6083    0.3865 C   0  0  0  0  0  0  0  0  0  0  0  0
  -89.0723   26.8227    0.8982 C   0  0  0  0  0  0  0  0  0  0  0  0
  -88.8722   26.6137    2.6098 S   0  0  0  0  0  0  0  0  0  0  0  0
  -87.6157   25.8943    2.9944 O   0  0  0  0  0  0  0  0  0  0  0  0
  -88.7259   28.0055    3.2376 O   0  0  0  0  0  0  0  0  0  0  0  0
  -90.2636   25.8337    3.3465 C   0  0  0  0  0  0  0  0  0  0  0  0
  -89.8542   24.4211    3.8371 C   0  0  0  0  0  0  0  0  0  0  0  0
  -90.8621   26.6185    4.4821 C   0  0  0  0  0  0  0  0  0  0  0  0
  -85.9229   33.1753   -1.9411 C   0  0  0  0  0  0  0  0  0  0  0  0
  -86.5140   33.5832   -3.1131 C   0  0  0  0  0  0  0  0  0  0  0  0
  -87.8937   33.6163   -3.2906 C   0  0  0  0  0  0  0  0  0  0  0  0
  -88.6805   33.2230   -2.2426 C   0  0  0  0  0  0  0  0  0  0  0  0
  -88.1160   32.7989   -1.0292 C   0  0  0  0  0  0  0  0  0  0  0  0
  -86.7506   32.7778   -0.8864 C   0  0  0  0  0  0  0  0  0  0  0  0
  -88.4979   34.0533   -4.4998 N   0  0  0  0  0  0  0  0  0  0  0  0
  -89.5015   33.2246   -5.1725 C   0  0  0  0  0  0  0  0  0  0  0  0
  -90.2917   34.0908   -6.1519 C   0  0  0  0  0  0  0  0  0  0  0  0
  -90.6803   35.3726   -5.4747 C   0  0  0  0  0  0  0  0  0  0  0  0
  -89.4162   36.1932   -5.3306 C   0  0  0  0  0  0  0  0  0  0  0  0
  -88.2002   35.3046   -5.1405 C   0  0  0  0  0  0  0  0  0  0  0  0
  -91.6137   36.1264   -6.2662 N   0  0  0  0  0  0  0  0  0  0  0  0
  -91.0594   37.4521   -6.5690 C   0  0  0  0  0  0  0  0  0  0  0  0
  -92.0756   38.1369   -7.4663 C   0  0  0  0  0  0  0  0  0  0  0  0
  -93.2880   38.3251   -6.8125 O   0  0  0  0  0  0  0  0  0  0  0  0
  -93.7945   37.0581   -6.5472 C   0  0  0  0  0  0  0  0  0  0  0  0
  -92.8572   36.3899   -5.5637 C   0  0  0  0  0  0  0  0  0  0  0  0
  -83.9772   33.8318   -0.6712 C   0  0  0  0  0  0  0  0  0  0  0  0
  -84.5490   33.1449   -1.7705 O   0  0  0  0  0  0  0  0  0  0  0  0
 42 43  1  0  0  0
 43 24  1  0  0  0
 24 25  2  0  0  0
 25 26  1  0  0  0
 26 27  2  0  0  0
 27 28  1  0  0  0
 28 29  2  0  0  0
 29  1  1  0  0  0
  1  3  1  0  0  0
  3  4  2  0  0  0
  4  5  1  0  0  0
  5  6  2  0  0  0
  6  7  1  0  0  0
  6  8  1  0  0  0
  8 10  1  0  0  0
 10 12  1  0  0  0
 12 13  2  0  0  0
 13 14  1  0  0  0
 14 15  2  0  0  0
 15 16  1  0  0  0
 16 17  2  0  0  0
 17 18  1  0  0  0
 18 19  2  0  0  0
 18 20  2  0  0  0
 18 21  1  0  0  0
 21 22  1  0  0  0
 21 23  1  0  0  0
  8  9  2  0  0  0
 26 30  1  0  0  0
 30 31  1  0  0  0
 31 32  1  0  0  0
 32 33  1  0  0  0
 33 34  1  0  0  0
 34 35  1  0  0  0
 33 36  1  0  0  0
 36 37  1  0  0  0
 37 38  1  0  0  0
 38 39  1  0  0  0
 39 40  1  0  0  0
 40 41  1  0  0  0
 29 24  1  0  0  0
  9  3  1  0  0  0
 35 30  1  0  0  0
 41 36  1  0  0  0
 17 12  1  0  0  0
  1  2  1  0  0  0
 10 11  1  0  0  0
M  END
> <minimizedAffinity>
-7.37112

> <CNNscore>
0.1372711360

> <CNNaffinity>
7.1535873413

> <CNN_VS>
0.9819810390

> <CNNaffinity_variance>
0.1434595883

$$$$
[H]c1nc(N([H])c2c([H])c([H])c(N3C([H])([H])C([H])([H])C([H])(N4C([H])([H])C([H])([H])OC([H])([H])C4([H])[H])C([H])([H])C3([H])[H])c([H])c2OC([H])([H])[H])nc(N([H])c2c([H])c([H])c([H])c([H])c2S(=O)(=O)C([H])(C([H])([H])[H])C([H])([H])[H])c1Cl


 43 47  0  0  0  0  0  0  0  0999 V2000
  -86.3423   27.9751    0.9248 N   0  0  0  0  0  0  0  0  0  0  0  0
  -85.6552   27.4718    1.6089 H   0  0  0  0  0  0  0  0  0  0  0  0
  -85.9508   29.2870    0.5974 C   0  0  0  0  0  0  0  0  0  0  0  0
  -84.6106   29.5892    0.7394 N   0  0  0  0  0  0  0  0  0  0  0  0
  -84.0809   30.7590    0.4486 C   0  0  0  0  0  0  0  0  0  0  0  0
  -84.8899   31.7650   -0.0304 C   0  0  0  0  0  0  0  0  0  0  0  0
  -84.2673   33.3371   -0.4426 Cl  0  0  0  0  0  0  0  0  0  0  0  0
  -86.2650   31.5241   -0.2004 C   0  0  0  0  0  0  0  0  0  0  0  0
  -86.6946   30.2826    0.1331 N   0  0  0  0  0  0  0  0  0  0  0  0
  -87.0546   32.5791   -0.6640 N   0  0  0  0  0  0  0  0  0  0  0  0
  -87.4565   33.2090    0.0990 H   0  0  0  0  0  0  0  0  0  0  0  0
  -87.4068   32.9813   -1.9675 C   0  0  0  0  0  0  0  0  0  0  0  0
  -86.6858   33.8969   -2.6885 C   0  0  0  0  0  0  0  0  0  0  0  0
  -87.1116   34.3037   -3.9351 C   0  0  0  0  0  0  0  0  0  0  0  0
  -88.2623   33.8151   -4.5006 C   0  0  0  0  0  0  0  0  0  0  0  0
  -89.0058   32.8864   -3.7855 C   0  0  0  0  0  0  0  0  0  0  0  0
  -88.5896   32.4740   -2.5404 C   0  0  0  0  0  0  0  0  0  0  0  0
  -89.5737   31.2943   -1.7323 S   0  0  0  0  0  0  0  0  0  0  0  0
  -89.7070   31.5175   -0.2569 O   0  0  0  0  0  0  0  0  0  0  0  0
  -91.0032   31.4279   -2.2721 O   0  0  0  0  0  0  0  0  0  0  0  0
  -89.0298   29.6536   -2.0474 C   0  0  0  0  0  0  0  0  0  0  0  0
  -90.2493   28.7796   -2.4383 C   0  0  0  0  0  0  0  0  0  0  0  0
  -87.9714   29.5647   -3.1131 C   0  0  0  0  0  0  0  0  0  0  0  0
  -88.5721   27.2373    1.3699 C   0  0  0  0  0  0  0  0  0  0  0  0
  -89.6850   26.5339    0.9752 C   0  0  0  0  0  0  0  0  0  0  0  0
  -89.7389   25.8112   -0.2126 C   0  0  0  0  0  0  0  0  0  0  0  0
  -88.6266   25.8113   -1.0094 C   0  0  0  0  0  0  0  0  0  0  0  0
  -87.4700   26.5174   -0.6427 C   0  0  0  0  0  0  0  0  0  0  0  0
  -87.4494   27.2211    0.5362 C   0  0  0  0  0  0  0  0  0  0  0  0
  -90.8877   25.0743   -0.6069 N   0  0  0  0  0  0  0  0  0  0  0  0
  -92.1867   25.3283    0.0210 C   0  0  0  0  0  0  0  0  0  0  0  0
  -93.2921   24.7571   -0.8656 C   0  0  0  0  0  0  0  0  0  0  0  0
  -93.0355   25.1521   -2.2907 C   0  0  0  0  0  0  0  0  0  0  0  0
  -91.8482   24.3406   -2.7638 C   0  0  0  0  0  0  0  0  0  0  0  0
  -90.8820   24.0618   -1.6265 C   0  0  0  0  0  0  0  0  0  0  0  0
  -94.1552   24.8389   -3.1355 N   0  0  0  0  0  0  0  0  0  0  0  0
  -93.7197   23.9899   -4.2519 C   0  0  0  0  0  0  0  0  0  0  0  0
  -94.9754   23.6512   -5.0362 C   0  0  0  0  0  0  0  0  0  0  0  0
  -95.5624   24.7903   -5.5755 O   0  0  0  0  0  0  0  0  0  0  0  0
  -95.9736   25.5695   -4.5004 C   0  0  0  0  0  0  0  0  0  0  0  0
  -94.7305   26.0167   -3.7607 C   0  0  0  0  0  0  0  0  0  0  0  0
  -89.2240   27.4638    3.6835 C   0  0  0  0  0  0  0  0  0  0  0  0
  -88.5245   27.9545    2.5535 O   0  0  0  0  0  0  0  0  0  0  0  0
 42 43  1  0  0  0
 43 24  1  0  0  0
 24 25  2  0  0  0
 25 26  1  0  0  0
 26 27  2  0  0  0
 27 28  1  0  0  0
 28 29  2  0  0  0
 29  1  1  0  0  0
  1  3  1  0  0  0
  3  4  2  0  0  0
  4  5  1  0  0  0
  5  6  2  0  0  0
  6  7  1  0  0  0
  6  8  1  0  0  0
  8 10  1  0  0  0
 10 12  1  0  0  0
 12 13  2  0  0  0
 13 14  1  0  0  0
 14 15  2  0  0  0
 15 16  1  0  0  0
 16 17  2  0  0  0
 17 18  1  0  0  0
 18 19  2  0  0  0
 18 20  2  0  0  0
 18 21  1  0  0  0
 21 22  1  0  0  0
 21 23  1  0  0  0
  8  9  2  0  0  0
 26 30  1  0  0  0
 30 31  1  0  0  0
 31 32  1  0  0  0
 32 33  1  0  0  0
 33 34  1  0  0  0
 34 35  1  0  0  0
 33 36  1  0  0  0
 36 37  1  0  0  0
 37 38  1  0  0  0
 38 39  1  0  0  0
 39 40  1  0  0  0
 40 41  1  0  0  0
 29 24  1  0  0  0
  9  3  1  0  0  0
 35 30  1  0  0  0
 41 36  1  0  0  0
 17 12  1  0  0  0
  1  2  1  0  0  0
 10 11  1  0  0  0
M  END
> <minimizedAffinity>
-7.79284

> <CNNscore>
0.0892241150

> <CNNaffinity>
7.0352225304

> <CNN_VS>
0.6277114749

> <CNNaffinity_variance>
0.3154985309

$$$$
[H]c1nc(N([H])c2c([H])c([H])c(N3C([H])([H])C([H])([H])C([H])(N4C([H])([H])C([H])([H])OC([H])([H])C4([H])[H])C([H])([H])C3([H])[H])c([H])c2OC([H])([H])[H])nc(N([H])c2c([H])c([H])c([H])c([H])c2S(=O)(=O)C([H])(C([H])([H])[H])C([H])([H])[H])c1Cl


 43 47  0  0  0  0  0  0  0  0999 V2000
  -86.3700   27.9625    0.9437 N   0  0  0  0  0  0  0  0  0  0  0  0
  -85.6896   27.4754    1.6458 H   0  0  0  0  0  0  0  0  0  0  0  0
  -85.9877   29.2751    0.6078 C   0  0  0  0  0  0  0  0  0  0  0  0
  -84.6476   29.5839    0.7358 N   0  0  0  0  0  0  0  0  0  0  0  0
  -84.1261   30.7551    0.4357 C   0  0  0  0  0  0  0  0  0  0  0  0
  -84.9443   31.7556   -0.0391 C   0  0  0  0  0  0  0  0  0  0  0  0
  -84.3331   33.3290   -0.4629 Cl  0  0  0  0  0  0  0  0  0  0  0  0
  -86.3200   31.5078   -0.1949 C   0  0  0  0  0  0  0  0  0  0  0  0
  -86.7406   30.2656    0.1472 N   0  0  0  0  0  0  0  0  0  0  0  0
  -87.1188   32.5575   -0.6546 N   0  0  0  0  0  0  0  0  0  0  0  0
  -87.5466   33.1659    0.1117 H   0  0  0  0  0  0  0  0  0  0  0  0
  -87.4526   32.9778   -1.9572 C   0  0  0  0  0  0  0  0  0  0  0  0
  -86.7149   33.8947   -2.6596 C   0  0  0  0  0  0  0  0  0  0  0  0
  -87.1228   34.3197   -3.9061 C   0  0  0  0  0  0  0  0  0  0  0  0
  -88.2717   33.8486   -4.4899 C   0  0  0  0  0  0  0  0  0  0  0  0
  -89.0319   32.9189   -3.7938 C   0  0  0  0  0  0  0  0  0  0  0  0
  -88.6335   32.4884   -2.5490 C   0  0  0  0  0  0  0  0  0  0  0  0
  -89.6377   31.3090   -1.7656 S   0  0  0  0  0  0  0  0  0  0  0  0
  -89.8108   31.5346   -0.2947 O   0  0  0  0  0  0  0  0  0  0  0  0
  -91.0523   31.4401   -2.3438 O   0  0  0  0  0  0  0  0  0  0  0  0
  -89.0838   29.6684   -2.0631 C   0  0  0  0  0  0  0  0  0  0  0  0
  -90.2885   28.7964   -2.5013 C   0  0  0  0  0  0  0  0  0  0  0  0
  -87.9862   29.5805   -3.0884 C   0  0  0  0  0  0  0  0  0  0  0  0
  -88.5541   27.1119    1.4132 C   0  0  0  0  0  0  0  0  0  0  0  0
  -89.6532   26.3912    1.0111 C   0  0  0  0  0  0  0  0  0  0  0  0
  -89.7214   25.7417   -0.2176 C   0  0  0  0  0  0  0  0  0  0  0  0
  -88.6382   25.8346   -1.0483 C   0  0  0  0  0  0  0  0  0  0  0  0
  -87.4966   26.5615   -0.6753 C   0  0  0  0  0  0  0  0  0  0  0  0
  -87.4612   27.1912    0.5442 C   0  0  0  0  0  0  0  0  0  0  0  0
  -90.8551   24.9861   -0.6203 N   0  0  0  0  0  0  0  0  0  0  0  0
  -90.9445   24.4441   -1.9784 C   0  0  0  0  0  0  0  0  0  0  0  0
  -91.9948   23.3351   -2.0073 C   0  0  0  0  0  0  0  0  0  0  0  0
  -91.7883   22.4289   -0.8287 C   0  0  0  0  0  0  0  0  0  0  0  0
  -92.2264   23.1991    0.3988 C   0  0  0  0  0  0  0  0  0  0  0  0
  -91.9673   24.6863    0.2388 C   0  0  0  0  0  0  0  0  0  0  0  0
  -92.5972   21.2447   -0.9248 N   0  0  0  0  0  0  0  0  0  0  0  0
  -93.7074   21.4696   -1.8595 C   0  0  0  0  0  0  0  0  0  0  0  0
  -94.4517   20.1489   -1.9525 C   0  0  0  0  0  0  0  0  0  0  0  0
  -94.9982   19.7844   -0.7272 O   0  0  0  0  0  0  0  0  0  0  0  0
  -93.9284   19.5683    0.1337 C   0  0  0  0  0  0  0  0  0  0  0  0
  -93.2305   20.8968    0.3350 C   0  0  0  0  0  0  0  0  0  0  0  0
  -89.4651   27.4558    3.6225 C   0  0  0  0  0  0  0  0  0  0  0  0
  -88.4921   27.7559    2.6375 O   0  0  0  0  0  0  0  0  0  0  0  0
 42 43  1  0  0  0
 43 24  1  0  0  0
 24 25  2  0  0  0
 25 26  1  0  0  0
 26 27  2  0  0  0
 27 28  1  0  0  0
 28 29  2  0  0  0
 29  1  1  0  0  0
  1  3  1  0  0  0
  3  4  2  0  0  0
  4  5  1  0  0  0
  5  6  2  0  0  0
  6  7  1  0  0  0
  6  8  1  0  0  0
  8 10  1  0  0  0
 10 12  1  0  0  0
 12 13  2  0  0  0
 13 14  1  0  0  0
 14 15  2  0  0  0
 15 16  1  0  0  0
 16 17  2  0  0  0
 17 18  1  0  0  0
 18 19  2  0  0  0
 18 20  2  0  0  0
 18 21  1  0  0  0
 21 22  1  0  0  0
 21 23  1  0  0  0
  8  9  2  0  0  0
 26 30  1  0  0  0
 30 31  1  0  0  0
 31 32  1  0  0  0
 32 33  1  0  0  0
 33 34  1  0  0  0
 34 35  1  0  0  0
 33 36  1  0  0  0
 36 37  1  0  0  0
 37 38  1  0  0  0
 38 39  1  0  0  0
 39 40  1  0  0  0
 40 41  1  0  0  0
 29 24  1  0  0  0
  9  3  1  0  0  0
 35 30  1  0  0  0
 41 36  1  0  0  0
 17 12  1  0  0  0
  1  2  1  0  0  0
 10 11  1  0  0  0
M  END
> <minimizedAffinity>
-8.15162

> <CNNscore>
0.0823240206

> <CNNaffinity>
6.9253363609

> <CNN_VS>
0.5701215267

> <CNNaffinity_variance>
0.3008480668

$$$$
[H]c1nc(N([H])c2c([H])c([H])c(N3C([H])([H])C([H])([H])C([H])(N4C([H])([H])C([H])([H])OC([H])([H])C4([H])[H])C([H])([H])C3([H])[H])c([H])c2OC([H])([H])[H])nc(N([H])c2c([H])c([H])c([H])c([H])c2S(=O)(=O)C([H])(C([H])([H])[H])C([H])([H])[H])c1Cl


 43 47  0  0  0  0  0  0  0  0999 V2000
  -86.5296   32.1456    0.2957 N   0  0  0  0  0  0  0  0  0  0  0  0
  -86.0104   32.7738    1.0230 H   0  0  0  0  0  0  0  0  0  0  0  0
  -86.4393   30.7687    0.5746 C   0  0  0  0  0  0  0  0  0  0  0  0
  -85.4396   30.3749    1.4423 N   0  0  0  0  0  0  0  0  0  0  0  0
  -85.2405   29.1312    1.8264 C   0  0  0  0  0  0  0  0  0  0  0  0
  -86.0663   28.1380    1.3496 C   0  0  0  0  0  0  0  0  0  0  0  0
  -85.8732   26.4713    1.8120 Cl  0  0  0  0  0  0  0  0  0  0  0  0
  -87.1062   28.4703    0.4628 C   0  0  0  0  0  0  0  0  0  0  0  0
  -87.2122   29.7822    0.1392 N   0  0  0  0  0  0  0  0  0  0  0  0
  -87.9046   27.4296   -0.0176 N   0  0  0  0  0  0  0  0  0  0  0  0
  -87.6331   26.4572    0.3300 H   0  0  0  0  0  0  0  0  0  0  0  0
  -89.0261   27.4281   -0.8704 C   0  0  0  0  0  0  0  0  0  0  0  0
  -89.0118   27.9762   -2.1264 C   0  0  0  0  0  0  0  0  0  0  0  0
  -90.1564   28.0056   -2.8944 C   0  0  0  0  0  0  0  0  0  0  0  0
  -91.3453   27.4937   -2.4392 C   0  0  0  0  0  0  0  0  0  0  0  0
  -91.3793   26.9340   -1.1694 C   0  0  0  0  0  0  0  0  0  0  0  0
  -90.2424   26.8998   -0.3949 C   0  0  0  0  0  0  0  0  0  0  0  0
  -90.3781   26.1610    1.1700 S   0  0  0  0  0  0  0  0  0  0  0  0
  -91.4298   25.0973    1.2540 O   0  0  0  0  0  0  0  0  0  0  0  0
  -89.0631   25.4250    1.4560 O   0  0  0  0  0  0  0  0  0  0  0  0
  -90.6186   27.3489    2.4420 C   0  0  0  0  0  0  0  0  0  0  0  0
  -89.3369   27.4305    3.3107 C   0  0  0  0  0  0  0  0  0  0  0  0
  -90.9788   28.7163    1.9281 C   0  0  0  0  0  0  0  0  0  0  0  0
  -86.3954   33.7751   -1.4482 C   0  0  0  0  0  0  0  0  0  0  0  0
  -86.9866   34.4284   -2.5031 C   0  0  0  0  0  0  0  0  0  0  0  0
  -88.3008   34.1934   -2.8953 C   0  0  0  0  0  0  0  0  0  0  0  0
  -89.0209   33.2692   -2.1886 C   0  0  0  0  0  0  0  0  0  0  0  0
  -88.4538   32.5798   -1.1052 C   0  0  0  0  0  0  0  0  0  0  0  0
  -87.1540   32.8349   -0.7438 C   0  0  0  0  0  0  0  0  0  0  0  0
  -88.9099   34.8834   -3.9775 N   0  0  0  0  0  0  0  0  0  0  0  0
  -88.4471   34.6704   -5.3511 C   0  0  0  0  0  0  0  0  0  0  0  0
  -89.5221   35.1544   -6.3228 C   0  0  0  0  0  0  0  0  0  0  0  0
  -90.8599   34.6437   -5.8732 C   0  0  0  0  0  0  0  0  0  0  0  0
  -91.2324   35.4241   -4.6306 C   0  0  0  0  0  0  0  0  0  0  0  0
  -90.0009   35.8068   -3.8295 C   0  0  0  0  0  0  0  0  0  0  0  0
  -91.8740   34.8741   -6.8655 N   0  0  0  0  0  0  0  0  0  0  0  0
  -93.0406   35.5201   -6.2504 C   0  0  0  0  0  0  0  0  0  0  0  0
  -94.0158   35.7912   -7.3827 C   0  0  0  0  0  0  0  0  0  0  0  0
  -94.4499   34.6108   -7.9751 O   0  0  0  0  0  0  0  0  0  0  0  0
  -93.3310   34.0261   -8.5569 C   0  0  0  0  0  0  0  0  0  0  0  0
  -92.3851   33.6417   -7.4389 C   0  0  0  0  0  0  0  0  0  0  0  0
  -84.1092   33.0145   -1.2924 C   0  0  0  0  0  0  0  0  0  0  0  0
  -85.0870   34.0136   -1.0625 O   0  0  0  0  0  0  0  0  0  0  0  0
 42 43  1  0  0  0
 43 24  1  0  0  0
 24 25  2  0  0  0
 25 26  1  0  0  0
 26 27  2  0  0  0
 27 28  1  0  0  0
 28 29  2  0  0  0
 29  1  1  0  0  0
  1  3  1  0  0  0
  3  4  2  0  0  0
  4  5  1  0  0  0
  5  6  2  0  0  0
  6  7  1  0  0  0
  6  8  1  0  0  0
  8 10  1  0  0  0
 10 12  1  0  0  0
 12 13  2  0  0  0
 13 14  1  0  0  0
 14 15  2  0  0  0
 15 16  1  0  0  0
 16 17  2  0  0  0
 17 18  1  0  0  0
 18 19  2  0  0  0
 18 20  2  0  0  0
 18 21  1  0  0  0
 21 22  1  0  0  0
 21 23  1  0  0  0
  8  9  2  0  0  0
 26 30  1  0  0  0
 30 31  1  0  0  0
 31 32  1  0  0  0
 32 33  1  0  0  0
 33 34  1  0  0  0
 34 35  1  0  0  0
 33 36  1  0  0  0
 36 37  1  0  0  0
 37 38  1  0  0  0
 38 39  1  0  0  0
 39 40  1  0  0  0
 40 41  1  0  0  0
 29 24  1  0  0  0
  9  3  1  0  0  0
 35 30  1  0  0  0
 41 36  1  0  0  0
 17 12  1  0  0  0
  1  2  1  0  0  0
 10 11  1  0  0  0
M  END
> <minimizedAffinity>
-7.34520

> <CNNscore>
0.0608843751

> <CNNaffinity>
6.7685675621

> <CNN_VS>
0.4121000171

> <CNNaffinity_variance>
0.5036100745

$$$$
[H]c1nc(N([H])c2c([H])c([H])c(N3C([H])([H])C([H])([H])C([H])(N4C([H])([H])C([H])([H])OC([H])([H])C4([H])[H])C([H])([H])C3([H])[H])c([H])c2OC([H])([H])[H])nc(N([H])c2c([H])c([H])c([H])c([H])c2S(=O)(=O)C([H])(C([H])([H])[H])C([H])([H])[H])c1Cl


 43 47  0  0  0  0  0  0  0  0999 V2000
  -87.0443   26.2876    1.2343 N   0  0  0  0  0  0  0  0  0  0  0  0
  -86.4081   25.5131    1.6688 H   0  0  0  0  0  0  0  0  0  0  0  0
  -86.4813   27.5766    1.2916 C   0  0  0  0  0  0  0  0  0  0  0  0
  -85.2113   27.6766    1.8250 N   0  0  0  0  0  0  0  0  0  0  0  0
  -84.5362   28.8029    1.9226 C   0  0  0  0  0  0  0  0  0  0  0  0
  -85.1069   29.9721    1.4719 C   0  0  0  0  0  0  0  0  0  0  0  0
  -84.2796   31.5008    1.5603 Cl  0  0  0  0  0  0  0  0  0  0  0  0
  -86.3983   29.9412    0.9157 C   0  0  0  0  0  0  0  0  0  0  0  0
  -86.9942   28.7248    0.8690 N   0  0  0  0  0  0  0  0  0  0  0  0
  -86.9509   31.1531    0.4945 N   0  0  0  0  0  0  0  0  0  0  0  0
  -87.5051   31.6782    1.2410 H   0  0  0  0  0  0  0  0  0  0  0  0
  -86.8954   31.8270   -0.7415 C   0  0  0  0  0  0  0  0  0  0  0  0
  -85.8676   32.6628   -1.0925 C   0  0  0  0  0  0  0  0  0  0  0  0
  -85.8954   33.3484   -2.2884 C   0  0  0  0  0  0  0  0  0  0  0  0
  -86.9412   33.2248   -3.1680 C   0  0  0  0  0  0  0  0  0  0  0  0
  -87.9912   32.3824   -2.8300 C   0  0  0  0  0  0  0  0  0  0  0  0
  -87.9733   31.6937   -1.6387 C   0  0  0  0  0  0  0  0  0  0  0  0
  -89.3204   30.6484   -1.3135 S   0  0  0  0  0  0  0  0  0  0  0  0
  -89.7900   30.6820    0.1087 O   0  0  0  0  0  0  0  0  0  0  0  0
  -90.5168   31.1600   -2.1256 O   0  0  0  0  0  0  0  0  0  0  0  0
  -89.0040   28.9916   -1.8054 C   0  0  0  0  0  0  0  0  0  0  0  0
  -90.2682   28.4149   -2.4931 C   0  0  0  0  0  0  0  0  0  0  0  0
  -87.8145   28.8510   -2.7159 C   0  0  0  0  0  0  0  0  0  0  0  0
  -89.3492   25.7792    1.6131 C   0  0  0  0  0  0  0  0  0  0  0  0
  -90.5681   25.3805    1.1186 C   0  0  0  0  0  0  0  0  0  0  0  0
  -90.7651   25.0353   -0.2149 C   0  0  0  0  0  0  0  0  0  0  0  0
  -89.6878   25.1010   -1.0558 C   0  0  0  0  0  0  0  0  0  0  0  0
  -88.4262   25.5040   -0.5905 C   0  0  0  0  0  0  0  0  0  0  0  0
  -88.2652   25.8382    0.7315 C   0  0  0  0  0  0  0  0  0  0  0  0
  -92.0247   24.6097   -0.7156 N   0  0  0  0  0  0  0  0  0  0  0  0
  -92.6101   25.2476   -1.8975 C   0  0  0  0  0  0  0  0  0  0  0  0
  -93.6935   24.3373   -2.4733 C   0  0  0  0  0  0  0  0  0  0  0  0
  -93.1744   22.9304   -2.5354 C   0  0  0  0  0  0  0  0  0  0  0  0
  -93.1095   22.4234   -1.1104 C   0  0  0  0  0  0  0  0  0  0  0  0
  -92.8018   23.5480   -0.1381 C   0  0  0  0  0  0  0  0  0  0  0  0
  -94.0599   22.0726   -3.2743 N   0  0  0  0  0  0  0  0  0  0  0  0
  -95.0211   21.4387   -2.3628 C   0  0  0  0  0  0  0  0  0  0  0  0
  -95.9543   20.6214   -3.2391 C   0  0  0  0  0  0  0  0  0  0  0  0
  -95.2723   19.6092   -3.9048 O   0  0  0  0  0  0  0  0  0  0  0  0
  -94.3786   20.2352   -4.7660 C   0  0  0  0  0  0  0  0  0  0  0  0
  -93.3649   20.9699   -3.9146 C   0  0  0  0  0  0  0  0  0  0  0  0
  -89.3854   25.1442    3.9421 C   0  0  0  0  0  0  0  0  0  0  0  0
  -89.1594   26.1212    2.9414 O   0  0  0  0  0  0  0  0  0  0  0  0
 42 43  1  0  0  0
 43 24  1  0  0  0
 24 25  2  0  0  0
 25 26  1  0  0  0
 26 27  2  0  0  0
 27 28  1  0  0  0
 28 29  2  0  0  0
 29  1  1  0  0  0
  1  3  1  0  0  0
  3  4  2  0  0  0
  4  5  1  0  0  0
  5  6  2  0  0  0
  6  7  1  0  0  0
  6  8  1  0  0  0
  8 10  1  0  0  0
 10 12  1  0  0  0
 12 13  2  0  0  0
 13 14  1  0  0  0
 14 15  2  0  0  0
 15 16  1  0  0  0
 16 17  2  0  0  0
 17 18  1  0  0  0
 18 19  2  0  0  0
 18 20  2  0  0  0
 18 21  1  0  0  0
 21 22  1  0  0  0
 21 23  1  0  0  0
  8  9  2  0  0  0
 26 30  1  0  0  0
 30 31  1  0  0  0
 31 32  1  0  0  0
 32 33  1  0  0  0
 33 34  1  0  0  0
 34 35  1  0  0  0
 33 36  1  0  0  0
 36 37  1  0  0  0
 37 38  1  0  0  0
 38 39  1  0  0  0
 39 40  1  0  0  0
 40 41  1  0  0  0
 29 24  1  0  0  0
  9  3  1  0  0  0
 35 30  1  0  0  0
 41 36  1  0  0  0
 17 12  1  0  0  0
  1  2  1  0  0  0
 10 11  1  0  0  0
M  END
> <minimizedAffinity>
-7.20222

> <CNNscore>
0.0578053519

> <CNNaffinity>
6.7976150513

> <CNN_VS>
0.3929385245

> <CNNaffinity_variance>
0.2875846326

$$$$
[H]c1nc(N([H])c2c([H])c([H])c(N3C([H])([H])C([H])([H])C([H])(N4C([H])([H])C([H])([H])OC([H])([H])C4([H])[H])C([H])([H])C3([H])[H])c([H])c2OC([H])([H])[H])nc(N([H])c2c([H])c([H])c([H])c([H])c2S(=O)(=O)C([H])(C([H])([H])[H])C([H])([H])[H])c1Cl


 43 47  0  0  0  0  0  0  0  0999 V2000
  -86.5432   27.9880    1.3596 N   0  0  0  0  0  0  0  0  0  0  0  0
  -85.6182   27.6001    1.7921 H   0  0  0  0  0  0  0  0  0  0  0  0
  -86.4402   29.3181    0.9102 C   0  0  0  0  0  0  0  0  0  0  0  0
  -85.2867   29.9996    1.2454 N   0  0  0  0  0  0  0  0  0  0  0  0
  -85.0250   31.2369    0.8786 C   0  0  0  0  0  0  0  0  0  0  0  0
  -85.9410   31.9204    0.1108 C   0  0  0  0  0  0  0  0  0  0  0  0
  -85.6689   33.5557   -0.4192 Cl  0  0  0  0  0  0  0  0  0  0  0  0
  -87.1372   31.2846   -0.2675 C   0  0  0  0  0  0  0  0  0  0  0  0
  -87.2954   30.0116    0.1700 N   0  0  0  0  0  0  0  0  0  0  0  0
  -88.0509   32.0219   -1.0244 N   0  0  0  0  0  0  0  0  0  0  0  0
  -88.7076   32.6433   -0.4563 H   0  0  0  0  0  0  0  0  0  0  0  0
  -88.2554   32.1126   -2.4154 C   0  0  0  0  0  0  0  0  0  0  0  0
  -87.4557   32.8575   -3.2424 C   0  0  0  0  0  0  0  0  0  0  0  0
  -87.7397   32.9638   -4.5873 C   0  0  0  0  0  0  0  0  0  0  0  0
  -88.8228   32.3360   -5.1489 C   0  0  0  0  0  0  0  0  0  0  0  0
  -89.6442   31.5766   -4.3272 C   0  0  0  0  0  0  0  0  0  0  0  0
  -89.3696   31.4642   -2.9835 C   0  0  0  0  0  0  0  0  0  0  0  0
  -90.4414   30.4761   -2.0411 S   0  0  0  0  0  0  0  0  0  0  0  0
  -89.7770   29.2992   -1.3947 O   0  0  0  0  0  0  0  0  0  0  0  0
  -90.9492   31.3234   -0.8678 O   0  0  0  0  0  0  0  0  0  0  0  0
  -91.8372   29.9470   -2.9678 C   0  0  0  0  0  0  0  0  0  0  0  0
  -92.0547   28.4292   -2.7380 C   0  0  0  0  0  0  0  0  0  0  0  0
  -93.0973   30.7017   -2.6416 C   0  0  0  0  0  0  0  0  0  0  0  0
  -87.8505   26.3689    0.1834 C   0  0  0  0  0  0  0  0  0  0  0  0
  -88.8762   25.4538    0.1813 C   0  0  0  0  0  0  0  0  0  0  0  0
  -89.6840   25.2234    1.2906 C   0  0  0  0  0  0  0  0  0  0  0  0
  -89.4325   25.9483    2.4234 C   0  0  0  0  0  0  0  0  0  0  0  0
  -88.3942   26.8919    2.4668 C   0  0  0  0  0  0  0  0  0  0  0  0
  -87.6150   27.0954    1.3548 C   0  0  0  0  0  0  0  0  0  0  0  0
  -90.7519   24.2865    1.2764 N   0  0  0  0  0  0  0  0  0  0  0  0
  -92.0022   24.5934    0.5771 C   0  0  0  0  0  0  0  0  0  0  0  0
  -92.7715   23.2961    0.3335 C   0  0  0  0  0  0  0  0  0  0  0  0
  -91.8287   22.2551   -0.1959 C   0  0  0  0  0  0  0  0  0  0  0  0
  -90.9390   21.8420    0.9572 C   0  0  0  0  0  0  0  0  0  0  0  0
  -90.6993   22.9984    1.9110 C   0  0  0  0  0  0  0  0  0  0  0  0
  -92.5329   21.0897   -0.6560 N   0  0  0  0  0  0  0  0  0  0  0  0
  -93.6222   21.4849   -1.5581 C   0  0  0  0  0  0  0  0  0  0  0  0
  -94.2510   20.1922   -2.0484 C   0  0  0  0  0  0  0  0  0  0  0  0
  -94.8108   19.4685   -1.0017 O   0  0  0  0  0  0  0  0  0  0  0  0
  -93.7597   19.0991   -0.1704 C   0  0  0  0  0  0  0  0  0  0  0  0
  -93.1819   20.3664    0.4233 C   0  0  0  0  0  0  0  0  0  0  0  0
  -87.5860   27.3034   -2.0270 C   0  0  0  0  0  0  0  0  0  0  0  0
  -87.0502   26.5940   -0.9240 O   0  0  0  0  0  0  0  0  0  0  0  0
 42 43  1  0  0  0
 43 24  1  0  0  0
 24 25  2  0  0  0
 25 26  1  0  0  0
 26 27  2  0  0  0
 27 28  1  0  0  0
 28 29  2  0  0  0
 29  1  1  0  0  0
  1  3  1  0  0  0
  3  4  2  0  0  0
  4  5  1  0  0  0
  5  6  2  0  0  0
  6  7  1  0  0  0
  6  8  1  0  0  0
  8 10  1  0  0  0
 10 12  1  0  0  0
 12 13  2  0  0  0
 13 14  1  0  0  0
 14 15  2  0  0  0
 15 16  1  0  0  0
 16 17  2  0  0  0
 17 18  1  0  0  0
 18 19  2  0  0  0
 18 20  2  0  0  0
 18 21  1  0  0  0
 21 22  1  0  0  0
 21 23  1  0  0  0
  8  9  2  0  0  0
 26 30  1  0  0  0
 30 31  1  0  0  0
 31 32  1  0  0  0
 32 33  1  0  0  0
 33 34  1  0  0  0
 34 35  1  0  0  0
 33 36  1  0  0  0
 36 37  1  0  0  0
 37 38  1  0  0  0
 38 39  1  0  0  0
 39 40  1  0  0  0
 40 41  1  0  0  0
 29 24  1  0  0  0
  9  3  1  0  0  0
 35 30  1  0  0  0
 41 36  1  0  0  0
 17 12  1  0  0  0
  1  2  1  0  0  0
 10 11  1  0  0  0
M  END
> <minimizedAffinity>
-6.81919

> <CNNscore>
0.0541459806

> <CNNaffinity>
6.6384077072

> <CNN_VS>
0.3594430983

> <CNNaffinity_variance>
0.2726615071

$$$$
[H]c1nc(N([H])c2c([H])c([H])c(N3C([H])([H])C([H])([H])C([H])(N4C([H])([H])C([H])([H])OC([H])([H])C4([H])[H])C([H])([H])C3([H])[H])c([H])c2OC([H])([H])[H])nc(N([H])c2c([H])c([H])c([H])c([H])c2S(=O)(=O)C([H])(C([H])([H])[H])C([H])([H])[H])c1Cl


 43 47  0  0  0  0  0  0  0  0999 V2000
  -86.2972   31.9272    0.0498 N   0  0  0  0  0  0  0  0  0  0  0  0
  -85.5540   32.4886    0.6204 H   0  0  0  0  0  0  0  0  0  0  0  0
  -86.4113   30.5808    0.4448 C   0  0  0  0  0  0  0  0  0  0  0  0
  -85.2418   29.9349    0.7950 N   0  0  0  0  0  0  0  0  0  0  0  0
  -85.1818   28.6877    1.2127 C   0  0  0  0  0  0  0  0  0  0  0  0
  -86.3430   27.9554    1.3180 C   0  0  0  0  0  0  0  0  0  0  0  0
  -86.3500   26.3037    1.8664 Cl  0  0  0  0  0  0  0  0  0  0  0  0
  -87.5701   28.5530    0.9784 C   0  0  0  0  0  0  0  0  0  0  0  0
  -87.5063   29.8409    0.5609 N   0  0  0  0  0  0  0  0  0  0  0  0
  -88.7213   27.7675    1.0745 N   0  0  0  0  0  0  0  0  0  0  0  0
  -89.1745   27.5177    0.1405 H   0  0  0  0  0  0  0  0  0  0  0  0
  -89.3912   27.2221    2.1875 C   0  0  0  0  0  0  0  0  0  0  0  0
  -89.3273   27.7704    3.4418 C   0  0  0  0  0  0  0  0  0  0  0  0
  -89.9495   27.1591    4.5095 C   0  0  0  0  0  0  0  0  0  0  0  0
  -90.6510   25.9888    4.3637 C   0  0  0  0  0  0  0  0  0  0  0  0
  -90.7271   25.4186    3.1005 C   0  0  0  0  0  0  0  0  0  0  0  0
  -90.1095   26.0208    2.0283 C   0  0  0  0  0  0  0  0  0  0  0  0
  -90.2784   25.2445    0.4849 S   0  0  0  0  0  0  0  0  0  0  0  0
  -90.8567   26.1241   -0.5811 O   0  0  0  0  0  0  0  0  0  0  0  0
  -88.8725   24.8995   -0.0221 O   0  0  0  0  0  0  0  0  0  0  0  0
  -91.1937   23.7488    0.5951 C   0  0  0  0  0  0  0  0  0  0  0  0
  -92.1947   23.6768   -0.5867 C   0  0  0  0  0  0  0  0  0  0  0  0
  -90.3317   22.5158    0.6140 C   0  0  0  0  0  0  0  0  0  0  0  0
  -86.1782   33.2574   -1.9328 C   0  0  0  0  0  0  0  0  0  0  0  0
  -86.8204   33.9396   -2.9385 C   0  0  0  0  0  0  0  0  0  0  0  0
  -88.2054   34.0540   -3.0078 C   0  0  0  0  0  0  0  0  0  0  0  0
  -88.9440   33.4559   -2.0235 C   0  0  0  0  0  0  0  0  0  0  0  0
  -88.3267   32.7493   -0.9794 C   0  0  0  0  0  0  0  0  0  0  0  0
  -86.9575   32.6549   -0.9402 C   0  0  0  0  0  0  0  0  0  0  0  0
  -88.8616   34.7735   -4.0422 N   0  0  0  0  0  0  0  0  0  0  0  0
  -88.1336   35.1712   -5.2498 C   0  0  0  0  0  0  0  0  0  0  0  0
  -89.1369   35.5078   -6.3517 C   0  0  0  0  0  0  0  0  0  0  0  0
  -90.1894   34.4390   -6.4041 C   0  0  0  0  0  0  0  0  0  0  0  0
  -91.0540   34.6140   -5.1738 C   0  0  0  0  0  0  0  0  0  0  0  0
  -90.2478   35.1501   -4.0045 C   0  0  0  0  0  0  0  0  0  0  0  0
  -91.0282   34.5800   -7.5627 N   0  0  0  0  0  0  0  0  0  0  0  0
  -91.5191   35.9605   -7.6620 C   0  0  0  0  0  0  0  0  0  0  0  0
  -92.3241   36.0282   -8.9481 C   0  0  0  0  0  0  0  0  0  0  0  0
  -93.4311   35.1884   -8.9015 O   0  0  0  0  0  0  0  0  0  0  0  0
  -92.9393   33.8910   -8.8182 C   0  0  0  0  0  0  0  0  0  0  0  0
  -92.2244   33.7596   -7.4900 C   0  0  0  0  0  0  0  0  0  0  0  0
  -84.1183   33.6752   -0.7447 C   0  0  0  0  0  0  0  0  0  0  0  0
  -84.7993   33.1473   -1.8693 O   0  0  0  0  0  0  0  0  0  0  0  0
 42 43  1  0  0  0
 43 24  1  0  0  0
 24 25  2  0  0  0
 25 26  1  0  0  0
 26 27  2  0  0  0
 27 28  1  0  0  0
 28 29  2  0  0  0
 29  1  1  0  0  0
  1  3  1  0  0  0
  3  4  2  0  0  0
  4  5  1  0  0  0
  5  6  2  0  0  0
  6  7  1  0  0  0
  6  8  1  0  0  0
  8 10  1  0  0  0
 10 12  1  0  0  0
 12 13  2  0  0  0
 13 14  1  0  0  0
 14 15  2  0  0  0
 15 16  1  0  0  0
 16 17  2  0  0  0
 17 18  1  0  0  0
 18 19  2  0  0  0
 18 20  2  0  0  0
 18 21  1  0  0  0
 21 22  1  0  0  0
 21 23  1  0  0  0
  8  9  2  0  0  0
 26 30  1  0  0  0
 30 31  1  0  0  0
 31 32  1  0  0  0
 32 33  1  0  0  0
 33 34  1  0  0  0
 34 35  1  0  0  0
 33 36  1  0  0  0
 36 37  1  0  0  0
 37 38  1  0  0  0
 38 39  1  0  0  0
 39 40  1  0  0  0
 40 41  1  0  0  0
 29 24  1  0  0  0
  9  3  1  0  0  0
 35 30  1  0  0  0
 41 36  1  0  0  0
 17 12  1  0  0  0
  1  2  1  0  0  0
 10 11  1  0  0  0
M  END
> <minimizedAffinity>
-7.89923

> <CNNscore>
0.0460489951

> <CNNaffinity>
6.3263664246

> <CNN_VS>
0.2913228273

> <CNNaffinity_variance>
0.6059242487

$$$$
[H]c1nc(N([H])c2c([H])c([H])c(N3C([H])([H])C([H])([H])C([H])(N4C([H])([H])C([H])([H])OC([H])([H])C4([H])[H])C([H])([H])C3([H])[H])c([H])c2OC([H])([H])[H])nc(N([H])c2c([H])c([H])c([H])c([H])c2S(=O)(=O)C([H])(C([H])([H])[H])C([H])([H])[H])c1Cl


 43 47  0  0  0  0  0  0  0  0999 V2000
  -86.2119   32.1888    0.5168 N   0  0  0  0  0  0  0  0  0  0  0  0
  -86.0753   32.9797    1.2576 H   0  0  0  0  0  0  0  0  0  0  0  0
  -85.7805   30.9234    0.9578 C   0  0  0  0  0  0  0  0  0  0  0  0
  -84.5500   30.8694    1.5825 N   0  0  0  0  0  0  0  0  0  0  0  0
  -84.0183   29.7707    2.0764 C   0  0  0  0  0  0  0  0  0  0  0  0
  -84.7103   28.5843    1.9793 C   0  0  0  0  0  0  0  0  0  0  0  0
  -84.0798   27.0900    2.6105 Cl  0  0  0  0  0  0  0  0  0  0  0  0
  -85.9708   28.5686    1.3557 C   0  0  0  0  0  0  0  0  0  0  0  0
  -86.4141   29.7600    0.8856 N   0  0  0  0  0  0  0  0  0  0  0  0
  -86.6279   27.3399    1.2549 N   0  0  0  0  0  0  0  0  0  0  0  0
  -86.0465   26.5528    0.8276 H   0  0  0  0  0  0  0  0  0  0  0  0
  -87.9238   26.9383    1.6347 C   0  0  0  0  0  0  0  0  0  0  0  0
  -88.2924   26.7364    2.9391 C   0  0  0  0  0  0  0  0  0  0  0  0
  -89.5556   26.2803    3.2508 C   0  0  0  0  0  0  0  0  0  0  0  0
  -90.4869   26.0118    2.2795 C   0  0  0  0  0  0  0  0  0  0  0  0
  -90.1320   26.2107    0.9525 C   0  0  0  0  0  0  0  0  0  0  0  0
  -88.8737   26.6656    0.6308 C   0  0  0  0  0  0  0  0  0  0  0  0
  -88.5298   26.9039   -1.0539 S   0  0  0  0  0  0  0  0  0  0  0  0
  -87.1340   26.5317   -1.4508 O   0  0  0  0  0  0  0  0  0  0  0  0
  -89.4246   25.9491   -1.8541 O   0  0  0  0  0  0  0  0  0  0  0  0
  -88.8886   28.5429   -1.5752 C   0  0  0  0  0  0  0  0  0  0  0  0
  -87.9377   28.9263   -2.7383 C   0  0  0  0  0  0  0  0  0  0  0  0
  -90.3197   28.7412   -1.9951 C   0  0  0  0  0  0  0  0  0  0  0  0
  -85.9870   33.4055   -1.5285 C   0  0  0  0  0  0  0  0  0  0  0  0
  -86.5082   33.7808   -2.7437 C   0  0  0  0  0  0  0  0  0  0  0  0
  -87.7741   33.3948   -3.1735 C   0  0  0  0  0  0  0  0  0  0  0  0
  -88.5184   32.6082   -2.3372 C   0  0  0  0  0  0  0  0  0  0  0  0
  -88.0223   32.2026   -1.0882 C   0  0  0  0  0  0  0  0  0  0  0  0
  -86.7688   32.6007   -0.6938 C   0  0  0  0  0  0  0  0  0  0  0  0
  -88.3122   33.7990   -4.4246 N   0  0  0  0  0  0  0  0  0  0  0  0
  -89.4102   33.0493   -5.0399 C   0  0  0  0  0  0  0  0  0  0  0  0
  -90.0791   33.9210   -6.1015 C   0  0  0  0  0  0  0  0  0  0  0  0
  -90.3039   35.2953   -5.5417 C   0  0  0  0  0  0  0  0  0  0  0  0
  -88.9461   35.9584   -5.4482 C   0  0  0  0  0  0  0  0  0  0  0  0
  -87.8543   34.9425   -5.1645 C   0  0  0  0  0  0  0  0  0  0  0  0
  -91.1300   36.0902   -6.4086 N   0  0  0  0  0  0  0  0  0  0  0  0
  -90.5715   36.0969   -7.7668 C   0  0  0  0  0  0  0  0  0  0  0  0
  -91.5478   36.8901   -8.6180 C   0  0  0  0  0  0  0  0  0  0  0  0
  -91.6394   38.2104   -8.1922 O   0  0  0  0  0  0  0  0  0  0  0  0
  -92.1788   38.1759   -6.9116 C   0  0  0  0  0  0  0  0  0  0  0  0
  -91.1739   37.4868   -6.0128 C   0  0  0  0  0  0  0  0  0  0  0  0
  -83.6533   32.8744   -1.2111 C   0  0  0  0  0  0  0  0  0  0  0  0
  -84.7265   33.7932   -1.1063 O   0  0  0  0  0  0  0  0  0  0  0  0
 42 43  1  0  0  0
 43 24  1  0  0  0
 24 25  2  0  0  0
 25 26  1  0  0  0
 26 27  2  0  0  0
 27 28  1  0  0  0
 28 29  2  0  0  0
 29  1  1  0  0  0
  1  3  1  0  0  0
  3  4  2  0  0  0
  4  5  1  0  0  0
  5  6  2  0  0  0
  6  7  1  0  0  0
  6  8  1  0  0  0
  8 10  1  0  0  0
 10 12  1  0  0  0
 12 13  2  0  0  0
 13 14  1  0  0  0
 14 15  2  0  0  0
 15 16  1  0  0  0
 16 17  2  0  0  0
 17 18  1  0  0  0
 18 19  2  0  0  0
 18 20  2  0  0  0
 18 21  1  0  0  0
 21 22  1  0  0  0
 21 23  1  0  0  0
  8  9  2  0  0  0
 26 30  1  0  0  0
 30 31  1  0  0  0
 31 32  1  0  0  0
 32 33  1  0  0  0
 33 34  1  0  0  0
 34 35  1  0  0  0
 33 36  1  0  0  0
 36 37  1  0  0  0
 37 38  1  0  0  0
 38 39  1  0  0  0
 39 40  1  0  0  0
 40 41  1  0  0  0
 29 24  1  0  0  0
  9  3  1  0  0  0
 35 30  1  0  0  0
 41 36  1  0  0  0
 17 12  1  0  0  0
  1  2  1  0  0  0
 10 11  1  0  0  0
M  END
> <minimizedAffinity>
-7.39185

> <CNNscore>
0.0408254527

> <CNNaffinity>
6.7951340675

> <CNN_VS>
0.2774144113

> <CNNaffinity_variance>
0.5528834462

$$$$
[H]c1nc(N([H])c2c([H])c([H])c(N3C([H])([H])C([H])([H])C([H])(N4C([H])([H])C([H])([H])OC([H])([H])C4([H])[H])C([H])([H])C3([H])[H])c([H])c2OC([H])([H])[H])nc(N([H])c2c([H])c([H])c([H])c([H])c2S(=O)(=O)C([H])(C([H])([H])[H])C([H])([H])[H])c1Cl


 43 47  0  0  0  0  0  0  0  0999 V2000
  -87.6389   26.2718    1.9885 N   0  0  0  0  0  0  0  0  0  0  0  0
  -87.5502   25.7913    2.9654 H   0  0  0  0  0  0  0  0  0  0  0  0
  -86.6253   27.2140    1.7301 C   0  0  0  0  0  0  0  0  0  0  0  0
  -85.5537   27.2283    2.6013 N   0  0  0  0  0  0  0  0  0  0  0  0
  -84.5137   28.0270    2.4821 C   0  0  0  0  0  0  0  0  0  0  0  0
  -84.4629   28.9153    1.4313 C   0  0  0  0  0  0  0  0  0  0  0  0
  -83.1222   30.0007    1.2001 Cl  0  0  0  0  0  0  0  0  0  0  0  0
  -85.5212   28.9522    0.5057 C   0  0  0  0  0  0  0  0  0  0  0  0
  -86.5369   28.0838    0.7323 N   0  0  0  0  0  0  0  0  0  0  0  0
  -85.4426   29.8856   -0.5306 N   0  0  0  0  0  0  0  0  0  0  0  0
  -84.9957   29.5226   -1.4298 H   0  0  0  0  0  0  0  0  0  0  0  0
  -85.8661   31.2266   -0.6157 C   0  0  0  0  0  0  0  0  0  0  0  0
  -85.1357   32.2749   -0.1198 C   0  0  0  0  0  0  0  0  0  0  0  0
  -85.6275   33.5619   -0.1716 C   0  0  0  0  0  0  0  0  0  0  0  0
  -86.8551   33.8450   -0.7151 C   0  0  0  0  0  0  0  0  0  0  0  0
  -87.6094   32.7962   -1.2228 C   0  0  0  0  0  0  0  0  0  0  0  0
  -87.1277   31.5080   -1.1759 C   0  0  0  0  0  0  0  0  0  0  0  0
  -88.1333   30.2666   -1.8546 S   0  0  0  0  0  0  0  0  0  0  0  0
  -87.3742   29.0943   -2.3968 O   0  0  0  0  0  0  0  0  0  0  0  0
  -88.9851   29.6820   -0.7208 O   0  0  0  0  0  0  0  0  0  0  0  0
  -89.2247   30.8970   -3.0786 C   0  0  0  0  0  0  0  0  0  0  0  0
  -88.4556   31.0487   -4.4163 C   0  0  0  0  0  0  0  0  0  0  0  0
  -90.4515   30.0506   -3.2845 C   0  0  0  0  0  0  0  0  0  0  0  0
  -90.0064   26.0271    1.7658 C   0  0  0  0  0  0  0  0  0  0  0  0
  -91.0904   25.6655    1.0020 C   0  0  0  0  0  0  0  0  0  0  0  0
  -90.9682   25.1427   -0.2817 C   0  0  0  0  0  0  0  0  0  0  0  0
  -89.7071   24.9881   -0.7893 C   0  0  0  0  0  0  0  0  0  0  0  0
  -88.5740   25.3458   -0.0418 C   0  0  0  0  0  0  0  0  0  0  0  0
  -88.7289   25.8593    1.2222 C   0  0  0  0  0  0  0  0  0  0  0  0
  -92.0928   24.7573   -1.0597 N   0  0  0  0  0  0  0  0  0  0  0  0
  -93.4402   25.1975   -0.6896 C   0  0  0  0  0  0  0  0  0  0  0  0
  -94.3674   25.0389   -1.8934 C   0  0  0  0  0  0  0  0  0  0  0  0
  -93.6877   25.5844   -3.1153 C   0  0  0  0  0  0  0  0  0  0  0  0
  -92.5877   24.6093   -3.4775 C   0  0  0  0  0  0  0  0  0  0  0  0
  -92.0117   23.9431   -2.2409 C   0  0  0  0  0  0  0  0  0  0  0  0
  -94.5922   25.6703   -4.2290 N   0  0  0  0  0  0  0  0  0  0  0  0
  -94.3709   24.5430   -5.1437 C   0  0  0  0  0  0  0  0  0  0  0  0
  -95.4168   24.6777   -6.2367 C   0  0  0  0  0  0  0  0  0  0  0  0
  -95.2468   25.8509   -6.9630 O   0  0  0  0  0  0  0  0  0  0  0  0
  -95.4714   26.8992   -6.0783 C   0  0  0  0  0  0  0  0  0  0  0  0
  -94.3741   26.8580   -5.0358 C   0  0  0  0  0  0  0  0  0  0  0  0
  -90.6793   27.8441    3.2062 C   0  0  0  0  0  0  0  0  0  0  0  0
  -90.1345   26.5467    3.0430 O   0  0  0  0  0  0  0  0  0  0  0  0
 42 43  1  0  0  0
 43 24  1  0  0  0
 24 25  2  0  0  0
 25 26  1  0  0  0
 26 27  2  0  0  0
 27 28  1  0  0  0
 28 29  2  0  0  0
 29  1  1  0  0  0
  1  3  1  0  0  0
  3  4  2  0  0  0
  4  5  1  0  0  0
  5  6  2  0  0  0
  6  7  1  0  0  0
  6  8  1  0  0  0
  8 10  1  0  0  0
 10 12  1  0  0  0
 12 13  2  0  0  0
 13 14  1  0  0  0
 14 15  2  0  0  0
 15 16  1  0  0  0
 16 17  2  0  0  0
 17 18  1  0  0  0
 18 19  2  0  0  0
 18 20  2  0  0  0
 18 21  1  0  0  0
 21 22  1  0  0  0
 21 23  1  0  0  0
  8  9  2  0  0  0
 26 30  1  0  0  0
 30 31  1  0  0  0
 31 32  1  0  0  0
 32 33  1  0  0  0
 33 34  1  0  0  0
 34 35  1  0  0  0
 33 36  1  0  0  0
 36 37  1  0  0  0
 37 38  1  0  0  0
 38 39  1  0  0  0
 39 40  1  0  0  0
 40 41  1  0  0  0
 29 24  1  0  0  0
  9  3  1  0  0  0
 35 30  1  0  0  0
 41 36  1  0  0  0
 17 12  1  0  0  0
  1  2  1  0  0  0
 10 11  1  0  0  0
M  END
> <minimizedAffinity>
-7.77990

> <CNNscore>
0.0387936458

> <CNNaffinity>
6.7908415794

> <CNN_VS>
0.2634415030

> <CNNaffinity_variance>
0.2229341567

$$$$
[H]c1c([H])c(C#Cc2c([H])c(O[C@@]([H])(C([H])([H])[H])C([H])([H])OC([H])([H])[H])c([H])c(C(=O)N([H])c3nn(C([H])([H])[H])c([H])c3[H])c2[H])c([H])c([H])c1Cl


 31 33  0  0  0  0  0  0  0  0999 V2000
  -91.1224   21.0671    1.6419 C   0  0  0  0  0  0  0  0  0  0  0  0
  -91.7088   21.3376    0.4061 C   0  0  0  0  0  0  0  0  0  0  0  0
  -92.0043   22.6350    0.0227 C   0  0  0  0  0  0  0  0  0  0  0  0
  -91.6871   23.6231    0.9227 C   0  0  0  0  0  0  0  0  0  0  0  0
  -91.1094   23.4076    2.1509 C   0  0  0  0  0  0  0  0  0  0  0  0
  -90.8229   22.1275    2.5146 C   0  0  0  0  0  0  0  0  0  0  0  0
  -90.8090   24.5354    3.0656 C   0  0  0  0  0  0  0  0  0  0  0  0
  -91.1009   25.6865    2.7277 O   0  0  0  0  0  0  0  0  0  0  0  0
  -90.1973   24.2233    4.2858 N   0  0  0  0  0  0  0  0  0  0  0  0
  -89.9574   23.2422    4.5618 H   0  0  0  0  0  0  0  0  0  0  0  0
  -89.8602   25.2689    5.1977 C   0  0  0  0  0  0  0  0  0  0  0  0
  -89.1252   25.1506    6.3498 C   0  0  0  0  0  0  0  0  0  0  0  0
  -88.9972   26.3759    6.9557 C   0  0  0  0  0  0  0  0  0  0  0  0
  -89.6570   27.2331    6.1656 N   0  0  0  0  0  0  0  0  0  0  0  0
  -89.8045   28.6534    6.3735 C   0  0  0  0  0  0  0  0  0  0  0  0
  -90.1759   26.5896    5.1165 N   0  0  0  0  0  0  0  0  0  0  0  0
  -92.5981   22.9091   -1.2565 C   0  0  0  0  0  0  0  0  0  0  0  0
  -93.0746   23.1570   -2.3580 C   0  0  0  0  0  0  0  0  0  0  0  0
  -93.5920   23.4540   -3.6593 C   0  0  0  0  0  0  0  0  0  0  0  0
  -93.5559   24.7283   -4.1675 C   0  0  0  0  0  0  0  0  0  0  0  0
  -94.0435   25.0542   -5.4357 C   0  0  0  0  0  0  0  0  0  0  0  0
  -94.5837   24.0428   -6.2012 C   0  0  0  0  0  0  0  0  0  0  0  0
  -95.2195   24.3848   -7.7864 Cl  0  0  0  0  0  0  0  0  0  0  0  0
  -94.6365   22.7575   -5.7230 C   0  0  0  0  0  0  0  0  0  0  0  0
  -94.1521   22.4520   -4.4735 C   0  0  0  0  0  0  0  0  0  0  0  0
  -90.8189   19.8318    2.0567 O   0  0  0  0  0  0  0  0  0  0  0  0
  -89.8114   19.1572    2.6791 C   0  0  0  0  0  0  0  0  0  0  0  0
  -88.4893   19.3772    1.9698 C   0  0  0  0  0  0  0  0  0  0  0  0
  -89.7462   19.4313    4.1686 C   0  0  0  0  0  0  0  0  0  0  0  0
  -88.1088   20.5615    5.4629 C   0  0  0  0  0  0  0  0  0  0  0  0
  -88.5136   19.5487    4.6920 O   0  0  0  0  0  0  0  0  0  0  0  0
 30 31  1  0  0  0
 31 29  1  0  0  0
 29 27  1  0  0  0
 27 28  1  0  0  0
 27 26  1  0  0  0
 26  1  1  0  0  0
  1  2  2  0  0  0
  2  3  1  0  0  0
  3  4  2  0  0  0
  4  5  1  0  0  0
  5  6  2  0  0  0
  5  7  1  0  0  0
  7  8  2  0  0  0
  7  9  1  0  0  0
  9 11  1  0  0  0
 11 12  1  0  0  0
 12 13  2  0  0  0
 13 14  1  0  0  0
 14 15  1  0  0  0
 14 16  1  0  0  0
  3 17  1  0  0  0
 17 18  3  0  0  0
 18 19  1  0  0  0
 19 20  2  0  0  0
 20 21  1  0  0  0
 21 22  2  0  0  0
 22 23  1  0  0  0
 22 24  1  0  0  0
 24 25  2  0  0  0
  6  1  1  0  0  0
 16 11  2  0  0  0
 25 19  1  0  0  0
  9 10  1  0  0  0
M  END
> <minimizedAffinity>
-0.73198

> <CNNscore>
0.3023698330

> <CNNaffinity>
4.9309225082

> <CNN_VS>
1.4909622669

> <CNNaffinity_variance>
0.7886757255

$$$$
[H]c1c([H])c(C#Cc2c([H])c(O[C@@]([H])(C([H])([H])[H])C([H])([H])OC([H])([H])[H])c([H])c(C(=O)N([H])c3nn(C([H])([H])[H])c([H])c3[H])c2[H])c([H])c([H])c1Cl


 31 33  0  0  0  0  0  0  0  0999 V2000
  -87.9517   30.1838   -0.9900 C   0  0  0  0  0  0  0  0  0  0  0  0
  -87.8948   29.4660    0.2040 C   0  0  0  0  0  0  0  0  0  0  0  0
  -88.8222   28.4782    0.4902 C   0  0  0  0  0  0  0  0  0  0  0  0
  -89.7858   28.2534   -0.4626 C   0  0  0  0  0  0  0  0  0  0  0  0
  -89.8839   28.9333   -1.6529 C   0  0  0  0  0  0  0  0  0  0  0  0
  -88.9649   29.9007   -1.9222 C   0  0  0  0  0  0  0  0  0  0  0  0
  -90.9649   28.6309   -2.6219 C   0  0  0  0  0  0  0  0  0  0  0  0
  -91.3392   27.4638   -2.7706 O   0  0  0  0  0  0  0  0  0  0  0  0
  -91.5099   29.7098   -3.3286 N   0  0  0  0  0  0  0  0  0  0  0  0
  -91.1855   30.6958   -3.1912 H   0  0  0  0  0  0  0  0  0  0  0  0
  -92.5363   29.4791   -4.2939 C   0  0  0  0  0  0  0  0  0  0  0  0
  -93.7952   30.0237   -4.3025 C   0  0  0  0  0  0  0  0  0  0  0  0
  -94.4944   29.5786   -5.3970 C   0  0  0  0  0  0  0  0  0  0  0  0
  -93.6534   28.7643   -6.0482 N   0  0  0  0  0  0  0  0  0  0  0  0
  -93.9239   28.0520   -7.2736 C   0  0  0  0  0  0  0  0  0  0  0  0
  -92.4853   28.6948   -5.4042 N   0  0  0  0  0  0  0  0  0  0  0  0
  -88.7523   27.7338    1.7169 C   0  0  0  0  0  0  0  0  0  0  0  0
  -88.7219   27.1142    2.7738 C   0  0  0  0  0  0  0  0  0  0  0  0
  -88.7268   26.4017    4.0154 C   0  0  0  0  0  0  0  0  0  0  0  0
  -89.4262   26.8657    5.1013 C   0  0  0  0  0  0  0  0  0  0  0  0
  -89.4609   26.1938    6.3259 C   0  0  0  0  0  0  0  0  0  0  0  0
  -88.7565   25.0138    6.4371 C   0  0  0  0  0  0  0  0  0  0  0  0
  -88.7493   24.1334    7.9400 Cl  0  0  0  0  0  0  0  0  0  0  0  0
  -88.0456   24.5221    5.3711 C   0  0  0  0  0  0  0  0  0  0  0  0
  -88.0215   25.1941    4.1723 C   0  0  0  0  0  0  0  0  0  0  0  0
  -87.0796   31.1466   -1.3110 O   0  0  0  0  0  0  0  0  0  0  0  0
  -87.0596   32.4654   -1.6545 C   0  0  0  0  0  0  0  0  0  0  0  0
  -88.4648   32.9939   -1.8679 C   0  0  0  0  0  0  0  0  0  0  0  0
  -86.2376   33.3130   -0.7038 C   0  0  0  0  0  0  0  0  0  0  0  0
  -83.9258   32.8600   -0.9940 C   0  0  0  0  0  0  0  0  0  0  0  0
  -85.0677   32.7840   -0.3054 O   0  0  0  0  0  0  0  0  0  0  0  0
 30 31  1  0  0  0
 31 29  1  0  0  0
 29 27  1  0  0  0
 27 28  1  0  0  0
 27 26  1  0  0  0
 26  1  1  0  0  0
  1  2  2  0  0  0
  2  3  1  0  0  0
  3  4  2  0  0  0
  4  5  1  0  0  0
  5  6  2  0  0  0
  5  7  1  0  0  0
  7  8  2  0  0  0
  7  9  1  0  0  0
  9 11  1  0  0  0
 11 12  1  0  0  0
 12 13  2  0  0  0
 13 14  1  0  0  0
 14 15  1  0  0  0
 14 16  1  0  0  0
  3 17  1  0  0  0
 17 18  3  0  0  0
 18 19  1  0  0  0
 19 20  2  0  0  0
 20 21  1  0  0  0
 21 22  2  0  0  0
 22 23  1  0  0  0
 22 24  1  0  0  0
 24 25  2  0  0  0
  6  1  1  0  0  0
 16 11  2  0  0  0
 25 19  1  0  0  0
  9 10  1  0  0  0
M  END
> <minimizedAffinity>
-2.81517

> <CNNscore>
0.2843290269

> <CNNaffinity>
5.7866711617

> <CNN_VS>
1.6453186274

> <CNNaffinity_variance>
0.6765332222

$$$$
[H]c1c([H])c(C#Cc2c([H])c(O[C@@]([H])(C([H])([H])[H])C([H])([H])OC([H])([H])[H])c([H])c(C(=O)N([H])c3nn(C([H])([H])[H])c([H])c3[H])c2[H])c([H])c([H])c1Cl


 31 33  0  0  0  0  0  0  0  0999 V2000
  -88.7271   30.0373   -1.1113 C   0  0  0  0  0  0  0  0  0  0  0  0
  -89.6515   29.1334   -1.6334 C   0  0  0  0  0  0  0  0  0  0  0  0
  -89.6261   27.7962   -1.2748 C   0  0  0  0  0  0  0  0  0  0  0  0
  -88.6484   27.4229   -0.3850 C   0  0  0  0  0  0  0  0  0  0  0  0
  -87.7159   28.2748    0.1567 C   0  0  0  0  0  0  0  0  0  0  0  0
  -87.7532   29.5870   -0.2033 C   0  0  0  0  0  0  0  0  0  0  0  0
  -86.6876   27.7830    1.1052 C   0  0  0  0  0  0  0  0  0  0  0  0
  -86.9671   26.8663    1.8835 O   0  0  0  0  0  0  0  0  0  0  0  0
  -85.4319   28.4011    1.0634 N   0  0  0  0  0  0  0  0  0  0  0  0
  -85.2066   29.1760    0.3963 H   0  0  0  0  0  0  0  0  0  0  0  0
  -84.4082   27.9886    1.9693 C   0  0  0  0  0  0  0  0  0  0  0  0
  -84.4017   28.1487    3.3315 C   0  0  0  0  0  0  0  0  0  0  0  0
  -83.2557   27.6121    3.8641 C   0  0  0  0  0  0  0  0  0  0  0  0
  -82.5717   27.1280    2.8192 N   0  0  0  0  0  0  0  0  0  0  0  0
  -81.2956   26.4557    2.8649 C   0  0  0  0  0  0  0  0  0  0  0  0
  -83.2441   27.3447    1.6856 N   0  0  0  0  0  0  0  0  0  0  0  0
  -90.5881   26.8712   -1.8070 C   0  0  0  0  0  0  0  0  0  0  0  0
  -91.3875   26.0766   -2.2880 C   0  0  0  0  0  0  0  0  0  0  0  0
  -92.2909   25.1348   -2.8763 C   0  0  0  0  0  0  0  0  0  0  0  0
  -92.6654   25.2324   -4.1930 C   0  0  0  0  0  0  0  0  0  0  0  0
  -93.5380   24.3277   -4.8034 C   0  0  0  0  0  0  0  0  0  0  0  0
  -94.0398   23.2960   -4.0388 C   0  0  0  0  0  0  0  0  0  0  0  0
  -95.1413   22.1410   -4.7365 Cl  0  0  0  0  0  0  0  0  0  0  0  0
  -93.6868   23.1697   -2.7186 C   0  0  0  0  0  0  0  0  0  0  0  0
  -92.8266   24.0672   -2.1322 C   0  0  0  0  0  0  0  0  0  0  0  0
  -88.7111   31.3374   -1.4275 O   0  0  0  0  0  0  0  0  0  0  0  0
  -87.9206   32.4380   -1.2817 C   0  0  0  0  0  0  0  0  0  0  0  0
  -87.1707   32.3992    0.0358 C   0  0  0  0  0  0  0  0  0  0  0  0
  -87.0214   32.6843   -2.4770 C   0  0  0  0  0  0  0  0  0  0  0  0
  -88.0569   33.8943   -4.2369 C   0  0  0  0  0  0  0  0  0  0  0  0
  -87.6362   32.7605   -3.6701 O   0  0  0  0  0  0  0  0  0  0  0  0
 30 31  1  0  0  0
 31 29  1  0  0  0
 29 27  1  0  0  0
 27 28  1  0  0  0
 27 26  1  0  0  0
 26  1  1  0  0  0
  1  2  2  0  0  0
  2  3  1  0  0  0
  3  4  2  0  0  0
  4  5  1  0  0  0
  5  6  2  0  0  0
  5  7  1  0  0  0
  7  8  2  0  0  0
  7  9  1  0  0  0
  9 11  1  0  0  0
 11 12  1  0  0  0
 12 13  2  0  0  0
 13 14  1  0  0  0
 14 15  1  0  0  0
 14 16  1  0  0  0
  3 17  1  0  0  0
 17 18  3  0  0  0
 18 19  1  0  0  0
 19 20  2  0  0  0
 20 21  1  0  0  0
 21 22  2  0  0  0
 22 23  1  0  0  0
 22 24  1  0  0  0
 24 25  2  0  0  0
  6  1  1  0  0  0
 16 11  2  0  0  0
 25 19  1  0  0  0
  9 10  1  0  0  0
M  END
> <minimizedAffinity>
-0.68459

> <CNNscore>
0.2725938559

> <CNNaffinity>
5.9346375465

> <CNN_VS>
1.6177457571

> <CNNaffinity_variance>
0.9778220057

$$$$
[H]c1c([H])c(C#Cc2c([H])c(O[C@@]([H])(C([H])([H])[H])C([H])([H])OC([H])([H])[H])c([H])c(C(=O)N([H])c3nn(C([H])([H])[H])c([H])c3[H])c2[H])c([H])c([H])c1Cl


 31 33  0  0  0  0  0  0  0  0999 V2000
  -89.7808   31.4357   -2.3877 C   0  0  0  0  0  0  0  0  0  0  0  0
  -90.6156   30.3468   -2.6361 C   0  0  0  0  0  0  0  0  0  0  0  0
  -90.2442   29.0630   -2.2737 C   0  0  0  0  0  0  0  0  0  0  0  0
  -89.0210   28.9326   -1.6625 C   0  0  0  0  0  0  0  0  0  0  0  0
  -88.1636   29.9732   -1.3963 C   0  0  0  0  0  0  0  0  0  0  0  0
  -88.5417   31.2303   -1.7566 C   0  0  0  0  0  0  0  0  0  0  0  0
  -86.8548   29.7397   -0.7396 C   0  0  0  0  0  0  0  0  0  0  0  0
  -85.8244   30.1675   -1.2683 O   0  0  0  0  0  0  0  0  0  0  0  0
  -86.8630   29.0309    0.4679 N   0  0  0  0  0  0  0  0  0  0  0  0
  -87.7444   28.6757    0.9074 H   0  0  0  0  0  0  0  0  0  0  0  0
  -85.6317   28.7526    1.1349 C   0  0  0  0  0  0  0  0  0  0  0  0
  -85.3523   27.6691    1.9283 C   0  0  0  0  0  0  0  0  0  0  0  0
  -84.0587   27.7381    2.3828 C   0  0  0  0  0  0  0  0  0  0  0  0
  -83.5591   28.8662    1.8611 N   0  0  0  0  0  0  0  0  0  0  0  0
  -82.2220   29.3778    2.0425 C   0  0  0  0  0  0  0  0  0  0  0  0
  -84.4827   29.4805    1.1171 N   0  0  0  0  0  0  0  0  0  0  0  0
  -91.1131   27.9460   -2.5218 C   0  0  0  0  0  0  0  0  0  0  0  0
  -91.8265   26.9741   -2.7416 C   0  0  0  0  0  0  0  0  0  0  0  0
  -92.6252   25.8141   -2.9982 C   0  0  0  0  0  0  0  0  0  0  0  0
  -92.9590   25.4468   -4.2778 C   0  0  0  0  0  0  0  0  0  0  0  0
  -93.7293   24.3176   -4.5671 C   0  0  0  0  0  0  0  0  0  0  0  0
  -94.1690   23.5462   -3.5123 C   0  0  0  0  0  0  0  0  0  0  0  0
  -95.1429   22.1319   -3.8045 Cl  0  0  0  0  0  0  0  0  0  0  0  0
  -93.8542   23.8856   -2.2204 C   0  0  0  0  0  0  0  0  0  0  0  0
  -93.0948   24.9993   -1.9514 C   0  0  0  0  0  0  0  0  0  0  0  0
  -90.0950   32.6934   -2.7192 O   0  0  0  0  0  0  0  0  0  0  0  0
  -90.1298   33.5078   -3.8115 C   0  0  0  0  0  0  0  0  0  0  0  0
  -91.3123   33.1758   -4.7009 C   0  0  0  0  0  0  0  0  0  0  0  0
  -90.0400   34.9790   -3.4569 C   0  0  0  0  0  0  0  0  0  0  0  0
  -88.3046   36.5977   -3.4166 C   0  0  0  0  0  0  0  0  0  0  0  0
  -88.8293   35.4187   -3.0723 O   0  0  0  0  0  0  0  0  0  0  0  0
 30 31  1  0  0  0
 31 29  1  0  0  0
 29 27  1  0  0  0
 27 28  1  0  0  0
 27 26  1  0  0  0
 26  1  1  0  0  0
  1  2  2  0  0  0
  2  3  1  0  0  0
  3  4  2  0  0  0
  4  5  1  0  0  0
  5  6  2  0  0  0
  5  7  1  0  0  0
  7  8  2  0  0  0
  7  9  1  0  0  0
  9 11  1  0  0  0
 11 12  1  0  0  0
 12 13  2  0  0  0
 13 14  1  0  0  0
 14 15  1  0  0  0
 14 16  1  0  0  0
  3 17  1  0  0  0
 17 18  3  0  0  0
 18 19  1  0  0  0
 19 20  2  0  0  0
 20 21  1  0  0  0
 21 22  2  0  0  0
 22 23  1  0  0  0
 22 24  1  0  0  0
 24 25  2  0  0  0
  6  1  1  0  0  0
 16 11  2  0  0  0
 25 19  1  0  0  0
  9 10  1  0  0  0
M  END
> <minimizedAffinity>
-4.66473

> <CNNscore>
0.2711037099

> <CNNaffinity>
5.9906239510

> <CNN_VS>
1.6240804195

> <CNNaffinity_variance>
1.0222902298

$$$$
[H]c1c([H])c(C#Cc2c([H])c(O[C@@]([H])(C([H])([H])[H])C([H])([H])OC([H])([H])[H])c([H])c(C(=O)N([H])c3nn(C([H])([H])[H])c([H])c3[H])c2[H])c([H])c([H])c1Cl


 31 33  0  0  0  0  0  0  0  0999 V2000
  -85.6042   31.9442   -0.1089 C   0  0  0  0  0  0  0  0  0  0  0  0
  -86.2167   30.6954   -0.2068 C   0  0  0  0  0  0  0  0  0  0  0  0
  -87.2636   30.4788   -1.0870 C   0  0  0  0  0  0  0  0  0  0  0  0
  -87.6533   31.5552   -1.8462 C   0  0  0  0  0  0  0  0  0  0  0  0
  -87.0823   32.8037   -1.7861 C   0  0  0  0  0  0  0  0  0  0  0  0
  -86.0531   33.0025   -0.9176 C   0  0  0  0  0  0  0  0  0  0  0  0
  -87.5738   33.9136   -2.6379 C   0  0  0  0  0  0  0  0  0  0  0  0
  -88.7233   34.3363   -2.4822 O   0  0  0  0  0  0  0  0  0  0  0  0
  -86.6871   34.4285   -3.5914 N   0  0  0  0  0  0  0  0  0  0  0  0
  -85.7134   34.0628   -3.7116 H   0  0  0  0  0  0  0  0  0  0  0  0
  -87.1109   35.4808   -4.4583 C   0  0  0  0  0  0  0  0  0  0  0  0
  -86.9875   36.8289   -4.2372 C   0  0  0  0  0  0  0  0  0  0  0  0
  -87.4967   37.5302   -5.3020 C   0  0  0  0  0  0  0  0  0  0  0  0
  -87.9272   36.6011   -6.1655 N   0  0  0  0  0  0  0  0  0  0  0  0
  -88.5399   36.8405   -7.4499 C   0  0  0  0  0  0  0  0  0  0  0  0
  -87.7050   35.3777   -5.6777 N   0  0  0  0  0  0  0  0  0  0  0  0
  -87.8837   29.1871   -1.1921 C   0  0  0  0  0  0  0  0  0  0  0  0
  -88.4431   28.0998   -1.2739 C   0  0  0  0  0  0  0  0  0  0  0  0
  -89.1340   26.8497   -1.3701 C   0  0  0  0  0  0  0  0  0  0  0  0
  -88.8835   25.8267   -0.4902 C   0  0  0  0  0  0  0  0  0  0  0  0
  -89.5436   24.5966   -0.5479 C   0  0  0  0  0  0  0  0  0  0  0  0
  -90.4856   24.4133   -1.5377 C   0  0  0  0  0  0  0  0  0  0  0  0
  -91.3358   22.8989   -1.6716 Cl  0  0  0  0  0  0  0  0  0  0  0  0
  -90.7598   25.4151   -2.4348 C   0  0  0  0  0  0  0  0  0  0  0  0
  -90.1026   26.6203   -2.3649 C   0  0  0  0  0  0  0  0  0  0  0  0
  -84.5907   32.2023    0.7258 O   0  0  0  0  0  0  0  0  0  0  0  0
  -83.9353   31.6373    1.7788 C   0  0  0  0  0  0  0  0  0  0  0  0
  -84.9028   31.2615    2.8843 C   0  0  0  0  0  0  0  0  0  0  0  0
  -83.0229   30.4989    1.3672 C   0  0  0  0  0  0  0  0  0  0  0  0
  -82.7253   28.3540    2.3390 C   0  0  0  0  0  0  0  0  0  0  0  0
  -83.4481   29.2621    1.6781 O   0  0  0  0  0  0  0  0  0  0  0  0
 30 31  1  0  0  0
 31 29  1  0  0  0
 29 27  1  0  0  0
 27 28  1  0  0  0
 27 26  1  0  0  0
 26  1  1  0  0  0
  1  2  2  0  0  0
  2  3  1  0  0  0
  3  4  2  0  0  0
  4  5  1  0  0  0
  5  6  2  0  0  0
  5  7  1  0  0  0
  7  8  2  0  0  0
  7  9  1  0  0  0
  9 11  1  0  0  0
 11 12  1  0  0  0
 12 13  2  0  0  0
 13 14  1  0  0  0
 14 15  1  0  0  0
 14 16  1  0  0  0
  3 17  1  0  0  0
 17 18  3  0  0  0
 18 19  1  0  0  0
 19 20  2  0  0  0
 20 21  1  0  0  0
 21 22  2  0  0  0
 22 23  1  0  0  0
 22 24  1  0  0  0
 24 25  2  0  0  0
  6  1  1  0  0  0
 16 11  2  0  0  0
 25 19  1  0  0  0
  9 10  1  0  0  0
M  END
> <minimizedAffinity>
-8.02360

> <CNNscore>
0.1914830506

> <CNNaffinity>
6.1760487556

> <CNN_VS>
1.1826086044

> <CNNaffinity_variance>
0.1920071542

$$$$
[H]c1c([H])c(C#Cc2c([H])c(O[C@@]([H])(C([H])([H])[H])C([H])([H])OC([H])([H])[H])c([H])c(C(=O)N([H])c3nn(C([H])([H])[H])c([H])c3[H])c2[H])c([H])c([H])c1Cl


 31 33  0  0  0  0  0  0  0  0999 V2000
  -86.1963   31.1550    0.1424 C   0  0  0  0  0  0  0  0  0  0  0  0
  -86.3267   32.3032   -0.6379 C   0  0  0  0  0  0  0  0  0  0  0  0
  -87.3568   32.4326   -1.5542 C   0  0  0  0  0  0  0  0  0  0  0  0
  -88.2288   31.3750   -1.6434 C   0  0  0  0  0  0  0  0  0  0  0  0
  -88.1426   30.2239   -0.8977 C   0  0  0  0  0  0  0  0  0  0  0  0
  -87.1260   30.1103    0.0004 C   0  0  0  0  0  0  0  0  0  0  0  0
  -89.1247   29.1257   -1.0662 C   0  0  0  0  0  0  0  0  0  0  0  0
  -90.0928   29.0535   -0.3034 O   0  0  0  0  0  0  0  0  0  0  0  0
  -88.8917   28.2133   -2.1024 N   0  0  0  0  0  0  0  0  0  0  0  0
  -88.0679   28.2873   -2.7445 H   0  0  0  0  0  0  0  0  0  0  0  0
  -89.7882   27.1196   -2.2990 C   0  0  0  0  0  0  0  0  0  0  0  0
  -90.9641   27.1364   -3.0050 C   0  0  0  0  0  0  0  0  0  0  0  0
  -91.5443   25.8923   -2.9848 C   0  0  0  0  0  0  0  0  0  0  0  0
  -90.7148   25.1256   -2.2649 N   0  0  0  0  0  0  0  0  0  0  0  0
  -90.8845   23.7246   -1.9632 C   0  0  0  0  0  0  0  0  0  0  0  0
  -89.6663   25.8414   -1.8499 N   0  0  0  0  0  0  0  0  0  0  0  0
  -87.4931   33.6226   -2.3476 C   0  0  0  0  0  0  0  0  0  0  0  0
  -87.6335   34.6216   -3.0434 C   0  0  0  0  0  0  0  0  0  0  0  0
  -87.8334   35.7718   -3.8718 C   0  0  0  0  0  0  0  0  0  0  0  0
  -87.4414   35.7803   -5.1871 C   0  0  0  0  0  0  0  0  0  0  0  0
  -87.6272   36.8808   -6.0277 C   0  0  0  0  0  0  0  0  0  0  0  0
  -88.2313   38.0029   -5.5014 C   0  0  0  0  0  0  0  0  0  0  0  0
  -88.4818   39.4126   -6.4934 Cl  0  0  0  0  0  0  0  0  0  0  0  0
  -88.6344   38.0284   -4.1898 C   0  0  0  0  0  0  0  0  0  0  0  0
  -88.4454   36.9376   -3.3751 C   0  0  0  0  0  0  0  0  0  0  0  0
  -85.2188   30.9834    1.0399 O   0  0  0  0  0  0  0  0  0  0  0  0
  -84.3112   30.0439    1.4288 C   0  0  0  0  0  0  0  0  0  0  0  0
  -82.9000   30.5964    1.3786 C   0  0  0  0  0  0  0  0  0  0  0  0
  -84.6568   29.4003    2.7571 C   0  0  0  0  0  0  0  0  0  0  0  0
  -83.2386   27.4977    2.8073 C   0  0  0  0  0  0  0  0  0  0  0  0
  -84.4419   28.0760    2.8429 O   0  0  0  0  0  0  0  0  0  0  0  0
 30 31  1  0  0  0
 31 29  1  0  0  0
 29 27  1  0  0  0
 27 28  1  0  0  0
 27 26  1  0  0  0
 26  1  1  0  0  0
  1  2  2  0  0  0
  2  3  1  0  0  0
  3  4  2  0  0  0
  4  5  1  0  0  0
  5  6  2  0  0  0
  5  7  1  0  0  0
  7  8  2  0  0  0
  7  9  1  0  0  0
  9 11  1  0  0  0
 11 12  1  0  0  0
 12 13  2  0  0  0
 13 14  1  0  0  0
 14 15  1  0  0  0
 14 16  1  0  0  0
  3 17  1  0  0  0
 17 18  3  0  0  0
 18 19  1  0  0  0
 19 20  2  0  0  0
 20 21  1  0  0  0
 21 22  2  0  0  0
 22 23  1  0  0  0
 22 24  1  0  0  0
 24 25  2  0  0  0
  6  1  1  0  0  0
 16 11  2  0  0  0
 25 19  1  0  0  0
  9 10  1  0  0  0
M  END
> <minimizedAffinity>
-7.60425

> <CNNscore>
0.1503402144

> <CNNaffinity>
5.9050564766

> <CNN_VS>
0.8877674341

> <CNNaffinity_variance>
0.2027013749

$$$$
[H]c1c([H])c(C#Cc2c([H])c(O[C@@]([H])(C([H])([H])[H])C([H])([H])OC([H])([H])[H])c([H])c(C(=O)N([H])c3nn(C([H])([H])[H])c([H])c3[H])c2[H])c([H])c([H])c1Cl


 31 33  0  0  0  0  0  0  0  0999 V2000
  -90.8441   29.2428   -2.5029 C   0  0  0  0  0  0  0  0  0  0  0  0
  -90.8573   30.2572   -3.4595 C   0  0  0  0  0  0  0  0  0  0  0  0
  -89.8765   31.2346   -3.4800 C   0  0  0  0  0  0  0  0  0  0  0  0
  -88.9045   31.1420   -2.5138 C   0  0  0  0  0  0  0  0  0  0  0  0
  -88.8481   30.1630   -1.5509 C   0  0  0  0  0  0  0  0  0  0  0  0
  -89.8177   29.2076   -1.5432 C   0  0  0  0  0  0  0  0  0  0  0  0
  -87.7652   30.1450   -0.5381 C   0  0  0  0  0  0  0  0  0  0  0  0
  -87.8017   29.3163    0.3764 O   0  0  0  0  0  0  0  0  0  0  0  0
  -86.7420   31.0903   -0.6796 N   0  0  0  0  0  0  0  0  0  0  0  0
  -86.7212   31.7862   -1.4616 H   0  0  0  0  0  0  0  0  0  0  0  0
  -85.6846   31.1393    0.2786 C   0  0  0  0  0  0  0  0  0  0  0  0
  -84.3520   30.9130    0.0455 C   0  0  0  0  0  0  0  0  0  0  0  0
  -83.6372   31.0646    1.2078 C   0  0  0  0  0  0  0  0  0  0  0  0
  -84.5427   31.3830    2.1421 N   0  0  0  0  0  0  0  0  0  0  0  0
  -84.2810   31.6518    3.5356 C   0  0  0  0  0  0  0  0  0  0  0  0
  -85.7646   31.4309    1.6048 N   0  0  0  0  0  0  0  0  0  0  0  0
  -89.8885   32.2710   -4.4748 C   0  0  0  0  0  0  0  0  0  0  0  0
  -89.9203   33.1734   -5.3034 C   0  0  0  0  0  0  0  0  0  0  0  0
  -89.9749   34.2530   -6.2419 C   0  0  0  0  0  0  0  0  0  0  0  0
  -90.8151   34.2135   -7.3264 C   0  0  0  0  0  0  0  0  0  0  0  0
  -90.9014   35.2510   -8.2582 C   0  0  0  0  0  0  0  0  0  0  0  0
  -90.1014   36.3581   -8.0705 C   0  0  0  0  0  0  0  0  0  0  0  0
  -90.1528   37.6811   -9.2024 Cl  0  0  0  0  0  0  0  0  0  0  0  0
  -89.2491   36.4296   -6.9972 C   0  0  0  0  0  0  0  0  0  0  0  0
  -89.1757   35.4010   -6.0883 C   0  0  0  0  0  0  0  0  0  0  0  0
  -91.7688   28.2777   -2.4423 O   0  0  0  0  0  0  0  0  0  0  0  0
  -91.8749   26.9240   -2.5605 C   0  0  0  0  0  0  0  0  0  0  0  0
  -90.7144   26.3540   -3.3529 C   0  0  0  0  0  0  0  0  0  0  0  0
  -92.0932   26.2284   -1.2314 C   0  0  0  0  0  0  0  0  0  0  0  0
  -91.3933   24.2165   -0.1846 C   0  0  0  0  0  0  0  0  0  0  0  0
  -91.8850   24.9004   -1.2211 O   0  0  0  0  0  0  0  0  0  0  0  0
 30 31  1  0  0  0
 31 29  1  0  0  0
 29 27  1  0  0  0
 27 28  1  0  0  0
 27 26  1  0  0  0
 26  1  1  0  0  0
  1  2  2  0  0  0
  2  3  1  0  0  0
  3  4  2  0  0  0
  4  5  1  0  0  0
  5  6  2  0  0  0
  5  7  1  0  0  0
  7  8  2  0  0  0
  7  9  1  0  0  0
  9 11  1  0  0  0
 11 12  1  0  0  0
 12 13  2  0  0  0
 13 14  1  0  0  0
 14 15  1  0  0  0
 14 16  1  0  0  0
  3 17  1  0  0  0
 17 18  3  0  0  0
 18 19  1  0  0  0
 19 20  2  0  0  0
 20 21  1  0  0  0
 21 22  2  0  0  0
 22 23  1  0  0  0
 22 24  1  0  0  0
 24 25  2  0  0  0
  6  1  1  0  0  0
 16 11  2  0  0  0
 25 19  1  0  0  0
  9 10  1  0  0  0
M  END
> <minimizedAffinity>
-4.85760

> <CNNscore>
0.1292729080

> <CNNaffinity>
5.6877522469

> <CNN_VS>
0.7352722883

> <CNNaffinity_variance>
0.4017628133

$$$$
[H]c1c([H])c(C#Cc2c([H])c(O[C@@]([H])(C([H])([H])[H])C([H])([H])OC([H])([H])[H])c([H])c(C(=O)N([H])c3nn(C([H])([H])[H])c([H])c3[H])c2[H])c([H])c([H])c1Cl


 31 33  0  0  0  0  0  0  0  0999 V2000
  -90.4255   29.3196   -2.5077 C   0  0  0  0  0  0  0  0  0  0  0  0
  -90.6482   30.5221   -3.1773 C   0  0  0  0  0  0  0  0  0  0  0  0
  -89.8156   31.6121   -2.9872 C   0  0  0  0  0  0  0  0  0  0  0  0
  -88.7721   31.4357   -2.1115 C   0  0  0  0  0  0  0  0  0  0  0  0
  -88.5111   30.2721   -1.4284 C   0  0  0  0  0  0  0  0  0  0  0  0
  -89.3367   29.2079   -1.6257 C   0  0  0  0  0  0  0  0  0  0  0  0
  -87.3649   30.1726   -0.4929 C   0  0  0  0  0  0  0  0  0  0  0  0
  -86.7942   31.2016   -0.1190 O   0  0  0  0  0  0  0  0  0  0  0  0
  -86.9869   28.8894   -0.0794 N   0  0  0  0  0  0  0  0  0  0  0  0
  -87.4811   28.0245   -0.4017 H   0  0  0  0  0  0  0  0  0  0  0  0
  -85.8746   28.7272    0.8011 C   0  0  0  0  0  0  0  0  0  0  0  0
  -85.8026   27.8984    1.8916 C   0  0  0  0  0  0  0  0  0  0  0  0
  -84.5681   28.0031    2.4831 C   0  0  0  0  0  0  0  0  0  0  0  0
  -83.8962   28.8973    1.7460 N   0  0  0  0  0  0  0  0  0  0  0  0
  -82.5412   29.3440    1.9622 C   0  0  0  0  0  0  0  0  0  0  0  0
  -84.6601   29.3370    0.7424 N   0  0  0  0  0  0  0  0  0  0  0  0
  -90.0430   32.8453   -3.6883 C   0  0  0  0  0  0  0  0  0  0  0  0
  -90.2683   33.8991   -4.2720 C   0  0  0  0  0  0  0  0  0  0  0  0
  -90.5648   35.1364   -4.9279 C   0  0  0  0  0  0  0  0  0  0  0  0
  -91.5875   35.2341   -5.8380 C   0  0  0  0  0  0  0  0  0  0  0  0
  -91.9113   36.4260   -6.4914 C   0  0  0  0  0  0  0  0  0  0  0  0
  -91.1625   37.5469   -6.2022 C   0  0  0  0  0  0  0  0  0  0  0  0
  -91.5073   39.0611   -6.9911 Cl  0  0  0  0  0  0  0  0  0  0  0  0
  -90.1320   37.4839   -5.2980 C   0  0  0  0  0  0  0  0  0  0  0  0
  -89.8258   36.3042   -4.6624 C   0  0  0  0  0  0  0  0  0  0  0  0
  -91.2015   28.2399   -2.6579 O   0  0  0  0  0  0  0  0  0  0  0  0
  -92.0365   27.4446   -1.9314 C   0  0  0  0  0  0  0  0  0  0  0  0
  -93.1499   26.8888   -2.7978 C   0  0  0  0  0  0  0  0  0  0  0  0
  -91.3020   26.3794   -1.1416 C   0  0  0  0  0  0  0  0  0  0  0  0
  -90.6753   26.2955    1.1462 C   0  0  0  0  0  0  0  0  0  0  0  0
  -91.5873   26.3182    0.1707 O   0  0  0  0  0  0  0  0  0  0  0  0
 30 31  1  0  0  0
 31 29  1  0  0  0
 29 27  1  0  0  0
 27 28  1  0  0  0
 27 26  1  0  0  0
 26  1  1  0  0  0
  1  2  2  0  0  0
  2  3  1  0  0  0
  3  4  2  0  0  0
  4  5  1  0  0  0
  5  6  2  0  0  0
  5  7  1  0  0  0
  7  8  2  0  0  0
  7  9  1  0  0  0
  9 11  1  0  0  0
 11 12  1  0  0  0
 12 13  2  0  0  0
 13 14  1  0  0  0
 14 15  1  0  0  0
 14 16  1  0  0  0
  3 17  1  0  0  0
 17 18  3  0  0  0
 18 19  1  0  0  0
 19 20  2  0  0  0
 20 21  1  0  0  0
 21 22  2  0  0  0
 22 23  1  0  0  0
 22 24  1  0  0  0
 24 25  2  0  0  0
  6  1  1  0  0  0
 16 11  2  0  0  0
 25 19  1  0  0  0
  9 10  1  0  0  0
M  END
> <minimizedAffinity>
-5.45070

> <CNNscore>
0.1269054711

> <CNNaffinity>
5.6437020302

> <CNN_VS>
0.7162166834

> <CNNaffinity_variance>
0.3112520278

$$$$
[H]c1c([H])c(C#Cc2c([H])c(O[C@@]([H])(C([H])([H])[H])C([H])([H])OC([H])([H])[H])c([H])c(C(=O)N([H])c3nn(C([H])([H])[H])c([H])c3[H])c2[H])c([H])c([H])c1Cl


 31 33  0  0  0  0  0  0  0  0999 V2000
  -86.4600   30.0136    0.1630 C   0  0  0  0  0  0  0  0  0  0  0  0
  -87.2086   28.8897   -0.1844 C   0  0  0  0  0  0  0  0  0  0  0  0
  -88.1749   28.9514   -1.1744 C   0  0  0  0  0  0  0  0  0  0  0  0
  -88.3456   30.1707   -1.7835 C   0  0  0  0  0  0  0  0  0  0  0  0
  -87.6339   31.3057   -1.4770 C   0  0  0  0  0  0  0  0  0  0  0  0
  -86.6861   31.2307   -0.5028 C   0  0  0  0  0  0  0  0  0  0  0  0
  -87.8910   32.5854   -2.1806 C   0  0  0  0  0  0  0  0  0  0  0  0
  -88.6083   33.4381   -1.6488 O   0  0  0  0  0  0  0  0  0  0  0  0
  -87.2936   32.7562   -3.4353 N   0  0  0  0  0  0  0  0  0  0  0  0
  -86.6849   32.0261   -3.8743 H   0  0  0  0  0  0  0  0  0  0  0  0
  -87.5243   33.9568   -4.1729 C   0  0  0  0  0  0  0  0  0  0  0  0
  -88.5007   34.1705   -5.1122 C   0  0  0  0  0  0  0  0  0  0  0  0
  -88.4184   35.4531   -5.5949 C   0  0  0  0  0  0  0  0  0  0  0  0
  -87.3898   36.0119   -4.9438 N   0  0  0  0  0  0  0  0  0  0  0  0
  -86.9076   37.3632   -5.0983 C   0  0  0  0  0  0  0  0  0  0  0  0
  -86.8479   35.1344   -4.0951 N   0  0  0  0  0  0  0  0  0  0  0  0
  -88.9356   27.7875   -1.5363 C   0  0  0  0  0  0  0  0  0  0  0  0
  -89.6135   26.8122   -1.8379 C   0  0  0  0  0  0  0  0  0  0  0  0
  -90.4398   25.6979   -2.1913 C   0  0  0  0  0  0  0  0  0  0  0  0
  -91.5911   25.8662   -2.9191 C   0  0  0  0  0  0  0  0  0  0  0  0
  -92.4178   24.8023   -3.2893 C   0  0  0  0  0  0  0  0  0  0  0  0
  -92.0512   23.5316   -2.8996 C   0  0  0  0  0  0  0  0  0  0  0  0
  -93.0444   22.1634   -3.3189 Cl  0  0  0  0  0  0  0  0  0  0  0  0
  -90.9068   23.3280   -2.1700 C   0  0  0  0  0  0  0  0  0  0  0  0
  -90.1031   24.3847   -1.8138 C   0  0  0  0  0  0  0  0  0  0  0  0
  -85.5167   30.0038    1.1119 O   0  0  0  0  0  0  0  0  0  0  0  0
  -84.3554   30.6390    1.4366 C   0  0  0  0  0  0  0  0  0  0  0  0
  -84.5913   31.6968    2.4972 C   0  0  0  0  0  0  0  0  0  0  0  0
  -83.2330   29.6809    1.7838 C   0  0  0  0  0  0  0  0  0  0  0  0
  -82.7768   27.5409    2.7035 C   0  0  0  0  0  0  0  0  0  0  0  0
  -83.5947   28.5622    2.4355 O   0  0  0  0  0  0  0  0  0  0  0  0
 30 31  1  0  0  0
 31 29  1  0  0  0
 29 27  1  0  0  0
 27 28  1  0  0  0
 27 26  1  0  0  0
 26  1  1  0  0  0
  1  2  2  0  0  0
  2  3  1  0  0  0
  3  4  2  0  0  0
  4  5  1  0  0  0
  5  6  2  0  0  0
  5  7  1  0  0  0
  7  8  2  0  0  0
  7  9  1  0  0  0
  9 11  1  0  0  0
 11 12  1  0  0  0
 12 13  2  0  0  0
 13 14  1  0  0  0
 14 15  1  0  0  0
 14 16  1  0  0  0
  3 17  1  0  0  0
 17 18  3  0  0  0
 18 19  1  0  0  0
 19 20  2  0  0  0
 20 21  1  0  0  0
 21 22  2  0  0  0
 22 23  1  0  0  0
 22 24  1  0  0  0
 24 25  2  0  0  0
  6  1  1  0  0  0
 16 11  2  0  0  0
 25 19  1  0  0  0
  9 10  1  0  0  0
M  END
> <minimizedAffinity>
-7.35954

> <CNNscore>
0.1146199554

> <CNNaffinity>
5.8382196426

> <CNN_VS>
0.6691764593

> <CNNaffinity_variance>
0.2279758751

$$$$
[H]c1c([H])c([C@@]2([H])C([H])([H])N(S(=O)(=O)C([H])([H])[H])C([H])([H])[C@]2([H])N([H])C(=O)c2c([H])c(OC([H])([H])[H])c(OC([H])([H])[H])c(OC([H])([H])[H])c2[H])c([H])c(F)c1F


 33 35  0  0  0  0  0  0  0  0999 V2000
  -88.0996   28.2632    0.1375 C   0  0  0  0  0  0  0  0  0  0  0  0
  -87.5230   27.0816   -0.6104 C   0  0  0  0  0  0  0  0  0  0  0  0
  -86.7821   27.6973   -1.6642 N   0  0  0  0  0  0  0  0  0  0  0  0
  -86.0429   28.7595   -1.0062 C   0  0  0  0  0  0  0  0  0  0  0  0
  -87.0655   29.3272   -0.0152 C   0  0  0  0  0  0  0  0  0  0  0  0
  -86.4053   29.7214    1.2442 C   0  0  0  0  0  0  0  0  0  0  0  0
  -86.7129   29.0870    2.4421 C   0  0  0  0  0  0  0  0  0  0  0  0
  -86.0860   29.4713    3.5979 C   0  0  0  0  0  0  0  0  0  0  0  0
  -85.1454   30.4726    3.6511 C   0  0  0  0  0  0  0  0  0  0  0  0
  -84.5474   30.8213    4.8243 F   0  0  0  0  0  0  0  0  0  0  0  0
  -84.8397   31.1029    2.4615 C   0  0  0  0  0  0  0  0  0  0  0  0
  -83.9105   32.1012    2.4771 F   0  0  0  0  0  0  0  0  0  0  0  0
  -85.4562   30.7351    1.2844 C   0  0  0  0  0  0  0  0  0  0  0  0
  -90.4340   27.8014   -0.5968 C   0  0  0  0  0  0  0  0  0  0  0  0
  -90.3495   26.6670   -0.0736 O   0  0  0  0  0  0  0  0  0  0  0  0
  -89.3377   28.6805   -0.5378 N   0  0  0  0  0  0  0  0  0  0  0  0
  -89.3501   29.6389   -0.9564 H   0  0  0  0  0  0  0  0  0  0  0  0
  -93.8883   27.7300   -2.0310 C   0  0  0  0  0  0  0  0  0  0  0  0
  -92.7402   27.3080   -1.3952 C   0  0  0  0  0  0  0  0  0  0  0  0
  -91.6699   28.1765   -1.2530 C   0  0  0  0  0  0  0  0  0  0  0  0
  -91.7595   29.4764   -1.7549 C   0  0  0  0  0  0  0  0  0  0  0  0
  -92.9013   29.9065   -2.3908 C   0  0  0  0  0  0  0  0  0  0  0  0
  -93.9512   29.0147   -2.5160 C   0  0  0  0  0  0  0  0  0  0  0  0
  -95.2030   25.7930   -1.2956 C   0  0  0  0  0  0  0  0  0  0  0  0
  -94.9920   26.8895   -2.1972 O   0  0  0  0  0  0  0  0  0  0  0  0
  -92.9976   31.2131   -2.8978 O   0  0  0  0  0  0  0  0  0  0  0  0
  -91.8028   31.9433   -3.0921 C   0  0  0  0  0  0  0  0  0  0  0  0
  -95.1177   29.4288   -3.1567 O   0  0  0  0  0  0  0  0  0  0  0  0
  -95.1299   30.7256   -3.7156 C   0  0  0  0  0  0  0  0  0  0  0  0
  -85.7152   26.6177   -2.4701 S   0  0  0  0  0  0  0  0  0  0  0  0
  -85.2996   25.2142   -1.4871 C   0  0  0  0  0  0  0  0  0  0  0  0
  -84.4429   27.3618   -2.7665 O   0  0  0  0  0  0  0  0  0  0  0  0
  -86.3210   26.2415   -3.7921 O   0  0  0  0  0  0  0  0  0  0  0  0
 24 25  1  0  0  0
 25 18  1  0  0  0
 18 19  2  0  0  0
 19 20  1  0  0  0
 20 21  2  0  0  0
 21 22  1  0  0  0
 22 26  1  0  0  0
 26 27  1  0  0  0
 22 23  2  0  0  0
 23 28  1  0  0  0
 28 29  1  0  0  0
 20 14  1  0  0  0
 14 15  2  0  0  0
 14 16  1  0  0  0
 16  1  1  0  0  0
  1  2  1  0  0  0
  2  3  1  0  0  0
  3  4  1  0  0  0
  4  5  1  0  0  0
  5  6  1  0  0  0
  6  7  2  0  0  0
  7  8  1  0  0  0
  8  9  2  0  0  0
  9 10  1  0  0  0
  9 11  1  0  0  0
 11 12  1  0  0  0
 11 13  2  0  0  0
  3 30  1  0  0  0
 30 31  1  0  0  0
 30 32  2  0  0  0
 30 33  2  0  0  0
 23 18  1  0  0  0
  5  1  1  0  0  0
 13  6  1  0  0  0
 16 17  1  0  0  0
M  END
> <minimizedAffinity>
14.36312

> <CNNscore>
0.3418547213

> <CNNaffinity>
5.8960456848

> <CNN_VS>
2.0155911446

> <CNNaffinity_variance>
2.0966219902

$$$$
[H]c1c([H])c([C@@]2([H])C([H])([H])N(S(=O)(=O)C([H])([H])[H])C([H])([H])[C@]2([H])N([H])C(=O)c2c([H])c(OC([H])([H])[H])c(OC([H])([H])[H])c(OC([H])([H])[H])c2[H])c([H])c(F)c1F


 33 35  0  0  0  0  0  0  0  0999 V2000
  -89.8940   26.8153   -2.4841 C   0  0  0  0  0  0  0  0  0  0  0  0
  -89.8737   25.4026   -1.9436 C   0  0  0  0  0  0  0  0  0  0  0  0
  -90.8930   25.4251   -0.9441 N   0  0  0  0  0  0  0  0  0  0  0  0
  -92.0070   26.0983   -1.5869 C   0  0  0  0  0  0  0  0  0  0  0  0
  -91.3230   27.2263   -2.3678 C   0  0  0  0  0  0  0  0  0  0  0  0
  -92.0007   27.4494   -3.6595 C   0  0  0  0  0  0  0  0  0  0  0  0
  -92.1764   28.7332   -4.1627 C   0  0  0  0  0  0  0  0  0  0  0  0
  -92.8088   28.9139   -5.3643 C   0  0  0  0  0  0  0  0  0  0  0  0
  -93.2948   27.8781   -6.1264 C   0  0  0  0  0  0  0  0  0  0  0  0
  -93.9175   28.1055   -7.3165 F   0  0  0  0  0  0  0  0  0  0  0  0
  -93.1204   26.6030   -5.6269 C   0  0  0  0  0  0  0  0  0  0  0  0
  -93.5903   25.5510   -6.3569 F   0  0  0  0  0  0  0  0  0  0  0  0
  -92.4874   26.3937   -4.4201 C   0  0  0  0  0  0  0  0  0  0  0  0
  -88.1814   28.5961   -2.1708 C   0  0  0  0  0  0  0  0  0  0  0  0
  -88.1023   28.7066   -3.4155 O   0  0  0  0  0  0  0  0  0  0  0  0
  -89.0668   27.6590   -1.6084 N   0  0  0  0  0  0  0  0  0  0  0  0
  -89.1755   27.5223   -0.5771 H   0  0  0  0  0  0  0  0  0  0  0  0
  -86.6128   31.5760   -0.5418 C   0  0  0  0  0  0  0  0  0  0  0  0
  -87.4339   30.8276   -1.3580 C   0  0  0  0  0  0  0  0  0  0  0  0
  -87.3508   29.4445   -1.3409 C   0  0  0  0  0  0  0  0  0  0  0  0
  -86.4347   28.8148   -0.4960 C   0  0  0  0  0  0  0  0  0  0  0  0
  -85.6112   29.5533    0.3222 C   0  0  0  0  0  0  0  0  0  0  0  0
  -85.7196   30.9317    0.2808 C   0  0  0  0  0  0  0  0  0  0  0  0
  -86.2963   33.7182   -1.6958 C   0  0  0  0  0  0  0  0  0  0  0  0
  -86.6616   32.9723   -0.5254 O   0  0  0  0  0  0  0  0  0  0  0  0
  -84.6876   28.9257    1.1745 O   0  0  0  0  0  0  0  0  0  0  0  0
  -85.1470   27.8695    1.9944 C   0  0  0  0  0  0  0  0  0  0  0  0
  -84.8953   31.7000    1.1012 O   0  0  0  0  0  0  0  0  0  0  0  0
  -83.6066   32.0167    0.6183 C   0  0  0  0  0  0  0  0  0  0  0  0
  -91.3533   23.8603   -0.4030 S   0  0  0  0  0  0  0  0  0  0  0  0
  -92.2933   22.9758   -1.6043 C   0  0  0  0  0  0  0  0  0  0  0  0
  -92.2141   24.0291    0.8181 O   0  0  0  0  0  0  0  0  0  0  0  0
  -90.1201   23.1196    0.0292 O   0  0  0  0  0  0  0  0  0  0  0  0
 24 25  1  0  0  0
 25 18  1  0  0  0
 18 19  2  0  0  0
 19 20  1  0  0  0
 20 21  2  0  0  0
 21 22  1  0  0  0
 22 26  1  0  0  0
 26 27  1  0  0  0
 22 23  2  0  0  0
 23 28  1  0  0  0
 28 29  1  0  0  0
 20 14  1  0  0  0
 14 15  2  0  0  0
 14 16  1  0  0  0
 16  1  1  0  0  0
  1  2  1  0  0  0
  2  3  1  0  0  0
  3  4  1  0  0  0
  4  5  1  0  0  0
  5  6  1  0  0  0
  6  7  2  0  0  0
  7  8  1  0  0  0
  8  9  2  0  0  0
  9 10  1  0  0  0
  9 11  1  0  0  0
 11 12  1  0  0  0
 11 13  2  0  0  0
  3 30  1  0  0  0
 30 31  1  0  0  0
 30 32  2  0  0  0
 30 33  2  0  0  0
 23 18  1  0  0  0
  5  1  1  0  0  0
 13  6  1  0  0  0
 16 17  1  0  0  0
M  END
> <minimizedAffinity>
-7.64869

> <CNNscore>
0.1581642777

> <CNNaffinity>
5.6319303513

> <CNN_VS>
0.8907701969

> <CNNaffinity_variance>
0.3773521483

$$$$
[H]c1c([H])c([C@@]2([H])C([H])([H])N(S(=O)(=O)C([H])([H])[H])C([H])([H])[C@]2([H])N([H])C(=O)c2c([H])c(OC([H])([H])[H])c(OC([H])([H])[H])c(OC([H])([H])[H])c2[H])c([H])c(F)c1F


 33 35  0  0  0  0  0  0  0  0999 V2000
  -89.7522   26.6697   -2.3572 C   0  0  0  0  0  0  0  0  0  0  0  0
  -89.7430   25.2455   -1.8477 C   0  0  0  0  0  0  0  0  0  0  0  0
  -90.7214   25.2686   -0.8081 N   0  0  0  0  0  0  0  0  0  0  0  0
  -91.8441   25.9801   -1.3918 C   0  0  0  0  0  0  0  0  0  0  0  0
  -91.1657   27.1096   -2.1755 C   0  0  0  0  0  0  0  0  0  0  0  0
  -91.8884   27.3757   -3.4342 C   0  0  0  0  0  0  0  0  0  0  0  0
  -92.4140   26.3350   -4.1910 C   0  0  0  0  0  0  0  0  0  0  0  0
  -93.0809   26.6081   -5.3559 C   0  0  0  0  0  0  0  0  0  0  0  0
  -93.2693   27.8815   -5.8386 C   0  0  0  0  0  0  0  0  0  0  0  0
  -93.9396   28.1058   -7.0032 F   0  0  0  0  0  0  0  0  0  0  0  0
  -92.7474   28.9154   -5.0873 C   0  0  0  0  0  0  0  0  0  0  0  0
  -92.9157   30.1922   -5.5363 F   0  0  0  0  0  0  0  0  0  0  0  0
  -92.0720   28.6675   -3.9111 C   0  0  0  0  0  0  0  0  0  0  0  0
  -88.1291   28.5338   -2.0515 C   0  0  0  0  0  0  0  0  0  0  0  0
  -88.2212   28.7837   -3.2750 O   0  0  0  0  0  0  0  0  0  0  0  0
  -88.8721   27.4757   -1.4976 N   0  0  0  0  0  0  0  0  0  0  0  0
  -88.8356   27.2206   -0.4839 H   0  0  0  0  0  0  0  0  0  0  0  0
  -85.5028   29.6467    0.3687 C   0  0  0  0  0  0  0  0  0  0  0  0
  -86.3063   28.8122   -0.3786 C   0  0  0  0  0  0  0  0  0  0  0  0
  -87.2519   29.3496   -1.2371 C   0  0  0  0  0  0  0  0  0  0  0  0
  -87.3865   30.7355   -1.3413 C   0  0  0  0  0  0  0  0  0  0  0  0
  -86.5889   31.5763   -0.5996 C   0  0  0  0  0  0  0  0  0  0  0  0
  -85.6552   31.0074    0.2476 C   0  0  0  0  0  0  0  0  0  0  0  0
  -84.9050   28.7667    2.5799 C   0  0  0  0  0  0  0  0  0  0  0  0
  -84.5362   29.1498    1.2469 O   0  0  0  0  0  0  0  0  0  0  0  0
  -86.7194   32.9714   -0.7002 O   0  0  0  0  0  0  0  0  0  0  0  0
  -86.5239   33.5704   -1.9657 C   0  0  0  0  0  0  0  0  0  0  0  0
  -84.8364   31.8401    1.0086 O   0  0  0  0  0  0  0  0  0  0  0  0
  -83.5820   32.1949    0.4657 C   0  0  0  0  0  0  0  0  0  0  0  0
  -91.1957   23.7029   -0.2820 S   0  0  0  0  0  0  0  0  0  0  0  0
  -92.8828   23.6397    0.2263 C   0  0  0  0  0  0  0  0  0  0  0  0
  -90.3465   23.3377    0.9038 O   0  0  0  0  0  0  0  0  0  0  0  0
  -90.8794   22.7149   -1.3683 O   0  0  0  0  0  0  0  0  0  0  0  0
 24 25  1  0  0  0
 25 18  1  0  0  0
 18 19  2  0  0  0
 19 20  1  0  0  0
 20 21  2  0  0  0
 21 22  1  0  0  0
 22 26  1  0  0  0
 26 27  1  0  0  0
 22 23  2  0  0  0
 23 28  1  0  0  0
 28 29  1  0  0  0
 20 14  1  0  0  0
 14 15  2  0  0  0
 14 16  1  0  0  0
 16  1  1  0  0  0
  1  2  1  0  0  0
  2  3  1  0  0  0
  3  4  1  0  0  0
  4  5  1  0  0  0
  5  6  1  0  0  0
  6  7  2  0  0  0
  7  8  1  0  0  0
  8  9  2  0  0  0
  9 10  1  0  0  0
  9 11  1  0  0  0
 11 12  1  0  0  0
 11 13  2  0  0  0
  3 30  1  0  0  0
 30 31  1  0  0  0
 30 32  2  0  0  0
 30 33  2  0  0  0
 23 18  1  0  0  0
  5  1  1  0  0  0
 13  6  1  0  0  0
 16 17  1  0  0  0
M  END
> <minimizedAffinity>
-7.62147

> <CNNscore>
0.1510974318

> <CNNaffinity>
5.6854858398

> <CNN_VS>
0.8590623140

> <CNNaffinity_variance>
0.4121251702

$$$$
[H]c1c([H])c([C@@]2([H])C([H])([H])N(S(=O)(=O)C([H])([H])[H])C([H])([H])[C@]2([H])N([H])C(=O)c2c([H])c(OC([H])([H])[H])c(OC([H])([H])[H])c(OC([H])([H])[H])c2[H])c([H])c(F)c1F


 33 35  0  0  0  0  0  0  0  0999 V2000
  -87.8657   28.9796    0.2738 C   0  0  0  0  0  0  0  0  0  0  0  0
  -87.0888   28.7493    1.5511 C   0  0  0  0  0  0  0  0  0  0  0  0
  -85.8069   28.3345    1.0785 N   0  0  0  0  0  0  0  0  0  0  0  0
  -85.4928   29.2814    0.0240 C   0  0  0  0  0  0  0  0  0  0  0  0
  -86.8356   29.4529   -0.6955 C   0  0  0  0  0  0  0  0  0  0  0  0
  -87.0122   30.8487   -1.1405 C   0  0  0  0  0  0  0  0  0  0  0  0
  -87.8103   31.1544   -2.2366 C   0  0  0  0  0  0  0  0  0  0  0  0
  -87.9584   32.4583   -2.6299 C   0  0  0  0  0  0  0  0  0  0  0  0
  -87.3511   33.5140   -1.9922 C   0  0  0  0  0  0  0  0  0  0  0  0
  -87.5273   34.7957   -2.4190 F   0  0  0  0  0  0  0  0  0  0  0  0
  -86.5584   33.2107   -0.9035 C   0  0  0  0  0  0  0  0  0  0  0  0
  -85.9403   34.2339   -0.2466 F   0  0  0  0  0  0  0  0  0  0  0  0
  -86.3928   31.9068   -0.4872 C   0  0  0  0  0  0  0  0  0  0  0  0
  -89.5996   27.6547   -0.9263 C   0  0  0  0  0  0  0  0  0  0  0  0
  -90.1900   28.7232   -1.2049 O   0  0  0  0  0  0  0  0  0  0  0  0
  -88.4096   27.6899   -0.1774 N   0  0  0  0  0  0  0  0  0  0  0  0
  -87.8736   26.8309    0.0851 H   0  0  0  0  0  0  0  0  0  0  0  0
  -91.6671   25.1143   -2.7335 C   0  0  0  0  0  0  0  0  0  0  0  0
  -91.1727   26.3390   -2.3381 C   0  0  0  0  0  0  0  0  0  0  0  0
  -90.1659   26.4040   -1.3883 C   0  0  0  0  0  0  0  0  0  0  0  0
  -89.6564   25.2273   -0.8354 C   0  0  0  0  0  0  0  0  0  0  0  0
  -90.1434   24.0006   -1.2239 C   0  0  0  0  0  0  0  0  0  0  0  0
  -91.1483   23.9709   -2.1740 C   0  0  0  0  0  0  0  0  0  0  0  0
  -93.8975   25.7474   -3.5370 C   0  0  0  0  0  0  0  0  0  0  0  0
  -92.6814   25.0004   -3.6877 O   0  0  0  0  0  0  0  0  0  0  0  0
  -89.6349   22.8133   -0.6715 O   0  0  0  0  0  0  0  0  0  0  0  0
  -90.1550   22.3780    0.5689 C   0  0  0  0  0  0  0  0  0  0  0  0
  -91.6568   22.7391   -2.5825 O   0  0  0  0  0  0  0  0  0  0  0  0
  -92.8438   22.2863   -1.9659 C   0  0  0  0  0  0  0  0  0  0  0  0
  -84.5934   28.3485    2.2952 S   0  0  0  0  0  0  0  0  0  0  0  0
  -83.1494   29.2329    1.8035 C   0  0  0  0  0  0  0  0  0  0  0  0
  -84.1897   26.9247    2.5606 O   0  0  0  0  0  0  0  0  0  0  0  0
  -85.1936   28.8780    3.5662 O   0  0  0  0  0  0  0  0  0  0  0  0
 24 25  1  0  0  0
 25 18  1  0  0  0
 18 19  2  0  0  0
 19 20  1  0  0  0
 20 21  2  0  0  0
 21 22  1  0  0  0
 22 26  1  0  0  0
 26 27  1  0  0  0
 22 23  2  0  0  0
 23 28  1  0  0  0
 28 29  1  0  0  0
 20 14  1  0  0  0
 14 15  2  0  0  0
 14 16  1  0  0  0
 16  1  1  0  0  0
  1  2  1  0  0  0
  2  3  1  0  0  0
  3  4  1  0  0  0
  4  5  1  0  0  0
  5  6  1  0  0  0
  6  7  2  0  0  0
  7  8  1  0  0  0
  8  9  2  0  0  0
  9 10  1  0  0  0
  9 11  1  0  0  0
 11 12  1  0  0  0
 11 13  2  0  0  0
  3 30  1  0  0  0
 30 31  1  0  0  0
 30 32  2  0  0  0
 30 33  2  0  0  0
 23 18  1  0  0  0
  5  1  1  0  0  0
 13  6  1  0  0  0
 16 17  1  0  0  0
M  END
> <minimizedAffinity>
-7.78222

> <CNNscore>
0.1297540367

> <CNNaffinity>
6.0262980461

> <CNN_VS>
0.7819365263

> <CNNaffinity_variance>
0.2009269297

$$$$
[H]c1c([H])c([C@@]2([H])C([H])([H])N(S(=O)(=O)C([H])([H])[H])C([H])([H])[C@]2([H])N([H])C(=O)c2c([H])c(OC([H])([H])[H])c(OC([H])([H])[H])c(OC([H])([H])[H])c2[H])c([H])c(F)c1F


 33 35  0  0  0  0  0  0  0  0999 V2000
  -91.0941   26.9028    0.5299 C   0  0  0  0  0  0  0  0  0  0  0  0
  -91.7608   25.7208   -0.1383 C   0  0  0  0  0  0  0  0  0  0  0  0
  -90.6545   24.9385   -0.5883 N   0  0  0  0  0  0  0  0  0  0  0  0
  -89.7555   24.9049    0.5510 C   0  0  0  0  0  0  0  0  0  0  0  0
  -89.8352   26.3362    1.0944 C   0  0  0  0  0  0  0  0  0  0  0  0
  -89.7732   26.3366    2.5687 C   0  0  0  0  0  0  0  0  0  0  0  0
  -89.5595   25.1592    3.2759 C   0  0  0  0  0  0  0  0  0  0  0  0
  -89.5061   25.1860    4.6445 C   0  0  0  0  0  0  0  0  0  0  0  0
  -89.6545   26.3349    5.3847 C   0  0  0  0  0  0  0  0  0  0  0  0
  -89.5939   26.3138    6.7455 F   0  0  0  0  0  0  0  0  0  0  0  0
  -89.8668   27.5044    4.6826 C   0  0  0  0  0  0  0  0  0  0  0  0
  -90.0184   28.6637    5.3850 F   0  0  0  0  0  0  0  0  0  0  0  0
  -89.9248   27.5048    3.3051 C   0  0  0  0  0  0  0  0  0  0  0  0
  -90.7086   29.2613   -0.1708 C   0  0  0  0  0  0  0  0  0  0  0  0
  -90.9376   29.6239    1.0056 O   0  0  0  0  0  0  0  0  0  0  0  0
  -90.7660   27.8961   -0.5039 N   0  0  0  0  0  0  0  0  0  0  0  0
  -90.5846   27.5347   -1.4685 H   0  0  0  0  0  0  0  0  0  0  0  0
  -88.9953   31.9817   -2.0833 C   0  0  0  0  0  0  0  0  0  0  0  0
  -89.2386   31.0395   -1.1068 C   0  0  0  0  0  0  0  0  0  0  0  0
  -90.3888   30.2688   -1.1614 C   0  0  0  0  0  0  0  0  0  0  0  0
  -91.2970   30.4504   -2.2064 C   0  0  0  0  0  0  0  0  0  0  0  0
  -91.0626   31.3883   -3.1854 C   0  0  0  0  0  0  0  0  0  0  0  0
  -89.9050   32.1409   -3.1014 C   0  0  0  0  0  0  0  0  0  0  0  0
  -87.1329   32.9891   -0.8432 C   0  0  0  0  0  0  0  0  0  0  0  0
  -87.8494   32.7811   -2.0692 O   0  0  0  0  0  0  0  0  0  0  0  0
  -91.9723   31.5757   -4.2393 O   0  0  0  0  0  0  0  0  0  0  0  0
  -92.5212   30.4295   -4.8588 C   0  0  0  0  0  0  0  0  0  0  0  0
  -89.6471   33.0968   -4.0824 O   0  0  0  0  0  0  0  0  0  0  0  0
  -89.0262   32.6590   -5.2728 C   0  0  0  0  0  0  0  0  0  0  0  0
  -91.0934   23.3480   -1.0687 S   0  0  0  0  0  0  0  0  0  0  0  0
  -91.7979   23.2969   -2.6843 C   0  0  0  0  0  0  0  0  0  0  0  0
  -92.1284   22.8432   -0.1020 O   0  0  0  0  0  0  0  0  0  0  0  0
  -89.8928   22.4560   -0.9306 O   0  0  0  0  0  0  0  0  0  0  0  0
 24 25  1  0  0  0
 25 18  1  0  0  0
 18 19  2  0  0  0
 19 20  1  0  0  0
 20 21  2  0  0  0
 21 22  1  0  0  0
 22 26  1  0  0  0
 26 27  1  0  0  0
 22 23  2  0  0  0
 23 28  1  0  0  0
 28 29  1  0  0  0
 20 14  1  0  0  0
 14 15  2  0  0  0
 14 16  1  0  0  0
 16  1  1  0  0  0
  1  2  1  0  0  0
  2  3  1  0  0  0
  3  4  1  0  0  0
  4  5  1  0  0  0
  5  6  1  0  0  0
  6  7  2  0  0  0
  7  8  1  0  0  0
  8  9  2  0  0  0
  9 10  1  0  0  0
  9 11  1  0  0  0
 11 12  1  0  0  0
 11 13  2  0  0  0
  3 30  1  0  0  0
 30 31  1  0  0  0
 30 32  2  0  0  0
 30 33  2  0  0  0
 23 18  1  0  0  0
  5  1  1  0  0  0
 13  6  1  0  0  0
 16 17  1  0  0  0
M  END
> <minimizedAffinity>
-7.03371

> <CNNscore>
0.1163342595

> <CNNaffinity>
5.6064486504

> <CNN_VS>
0.6522220373

> <CNNaffinity_variance>
0.3244962394

$$$$
[H]c1c([H])c([C@@]2([H])C([H])([H])N(S(=O)(=O)C([H])([H])[H])C([H])([H])[C@]2([H])N([H])C(=O)c2c([H])c(OC([H])([H])[H])c(OC([H])([H])[H])c(OC([H])([H])[H])c2[H])c([H])c(F)c1F


 33 35  0  0  0  0  0  0  0  0999 V2000
  -89.1184   26.3777    0.5099 C   0  0  0  0  0  0  0  0  0  0  0  0
  -89.0519   25.5947    1.8024 C   0  0  0  0  0  0  0  0  0  0  0  0
  -90.1172   26.1521    2.5724 N   0  0  0  0  0  0  0  0  0  0  0  0
  -91.2323   26.2136    1.6450 C   0  0  0  0  0  0  0  0  0  0  0  0
  -90.5704   26.6741    0.3412 C   0  0  0  0  0  0  0  0  0  0  0  0
  -91.1967   26.0144   -0.8207 C   0  0  0  0  0  0  0  0  0  0  0  0
  -91.8860   24.8159   -0.6772 C   0  0  0  0  0  0  0  0  0  0  0  0
  -92.4587   24.2234   -1.7714 C   0  0  0  0  0  0  0  0  0  0  0  0
  -92.3939   24.7526   -3.0386 C   0  0  0  0  0  0  0  0  0  0  0  0
  -92.9791   24.1277   -4.0982 F   0  0  0  0  0  0  0  0  0  0  0  0
  -91.7094   25.9429   -3.1815 C   0  0  0  0  0  0  0  0  0  0  0  0
  -91.6251   26.4968   -4.4251 F   0  0  0  0  0  0  0  0  0  0  0  0
  -91.1239   26.5598   -2.0963 C   0  0  0  0  0  0  0  0  0  0  0  0
  -87.5755   28.1320   -0.3525 C   0  0  0  0  0  0  0  0  0  0  0  0
  -87.4964   27.4998   -1.4304 O   0  0  0  0  0  0  0  0  0  0  0  0
  -88.3777   27.6353    0.6906 N   0  0  0  0  0  0  0  0  0  0  0  0
  -88.4820   28.1192    1.6119 H   0  0  0  0  0  0  0  0  0  0  0  0
  -84.9174   30.6345    0.4637 C   0  0  0  0  0  0  0  0  0  0  0  0
  -85.5709   29.4250    0.3608 C   0  0  0  0  0  0  0  0  0  0  0  0
  -86.8313   29.3669   -0.2119 C   0  0  0  0  0  0  0  0  0  0  0  0
  -87.4341   30.5351   -0.6828 C   0  0  0  0  0  0  0  0  0  0  0  0
  -86.7895   31.7467   -0.5846 C   0  0  0  0  0  0  0  0  0  0  0  0
  -85.5325   31.7698   -0.0076 C   0  0  0  0  0  0  0  0  0  0  0  0
  -83.0858   29.6332    1.7536 C   0  0  0  0  0  0  0  0  0  0  0  0
  -83.6460   30.7409    1.0335 O   0  0  0  0  0  0  0  0  0  0  0  0
  -87.3906   32.9254   -1.0565 O   0  0  0  0  0  0  0  0  0  0  0  0
  -88.7281   32.8573   -1.5093 C   0  0  0  0  0  0  0  0  0  0  0  0
  -84.8610   32.9862    0.1022 O   0  0  0  0  0  0  0  0  0  0  0  0
  -84.0011   33.3546   -0.9556 C   0  0  0  0  0  0  0  0  0  0  0  0
  -90.5223   25.2163    3.9556 S   0  0  0  0  0  0  0  0  0  0  0  0
  -89.1139   24.4602    4.6999 C   0  0  0  0  0  0  0  0  0  0  0  0
  -91.4510   24.1193    3.5146 O   0  0  0  0  0  0  0  0  0  0  0  0
  -91.2902   26.0821    4.9132 O   0  0  0  0  0  0  0  0  0  0  0  0
 24 25  1  0  0  0
 25 18  1  0  0  0
 18 19  2  0  0  0
 19 20  1  0  0  0
 20 21  2  0  0  0
 21 22  1  0  0  0
 22 26  1  0  0  0
 26 27  1  0  0  0
 22 23  2  0  0  0
 23 28  1  0  0  0
 28 29  1  0  0  0
 20 14  1  0  0  0
 14 15  2  0  0  0
 14 16  1  0  0  0
 16  1  1  0  0  0
  1  2  1  0  0  0
  2  3  1  0  0  0
  3  4  1  0  0  0
  4  5  1  0  0  0
  5  6  1  0  0  0
  6  7  2  0  0  0
  7  8  1  0  0  0
  8  9  2  0  0  0
  9 10  1  0  0  0
  9 11  1  0  0  0
 11 12  1  0  0  0
 11 13  2  0  0  0
  3 30  1  0  0  0
 30 31  1  0  0  0
 30 32  2  0  0  0
 30 33  2  0  0  0
 23 18  1  0  0  0
  5  1  1  0  0  0
 13  6  1  0  0  0
 16 17  1  0  0  0
M  END
> <minimizedAffinity>
-8.25608

> <CNNscore>
0.1147313118

> <CNNaffinity>
5.9294447899

> <CNN_VS>
0.6802929640

> <CNNaffinity_variance>
0.1968712956

$$$$
[H]c1c([H])c([C@@]2([H])C([H])([H])N(S(=O)(=O)C([H])([H])[H])C([H])([H])[C@]2([H])N([H])C(=O)c2c([H])c(OC([H])([H])[H])c(OC([H])([H])[H])c(OC([H])([H])[H])c2[H])c([H])c(F)c1F


 33 35  0  0  0  0  0  0  0  0999 V2000
  -87.9729   30.9911   -0.5636 C   0  0  0  0  0  0  0  0  0  0  0  0
  -89.2763   30.3718   -0.1104 C   0  0  0  0  0  0  0  0  0  0  0  0
  -89.3554   29.1791   -0.8914 N   0  0  0  0  0  0  0  0  0  0  0  0
  -88.0294   28.5973   -0.7877 C   0  0  0  0  0  0  0  0  0  0  0  0
  -87.1089   29.8191   -0.8871 C   0  0  0  0  0  0  0  0  0  0  0  0
  -85.9385   29.6614   -0.0025 C   0  0  0  0  0  0  0  0  0  0  0  0
  -85.9002   28.6606    0.9615 C   0  0  0  0  0  0  0  0  0  0  0  0
  -84.8020   28.5348    1.7706 C   0  0  0  0  0  0  0  0  0  0  0  0
  -83.7040   29.3580    1.6884 C   0  0  0  0  0  0  0  0  0  0  0  0
  -82.6332   29.1954    2.5148 F   0  0  0  0  0  0  0  0  0  0  0  0
  -83.7417   30.3520    0.7312 C   0  0  0  0  0  0  0  0  0  0  0  0
  -82.6691   31.1874    0.6216 F   0  0  0  0  0  0  0  0  0  0  0  0
  -84.8350   30.5001   -0.0957 C   0  0  0  0  0  0  0  0  0  0  0  0
  -87.5720   32.9940   -1.9885 C   0  0  0  0  0  0  0  0  0  0  0  0
  -86.7732   33.4205   -1.1237 O   0  0  0  0  0  0  0  0  0  0  0  0
  -88.2281   31.7664   -1.7871 N   0  0  0  0  0  0  0  0  0  0  0  0
  -88.9051   31.3604   -2.4734 H   0  0  0  0  0  0  0  0  0  0  0  0
  -87.3066   35.6092   -4.6500 C   0  0  0  0  0  0  0  0  0  0  0  0
  -87.0382   34.9002   -3.4986 C   0  0  0  0  0  0  0  0  0  0  0  0
  -87.7976   33.7856   -3.1805 C   0  0  0  0  0  0  0  0  0  0  0  0
  -88.8322   33.3856   -4.0286 C   0  0  0  0  0  0  0  0  0  0  0  0
  -89.1073   34.0869   -5.1799 C   0  0  0  0  0  0  0  0  0  0  0  0
  -88.3305   35.1946   -5.4681 C   0  0  0  0  0  0  0  0  0  0  0  0
  -86.8041   37.9928   -4.3544 C   0  0  0  0  0  0  0  0  0  0  0  0
  -86.5675   36.7388   -5.0110 O   0  0  0  0  0  0  0  0  0  0  0  0
  -90.1467   33.6895   -6.0373 O   0  0  0  0  0  0  0  0  0  0  0  0
  -91.2926   33.0918   -5.4644 C   0  0  0  0  0  0  0  0  0  0  0  0
  -88.5914   35.9201   -6.6292 O   0  0  0  0  0  0  0  0  0  0  0  0
  -89.6062   36.9004   -6.5718 C   0  0  0  0  0  0  0  0  0  0  0  0
  -90.5522   28.0777   -0.3365 S   0  0  0  0  0  0  0  0  0  0  0  0
  -89.8578   26.6562    0.4419 C   0  0  0  0  0  0  0  0  0  0  0  0
  -91.3364   27.6085   -1.5304 O   0  0  0  0  0  0  0  0  0  0  0  0
  -91.5097   28.8173    0.5537 O   0  0  0  0  0  0  0  0  0  0  0  0
 24 25  1  0  0  0
 25 18  1  0  0  0
 18 19  2  0  0  0
 19 20  1  0  0  0
 20 21  2  0  0  0
 21 22  1  0  0  0
 22 26  1  0  0  0
 26 27  1  0  0  0
 22 23  2  0  0  0
 23 28  1  0  0  0
 28 29  1  0  0  0
 20 14  1  0  0  0
 14 15  2  0  0  0
 14 16  1  0  0  0
 16  1  1  0  0  0
  1  2  1  0  0  0
  2  3  1  0  0  0
  3  4  1  0  0  0
  4  5  1  0  0  0
  5  6  1  0  0  0
  6  7  2  0  0  0
  7  8  1  0  0  0
  8  9  2  0  0  0
  9 10  1  0  0  0
  9 11  1  0  0  0
 11 12  1  0  0  0
 11 13  2  0  0  0
  3 30  1  0  0  0
 30 31  1  0  0  0
 30 32  2  0  0  0
 30 33  2  0  0  0
 23 18  1  0  0  0
  5  1  1  0  0  0
 13  6  1  0  0  0
 16 17  1  0  0  0
M  END
> <minimizedAffinity>
-8.03264

> <CNNscore>
0.1031342819

> <CNNaffinity>
5.8711743355

> <CNN_VS>
0.6055193543

> <CNNaffinity_variance>
0.2191614211

$$$$
[H]c1c([H])c([C@@]2([H])C([H])([H])N(S(=O)(=O)C([H])([H])[H])C([H])([H])[C@]2([H])N([H])C(=O)c2c([H])c(OC([H])([H])[H])c(OC([H])([H])[H])c(OC([H])([H])[H])c2[H])c([H])c(F)c1F


 33 35  0  0  0  0  0  0  0  0999 V2000
  -89.1232   26.3422    0.5018 C   0  0  0  0  0  0  0  0  0  0  0  0
  -89.0465   25.5783    1.8050 C   0  0  0  0  0  0  0  0  0  0  0  0
  -90.1255   26.1251    2.5634 N   0  0  0  0  0  0  0  0  0  0  0  0
  -91.2380   26.1521    1.6312 C   0  0  0  0  0  0  0  0  0  0  0  0
  -90.5801   26.6077    0.3236 C   0  0  0  0  0  0  0  0  0  0  0  0
  -91.1887   25.9203   -0.8315 C   0  0  0  0  0  0  0  0  0  0  0  0
  -91.8081   24.6847   -0.6835 C   0  0  0  0  0  0  0  0  0  0  0  0
  -92.3658   24.0669   -1.7715 C   0  0  0  0  0  0  0  0  0  0  0  0
  -92.3519   24.6052   -3.0364 C   0  0  0  0  0  0  0  0  0  0  0  0
  -92.9197   23.9541   -4.0898 F   0  0  0  0  0  0  0  0  0  0  0  0
  -91.7368   25.8323   -3.1838 C   0  0  0  0  0  0  0  0  0  0  0  0
  -91.7045   26.3963   -4.4252 F   0  0  0  0  0  0  0  0  0  0  0  0
  -91.1679   26.4752   -2.1049 C   0  0  0  0  0  0  0  0  0  0  0  0
  -87.6951   28.1661   -0.4127 C   0  0  0  0  0  0  0  0  0  0  0  0
  -87.6733   27.5665   -1.5117 O   0  0  0  0  0  0  0  0  0  0  0  0
  -88.4079   27.6165    0.6680 N   0  0  0  0  0  0  0  0  0  0  0  0
  -88.4616   28.0715    1.6083 H   0  0  0  0  0  0  0  0  0  0  0  0
  -86.8025   31.7984   -0.4676 C   0  0  0  0  0  0  0  0  0  0  0  0
  -87.5410   30.6432   -0.6107 C   0  0  0  0  0  0  0  0  0  0  0  0
  -86.9785   29.4188   -0.2873 C   0  0  0  0  0  0  0  0  0  0  0  0
  -85.6648   29.3610    0.1825 C   0  0  0  0  0  0  0  0  0  0  0  0
  -84.9202   30.5086    0.3287 C   0  0  0  0  0  0  0  0  0  0  0  0
  -85.5115   31.7143   -0.0030 C   0  0  0  0  0  0  0  0  0  0  0  0
  -88.4385   33.1645   -1.6835 C   0  0  0  0  0  0  0  0  0  0  0  0
  -87.3279   33.0546   -0.7811 O   0  0  0  0  0  0  0  0  0  0  0  0
  -83.5981   30.4570    0.8010 O   0  0  0  0  0  0  0  0  0  0  0  0
  -83.2889   29.5256    1.8185 C   0  0  0  0  0  0  0  0  0  0  0  0
  -84.7757   32.8898    0.1372 O   0  0  0  0  0  0  0  0  0  0  0  0
  -83.9834   33.2981   -0.9581 C   0  0  0  0  0  0  0  0  0  0  0  0
  -90.5177   25.2002    3.9577 S   0  0  0  0  0  0  0  0  0  0  0  0
  -89.1087   24.4153    4.6700 C   0  0  0  0  0  0  0  0  0  0  0  0
  -91.4800   24.1228    3.5410 O   0  0  0  0  0  0  0  0  0  0  0  0
  -91.2440   26.0838    4.9314 O   0  0  0  0  0  0  0  0  0  0  0  0
 24 25  1  0  0  0
 25 18  1  0  0  0
 18 19  2  0  0  0
 19 20  1  0  0  0
 20 21  2  0  0  0
 21 22  1  0  0  0
 22 26  1  0  0  0
 26 27  1  0  0  0
 22 23  2  0  0  0
 23 28  1  0  0  0
 28 29  1  0  0  0
 20 14  1  0  0  0
 14 15  2  0  0  0
 14 16  1  0  0  0
 16  1  1  0  0  0
  1  2  1  0  0  0
  2  3  1  0  0  0
  3  4  1  0  0  0
  4  5  1  0  0  0
  5  6  1  0  0  0
  6  7  2  0  0  0
  7  8  1  0  0  0
  8  9  2  0  0  0
  9 10  1  0  0  0
  9 11  1  0  0  0
 11 12  1  0  0  0
 11 13  2  0  0  0
  3 30  1  0  0  0
 30 31  1  0  0  0
 30 32  2  0  0  0
 30 33  2  0  0  0
 23 18  1  0  0  0
  5  1  1  0  0  0
 13  6  1  0  0  0
 16 17  1  0  0  0
M  END
> <minimizedAffinity>
-8.26822

> <CNNscore>
0.1027620062

> <CNNaffinity>
5.8829011917

> <CNN_VS>
0.6045387387

> <CNNaffinity_variance>
0.1993312389

$$$$
[H]c1c([H])c([C@@]2([H])C([H])([H])N(S(=O)(=O)C([H])([H])[H])C([H])([H])[C@]2([H])N([H])C(=O)c2c([H])c(OC([H])([H])[H])c(OC([H])([H])[H])c(OC([H])([H])[H])c2[H])c([H])c(F)c1F


 33 35  0  0  0  0  0  0  0  0999 V2000
  -87.6332   27.9844   -1.1943 C   0  0  0  0  0  0  0  0  0  0  0  0
  -87.7318   28.6830   -2.5324 C   0  0  0  0  0  0  0  0  0  0  0  0
  -88.3893   29.9083   -2.2089 N   0  0  0  0  0  0  0  0  0  0  0  0
  -87.6957   30.3827   -1.0250 C   0  0  0  0  0  0  0  0  0  0  0  0
  -87.4804   29.0990   -0.2151 C   0  0  0  0  0  0  0  0  0  0  0  0
  -86.1757   29.1316    0.4734 C   0  0  0  0  0  0  0  0  0  0  0  0
  -85.8850   28.2383    1.4979 C   0  0  0  0  0  0  0  0  0  0  0  0
  -84.6663   28.2888    2.1214 C   0  0  0  0  0  0  0  0  0  0  0  0
  -83.6842   29.1919    1.7899 C   0  0  0  0  0  0  0  0  0  0  0  0
  -82.4861   29.2053    2.4380 F   0  0  0  0  0  0  0  0  0  0  0  0
  -83.9725   30.0793    0.7725 C   0  0  0  0  0  0  0  0  0  0  0  0
  -83.0209   30.9895    0.4172 F   0  0  0  0  0  0  0  0  0  0  0  0
  -85.1915   30.0495    0.1288 C   0  0  0  0  0  0  0  0  0  0  0  0
  -88.8983   26.0660   -0.2344 C   0  0  0  0  0  0  0  0  0  0  0  0
  -87.8169   25.5907    0.1808 O   0  0  0  0  0  0  0  0  0  0  0  0
  -88.9000   27.2803   -0.9441 N   0  0  0  0  0  0  0  0  0  0  0  0
  -89.7712   27.7249   -1.3147 H   0  0  0  0  0  0  0  0  0  0  0  0
  -92.2467   24.4409   -0.6102 C   0  0  0  0  0  0  0  0  0  0  0  0
  -91.1012   25.1379   -0.9306 C   0  0  0  0  0  0  0  0  0  0  0  0
  -90.1255   25.3437    0.0315 C   0  0  0  0  0  0  0  0  0  0  0  0
  -90.3075   24.8436    1.3225 C   0  0  0  0  0  0  0  0  0  0  0  0
  -91.4473   24.1468    1.6515 C   0  0  0  0  0  0  0  0  0  0  0  0
  -92.4015   23.9590    0.6677 C   0  0  0  0  0  0  0  0  0  0  0  0
  -92.9369   23.6302   -2.8210 C   0  0  0  0  0  0  0  0  0  0  0  0
  -93.2568   24.2093   -1.5474 O   0  0  0  0  0  0  0  0  0  0  0  0
  -91.6362   23.6412    2.9484 O   0  0  0  0  0  0  0  0  0  0  0  0
  -90.5322   23.0442    3.5992 C   0  0  0  0  0  0  0  0  0  0  0  0
  -93.5641   23.2559    0.9787 O   0  0  0  0  0  0  0  0  0  0  0  0
  -93.6202   21.8932    0.6125 C   0  0  0  0  0  0  0  0  0  0  0  0
  -88.3179   31.0749   -3.4687 S   0  0  0  0  0  0  0  0  0  0  0  0
  -87.4232   32.5216   -3.0044 C   0  0  0  0  0  0  0  0  0  0  0  0
  -89.7258   31.4916   -3.7920 O   0  0  0  0  0  0  0  0  0  0  0  0
  -87.7615   30.4186   -4.7000 O   0  0  0  0  0  0  0  0  0  0  0  0
 24 25  1  0  0  0
 25 18  1  0  0  0
 18 19  2  0  0  0
 19 20  1  0  0  0
 20 21  2  0  0  0
 21 22  1  0  0  0
 22 26  1  0  0  0
 26 27  1  0  0  0
 22 23  2  0  0  0
 23 28  1  0  0  0
 28 29  1  0  0  0
 20 14  1  0  0  0
 14 15  2  0  0  0
 14 16  1  0  0  0
 16  1  1  0  0  0
  1  2  1  0  0  0
  2  3  1  0  0  0
  3  4  1  0  0  0
  4  5  1  0  0  0
  5  6  1  0  0  0
  6  7  2  0  0  0
  7  8  1  0  0  0
  8  9  2  0  0  0
  9 10  1  0  0  0
  9 11  1  0  0  0
 11 12  1  0  0  0
 11 13  2  0  0  0
  3 30  1  0  0  0
 30 31  1  0  0  0
 30 32  2  0  0  0
 30 33  2  0  0  0
 23 18  1  0  0  0
  5  1  1  0  0  0
 13  6  1  0  0  0
 16 17  1  0  0  0
M  END
> <minimizedAffinity>
-8.77597

> <CNNscore>
0.1012266874

> <CNNaffinity>
5.3782663345

> <CNN_VS>
0.5444240570

> <CNNaffinity_variance>
0.7203308344

$$$$
[H]N=C(N([H])[H])N([H])C([H])([H])C([H])([H])C([H])([H])[C@@]([H])(C(=O)c1nc2c([H])c([H])c([H])c([H])c2o1)N([H])C(=O)[C@@]([H])(N([H])C(=O)[C@@]([H])(N([H])C(=O)C([H])([H])C([H])([H])c1c([H])c([H])c([H])c([H])c1[H])C([H])([H])c1c([H])c([H])c([H])c([H])c1[H])C([H])([H])C([H])(C([H])([H])[H])C([H])([H])[H]


 56 59  0  0  0  0  0  0  0  0999 V2000
  -87.8251   28.6496   -2.6047 C   0  0  0  0  0  0  0  0  0  0  0  0
  -87.9224   30.0670   -2.5326 N   0  0  0  0  0  0  0  0  0  0  0  0
  -87.8362   30.9487   -3.6293 C   0  0  0  0  0  0  0  0  0  0  0  0
  -87.6778   30.5004   -4.7857 O   0  0  0  0  0  0  0  0  0  0  0  0
  -88.0695   30.4943   -1.5894 H   0  0  0  0  0  0  0  0  0  0  0  0
  -87.9231   32.4338   -3.4554 C   0  0  0  0  0  0  0  0  0  0  0  0
  -86.8238   32.9227   -2.7044 N   0  0  0  0  0  0  0  0  0  0  0  0
  -86.9615   33.0990   -1.2791 C   0  0  0  0  0  0  0  0  0  0  0  0
  -88.0673   32.7859   -0.8132 O   0  0  0  0  0  0  0  0  0  0  0  0
  -85.9246   33.1585   -3.1321 H   0  0  0  0  0  0  0  0  0  0  0  0
  -85.8639   33.6063   -0.4824 C   0  0  0  0  0  0  0  0  0  0  0  0
  -84.5694   32.8914   -0.5015 C   0  0  0  0  0  0  0  0  0  0  0  0
  -84.3557   31.8085    0.4477 C   0  0  0  0  0  0  0  0  0  0  0  0
  -85.1870   31.4905    1.4804 C   0  0  0  0  0  0  0  0  0  0  0  0
  -84.8847   30.4568    2.3830 C   0  0  0  0  0  0  0  0  0  0  0  0
  -83.7144   29.7304    2.2378 C   0  0  0  0  0  0  0  0  0  0  0  0
  -82.8672   30.0419    1.2016 C   0  0  0  0  0  0  0  0  0  0  0  0
  -83.1809   31.0593    0.3256 C   0  0  0  0  0  0  0  0  0  0  0  0
  -88.1694   33.1907   -4.7059 C   0  0  0  0  0  0  0  0  0  0  0  0
  -88.2713   34.6534   -4.4802 C   0  0  0  0  0  0  0  0  0  0  0  0
  -87.3180   35.4872   -5.0082 C   0  0  0  0  0  0  0  0  0  0  0  0
  -87.3718   36.8641   -4.8249 C   0  0  0  0  0  0  0  0  0  0  0  0
  -88.4089   37.4281   -4.0922 C   0  0  0  0  0  0  0  0  0  0  0  0
  -89.3680   36.5835   -3.5619 C   0  0  0  0  0  0  0  0  0  0  0  0
  -89.3006   35.2142   -3.7526 C   0  0  0  0  0  0  0  0  0  0  0  0
  -89.1028   27.9108   -2.6841 C   0  0  0  0  0  0  0  0  0  0  0  0
  -90.1026   28.4596   -3.2184 O   0  0  0  0  0  0  0  0  0  0  0  0
  -89.2453   26.6036   -2.1800 N   0  0  0  0  0  0  0  0  0  0  0  0
  -88.4374   26.1304   -1.7466 H   0  0  0  0  0  0  0  0  0  0  0  0
  -90.4925   25.8257   -2.2244 C   0  0  0  0  0  0  0  0  0  0  0  0
  -91.4339   26.3541   -1.2380 C   0  0  0  0  0  0  0  0  0  0  0  0
  -92.6397   26.4874   -1.6127 O   0  0  0  0  0  0  0  0  0  0  0  0
  -91.0790   26.7263    0.1238 C   0  0  0  0  0  0  0  0  0  0  0  0
  -91.5046   27.7528    0.8787 N   0  0  0  0  0  0  0  0  0  0  0  0
  -90.9268   27.7344    2.0853 C   0  0  0  0  0  0  0  0  0  0  0  0
  -90.9957   28.5317    3.2352 C   0  0  0  0  0  0  0  0  0  0  0  0
  -90.2447   28.2227    4.3478 C   0  0  0  0  0  0  0  0  0  0  0  0
  -89.4246   27.1242    4.3212 C   0  0  0  0  0  0  0  0  0  0  0  0
  -89.3303   26.3112    3.1984 C   0  0  0  0  0  0  0  0  0  0  0  0
  -90.1056   26.6483    2.0826 C   0  0  0  0  0  0  0  0  0  0  0  0
  -90.2170   26.0665    0.8980 O   0  0  0  0  0  0  0  0  0  0  0  0
  -90.0584   24.4179   -1.8170 C   0  0  0  0  0  0  0  0  0  0  0  0
  -91.1418   23.4954   -1.4405 C   0  0  0  0  0  0  0  0  0  0  0  0
  -90.8911   22.6152   -0.2587 C   0  0  0  0  0  0  0  0  0  0  0  0
  -91.4527   23.2994    0.9143 N   0  0  0  0  0  0  0  0  0  0  0  0
  -92.1588   24.0387    0.7723 H   0  0  0  0  0  0  0  0  0  0  0  0
  -91.0651   22.9795    2.2282 C   0  0  0  0  0  0  0  0  0  0  0  0
  -89.9769   22.0824    2.4085 N   0  0  0  0  0  0  0  0  0  0  0  0
  -91.6464   23.4580    3.2787 N   0  0  0  0  0  0  0  0  0  0  0  0
  -89.7720   21.3053    1.7296 H   0  0  0  0  0  0  0  0  0  0  0  0
  -89.3213   22.1442    3.2211 H   0  0  0  0  0  0  0  0  0  0  0  0
  -91.3332   23.2003    4.2372 H   0  0  0  0  0  0  0  0  0  0  0  0
  -86.9729   28.0428   -1.5429 C   0  0  0  0  0  0  0  0  0  0  0  0
  -86.5603   27.5711    0.7749 C   0  0  0  0  0  0  0  0  0  0  0  0
  -86.8879   28.7072   -0.2346 C   0  0  0  0  0  0  0  0  0  0  0  0
  -88.1155   29.3368    0.3207 C   0  0  0  0  0  0  0  0  0  0  0  0
 54 55  1  0  0  0
 55 56  1  0  0  0
 55 53  1  0  0  0
 53  1  1  0  0  0
  1  2  1  0  0  0
  2  3  1  0  0  0
  3  4  2  0  0  0
  3  6  1  0  0  0
  6 19  1  0  0  0
 19 20  1  0  0  0
 20 21  2  0  0  0
 21 22  1  0  0  0
 22 23  2  0  0  0
 23 24  1  0  0  0
 24 25  2  0  0  0
  6  7  1  0  0  0
  7  8  1  0  0  0
  8  9  2  0  0  0
  8 11  1  0  0  0
 11 12  1  0  0  0
 12 13  1  0  0  0
 13 14  2  0  0  0
 14 15  1  0  0  0
 15 16  2  0  0  0
 16 17  1  0  0  0
 17 18  2  0  0  0
  1 26  1  0  0  0
 26 27  2  0  0  0
 26 28  1  0  0  0
 28 30  1  0  0  0
 30 42  1  0  0  0
 42 43  1  0  0  0
 43 44  1  0  0  0
 44 45  1  0  0  0
 45 47  1  0  0  0
 47 48  1  0  0  0
 47 49  2  0  0  0
 30 31  1  0  0  0
 31 32  2  0  0  0
 31 33  1  0  0  0
 33 34  2  0  0  0
 34 35  1  0  0  0
 35 36  2  0  0  0
 36 37  1  0  0  0
 37 38  2  0  0  0
 38 39  1  0  0  0
 39 40  2  0  0  0
 40 41  1  0  0  0
 25 20  1  0  0  0
 18 13  1  0  0  0
 41 33  1  0  0  0
 40 35  1  0  0  0
  2  5  1  0  0  0
  7 10  1  0  0  0
 28 29  1  0  0  0
 45 46  1  0  0  0
 48 50  1  0  0  0
 48 51  1  0  0  0
 49 52  1  0  0  0
M  END
> <minimizedAffinity>
-9.69130

> <CNNscore>
0.3655271828

> <CNNaffinity>
7.1981749535

> <CNN_VS>
2.6311285496

> <CNNaffinity_variance>
1.8791906834

$$$$
[H]N=C(N([H])[H])N([H])C([H])([H])C([H])([H])C([H])([H])[C@@]([H])(C(=O)c1nc2c([H])c([H])c([H])c([H])c2o1)N([H])C(=O)[C@@]([H])(N([H])C(=O)[C@@]([H])(N([H])C(=O)C([H])([H])C([H])([H])c1c([H])c([H])c([H])c([H])c1[H])C([H])([H])c1c([H])c([H])c([H])c([H])c1[H])C([H])([H])C([H])(C([H])([H])[H])C([H])([H])[H]


 56 59  0  0  0  0  0  0  0  0999 V2000
  -87.9858   28.9019   -2.5921 C   0  0  0  0  0  0  0  0  0  0  0  0
  -87.8862   30.3191   -2.5179 N   0  0  0  0  0  0  0  0  0  0  0  0
  -87.8561   31.1949   -3.6222 C   0  0  0  0  0  0  0  0  0  0  0  0
  -87.9370   30.7434   -4.7853 O   0  0  0  0  0  0  0  0  0  0  0  0
  -87.8298   30.7508   -1.5670 H   0  0  0  0  0  0  0  0  0  0  0  0
  -87.7219   32.6766   -3.4496 C   0  0  0  0  0  0  0  0  0  0  0  0
  -86.5824   32.9961   -2.6679 N   0  0  0  0  0  0  0  0  0  0  0  0
  -86.7328   33.2053   -1.2483 C   0  0  0  0  0  0  0  0  0  0  0  0
  -87.8871   33.0723   -0.8148 O   0  0  0  0  0  0  0  0  0  0  0  0
  -85.6453   33.0852   -3.0691 H   0  0  0  0  0  0  0  0  0  0  0  0
  -85.5935   33.5435   -0.4210 C   0  0  0  0  0  0  0  0  0  0  0  0
  -84.3805   32.6999   -0.4857 C   0  0  0  0  0  0  0  0  0  0  0  0
  -84.2594   31.5794    0.4357 C   0  0  0  0  0  0  0  0  0  0  0  0
  -85.2734   31.0643    1.1874 C   0  0  0  0  0  0  0  0  0  0  0  0
  -85.0632   30.0084    2.0905 C   0  0  0  0  0  0  0  0  0  0  0  0
  -83.7984   29.4634    2.2368 C   0  0  0  0  0  0  0  0  0  0  0  0
  -82.7672   29.9745    1.4858 C   0  0  0  0  0  0  0  0  0  0  0  0
  -82.9928   31.0104    0.6044 C   0  0  0  0  0  0  0  0  0  0  0  0
  -87.8160   33.4578   -4.7059 C   0  0  0  0  0  0  0  0  0  0  0  0
  -87.9858   34.9119   -4.4656 C   0  0  0  0  0  0  0  0  0  0  0  0
  -89.0763   35.3582   -3.7624 C   0  0  0  0  0  0  0  0  0  0  0  0
  -89.2776   36.7104   -3.5108 C   0  0  0  0  0  0  0  0  0  0  0  0
  -88.3629   37.6478   -3.9747 C   0  0  0  0  0  0  0  0  0  0  0  0
  -87.2648   37.1931   -4.6831 C   0  0  0  0  0  0  0  0  0  0  0  0
  -87.0782   35.8432   -4.9260 C   0  0  0  0  0  0  0  0  0  0  0  0
  -89.3540   28.3458   -2.6488 C   0  0  0  0  0  0  0  0  0  0  0  0
  -89.5496   27.2412   -3.2214 O   0  0  0  0  0  0  0  0  0  0  0  0
  -90.4577   29.0112   -2.0809 N   0  0  0  0  0  0  0  0  0  0  0  0
  -90.3201   29.9127   -1.5985 H   0  0  0  0  0  0  0  0  0  0  0  0
  -91.8396   28.5095   -2.1148 C   0  0  0  0  0  0  0  0  0  0  0  0
  -92.7642   29.6326   -2.2642 C   0  0  0  0  0  0  0  0  0  0  0  0
  -93.7987   29.6232   -1.5281 O   0  0  0  0  0  0  0  0  0  0  0  0
  -92.5716   30.7421   -3.1866 C   0  0  0  0  0  0  0  0  0  0  0  0
  -91.5367   31.0253   -3.9949 N   0  0  0  0  0  0  0  0  0  0  0  0
  -91.7599   32.1485   -4.6867 C   0  0  0  0  0  0  0  0  0  0  0  0
  -91.0503   32.8883   -5.6415 C   0  0  0  0  0  0  0  0  0  0  0  0
  -91.5859   34.0394   -6.1755 C   0  0  0  0  0  0  0  0  0  0  0  0
  -92.8245   34.4585   -5.7630 C   0  0  0  0  0  0  0  0  0  0  0  0
  -93.5567   33.7509   -4.8176 C   0  0  0  0  0  0  0  0  0  0  0  0
  -92.9883   32.5842   -4.2927 C   0  0  0  0  0  0  0  0  0  0  0  0
  -93.4482   31.7247   -3.3961 O   0  0  0  0  0  0  0  0  0  0  0  0
  -92.0282   27.8688   -0.7400 C   0  0  0  0  0  0  0  0  0  0  0  0
  -91.7810   26.4196   -0.6673 C   0  0  0  0  0  0  0  0  0  0  0  0
  -92.4964   25.5675   -1.6656 C   0  0  0  0  0  0  0  0  0  0  0  0
  -91.4700   24.9362   -2.5067 N   0  0  0  0  0  0  0  0  0  0  0  0
  -91.4409   25.1599   -3.5138 H   0  0  0  0  0  0  0  0  0  0  0  0
  -90.5199   24.0386   -1.9868 C   0  0  0  0  0  0  0  0  0  0  0  0
  -89.1533   24.4307   -1.9880 N   0  0  0  0  0  0  0  0  0  0  0  0
  -90.8245   22.8770   -1.5088 N   0  0  0  0  0  0  0  0  0  0  0  0
  -88.7495   25.0554   -2.7321 H   0  0  0  0  0  0  0  0  0  0  0  0
  -88.4757   24.1233   -1.2530 H   0  0  0  0  0  0  0  0  0  0  0  0
  -90.0955   22.2374   -1.1310 H   0  0  0  0  0  0  0  0  0  0  0  0
  -87.2064   28.1810   -1.5458 C   0  0  0  0  0  0  0  0  0  0  0  0
  -88.0979   28.6630    0.6308 C   0  0  0  0  0  0  0  0  0  0  0  0
  -87.9283   27.5440   -0.4353 C   0  0  0  0  0  0  0  0  0  0  0  0
  -87.2581   26.4422    0.3054 C   0  0  0  0  0  0  0  0  0  0  0  0
 54 55  1  0  0  0
 55 56  1  0  0  0
 55 53  1  0  0  0
 53  1  1  0  0  0
  1  2  1  0  0  0
  2  3  1  0  0  0
  3  4  2  0  0  0
  3  6  1  0  0  0
  6 19  1  0  0  0
 19 20  1  0  0  0
 20 21  2  0  0  0
 21 22  1  0  0  0
 22 23  2  0  0  0
 23 24  1  0  0  0
 24 25  2  0  0  0
  6  7  1  0  0  0
  7  8  1  0  0  0
  8  9  2  0  0  0
  8 11  1  0  0  0
 11 12  1  0  0  0
 12 13  1  0  0  0
 13 14  2  0  0  0
 14 15  1  0  0  0
 15 16  2  0  0  0
 16 17  1  0  0  0
 17 18  2  0  0  0
  1 26  1  0  0  0
 26 27  2  0  0  0
 26 28  1  0  0  0
 28 30  1  0  0  0
 30 42  1  0  0  0
 42 43  1  0  0  0
 43 44  1  0  0  0
 44 45  1  0  0  0
 45 47  1  0  0  0
 47 48  1  0  0  0
 47 49  2  0  0  0
 30 31  1  0  0  0
 31 32  2  0  0  0
 31 33  1  0  0  0
 33 34  2  0  0  0
 34 35  1  0  0  0
 35 36  2  0  0  0
 36 37  1  0  0  0
 37 38  2  0  0  0
 38 39  1  0  0  0
 39 40  2  0  0  0
 40 41  1  0  0  0
 25 20  1  0  0  0
 18 13  1  0  0  0
 41 33  1  0  0  0
 40 35  1  0  0  0
  2  5  1  0  0  0
  7 10  1  0  0  0
 28 29  1  0  0  0
 45 46  1  0  0  0
 48 50  1  0  0  0
 48 51  1  0  0  0
 49 52  1  0  0  0
M  END
> <minimizedAffinity>
-8.36978

> <CNNscore>
0.2444861978

> <CNNaffinity>
7.0258345604

> <CNN_VS>
1.7177195549

> <CNNaffinity_variance>
1.4928613901

$$$$
[H]N=C(N([H])[H])N([H])C([H])([H])C([H])([H])C([H])([H])[C@@]([H])(C(=O)c1nc2c([H])c([H])c([H])c([H])c2o1)N([H])C(=O)[C@@]([H])(N([H])C(=O)[C@@]([H])(N([H])C(=O)C([H])([H])C([H])([H])c1c([H])c([H])c([H])c([H])c1[H])C([H])([H])c1c([H])c([H])c([H])c([H])c1[H])C([H])([H])C([H])(C([H])([H])[H])C([H])([H])[H]


 56 59  0  0  0  0  0  0  0  0999 V2000
  -88.4775   28.7635   -2.5257 C   0  0  0  0  0  0  0  0  0  0  0  0
  -88.3072   30.1724   -2.4268 N   0  0  0  0  0  0  0  0  0  0  0  0
  -88.0424   31.0410   -3.5052 C   0  0  0  0  0  0  0  0  0  0  0  0
  -87.9564   30.5911   -4.6686 O   0  0  0  0  0  0  0  0  0  0  0  0
  -88.3833   30.6031   -1.4769 H   0  0  0  0  0  0  0  0  0  0  0  0
  -87.8504   32.5125   -3.3031 C   0  0  0  0  0  0  0  0  0  0  0  0
  -86.7030   32.7713   -2.5107 N   0  0  0  0  0  0  0  0  0  0  0  0
  -86.8577   33.0113   -1.0965 C   0  0  0  0  0  0  0  0  0  0  0  0
  -88.0234   32.9582   -0.6768 O   0  0  0  0  0  0  0  0  0  0  0  0
  -85.7570   32.7948   -2.9004 H   0  0  0  0  0  0  0  0  0  0  0  0
  -85.7097   33.2895   -0.2588 C   0  0  0  0  0  0  0  0  0  0  0  0
  -84.4846   32.4776   -0.4230 C   0  0  0  0  0  0  0  0  0  0  0  0
  -84.2051   31.4309    0.5494 C   0  0  0  0  0  0  0  0  0  0  0  0
  -83.0217   30.7651    0.6722 C   0  0  0  0  0  0  0  0  0  0  0  0
  -82.8470   29.7320    1.6086 C   0  0  0  0  0  0  0  0  0  0  0  0
  -83.8937   29.3640    2.4376 C   0  0  0  0  0  0  0  0  0  0  0  0
  -85.0922   30.0265    2.3230 C   0  0  0  0  0  0  0  0  0  0  0  0
  -85.2447   31.0380    1.3986 C   0  0  0  0  0  0  0  0  0  0  0  0
  -87.9074   33.3211   -4.5442 C   0  0  0  0  0  0  0  0  0  0  0  0
  -88.3072   34.7277   -4.2944 C   0  0  0  0  0  0  0  0  0  0  0  0
  -89.6374   35.0411   -4.1724 C   0  0  0  0  0  0  0  0  0  0  0  0
  -90.0606   36.3441   -3.9366 C   0  0  0  0  0  0  0  0  0  0  0  0
  -89.1281   37.3674   -3.8184 C   0  0  0  0  0  0  0  0  0  0  0  0
  -87.7879   37.0466   -3.9419 C   0  0  0  0  0  0  0  0  0  0  0  0
  -87.3820   35.7443   -4.1771 C   0  0  0  0  0  0  0  0  0  0  0  0
  -89.8420   28.2520   -2.2783 C   0  0  0  0  0  0  0  0  0  0  0  0
  -90.8136   29.0534   -2.2843 O   0  0  0  0  0  0  0  0  0  0  0  0
  -90.0987   26.8891   -2.0339 N   0  0  0  0  0  0  0  0  0  0  0  0
  -89.3196   26.2127   -2.0335 H   0  0  0  0  0  0  0  0  0  0  0  0
  -91.4325   26.3269   -1.7739 C   0  0  0  0  0  0  0  0  0  0  0  0
  -91.3542   25.3730   -0.6683 C   0  0  0  0  0  0  0  0  0  0  0  0
  -91.5763   24.1545   -0.9478 O   0  0  0  0  0  0  0  0  0  0  0  0
  -91.0393   25.7293    0.7075 C   0  0  0  0  0  0  0  0  0  0  0  0
  -90.7859   24.9445    1.7679 N   0  0  0  0  0  0  0  0  0  0  0  0
  -90.5397   25.6767    2.8603 C   0  0  0  0  0  0  0  0  0  0  0  0
  -90.2260   25.3977    4.1969 C   0  0  0  0  0  0  0  0  0  0  0  0
  -90.0245   26.4204    5.0973 C   0  0  0  0  0  0  0  0  0  0  0  0
  -90.1347   27.7199    4.6739 C   0  0  0  0  0  0  0  0  0  0  0  0
  -90.4450   28.0342    3.3566 C   0  0  0  0  0  0  0  0  0  0  0  0
  -90.6433   26.9749    2.4631 C   0  0  0  0  0  0  0  0  0  0  0  0
  -90.9431   26.9750    1.1730 O   0  0  0  0  0  0  0  0  0  0  0  0
  -91.7742   25.5870   -3.0670 C   0  0  0  0  0  0  0  0  0  0  0  0
  -92.8763   26.1552   -3.8601 C   0  0  0  0  0  0  0  0  0  0  0  0
  -92.4934   27.0622   -4.9848 C   0  0  0  0  0  0  0  0  0  0  0  0
  -92.7328   28.4384   -4.5285 N   0  0  0  0  0  0  0  0  0  0  0  0
  -93.2173   28.5909   -3.6301 H   0  0  0  0  0  0  0  0  0  0  0  0
  -92.3204   29.5592   -5.2718 C   0  0  0  0  0  0  0  0  0  0  0  0
  -93.1839   30.0442   -6.2919 N   0  0  0  0  0  0  0  0  0  0  0  0
  -91.1983   30.1700   -5.0760 N   0  0  0  0  0  0  0  0  0  0  0  0
  -93.8142   29.4074   -6.8433 H   0  0  0  0  0  0  0  0  0  0  0  0
  -93.2423   31.0561   -6.5500 H   0  0  0  0  0  0  0  0  0  0  0  0
  -90.9245   30.9977   -5.6445 H   0  0  0  0  0  0  0  0  0  0  0  0
  -87.5041   27.9741   -1.7187 C   0  0  0  0  0  0  0  0  0  0  0  0
  -86.8889   27.1299    0.4431 C   0  0  0  0  0  0  0  0  0  0  0  0
  -87.1727   28.4298   -0.3612 C   0  0  0  0  0  0  0  0  0  0  0  0
  -88.2261   29.1185    0.4312 C   0  0  0  0  0  0  0  0  0  0  0  0
 54 55  1  0  0  0
 55 56  1  0  0  0
 55 53  1  0  0  0
 53  1  1  0  0  0
  1  2  1  0  0  0
  2  3  1  0  0  0
  3  4  2  0  0  0
  3  6  1  0  0  0
  6 19  1  0  0  0
 19 20  1  0  0  0
 20 21  2  0  0  0
 21 22  1  0  0  0
 22 23  2  0  0  0
 23 24  1  0  0  0
 24 25  2  0  0  0
  6  7  1  0  0  0
  7  8  1  0  0  0
  8  9  2  0  0  0
  8 11  1  0  0  0
 11 12  1  0  0  0
 12 13  1  0  0  0
 13 14  2  0  0  0
 14 15  1  0  0  0
 15 16  2  0  0  0
 16 17  1  0  0  0
 17 18  2  0  0  0
  1 26  1  0  0  0
 26 27  2  0  0  0
 26 28  1  0  0  0
 28 30  1  0  0  0
 30 42  1  0  0  0
 42 43  1  0  0  0
 43 44  1  0  0  0
 44 45  1  0  0  0
 45 47  1  0  0  0
 47 48  1  0  0  0
 47 49  2  0  0  0
 30 31  1  0  0  0
 31 32  2  0  0  0
 31 33  1  0  0  0
 33 34  2  0  0  0
 34 35  1  0  0  0
 35 36  2  0  0  0
 36 37  1  0  0  0
 37 38  2  0  0  0
 38 39  1  0  0  0
 39 40  2  0  0  0
 40 41  1  0  0  0
 25 20  1  0  0  0
 18 13  1  0  0  0
 41 33  1  0  0  0
 40 35  1  0  0  0
  2  5  1  0  0  0
  7 10  1  0  0  0
 28 29  1  0  0  0
 45 46  1  0  0  0
 48 50  1  0  0  0
 48 51  1  0  0  0
 49 52  1  0  0  0
M  END
> <minimizedAffinity>
-9.42971

> <CNNscore>
0.2418731749

> <CNNaffinity>
7.2339591980

> <CNN_VS>
1.7497006655

> <CNNaffinity_variance>
1.0442968607

$$$$
[H]N=C(N([H])[H])N([H])C([H])([H])C([H])([H])C([H])([H])[C@@]([H])(C(=O)c1nc2c([H])c([H])c([H])c([H])c2o1)N([H])C(=O)[C@@]([H])(N([H])C(=O)[C@@]([H])(N([H])C(=O)C([H])([H])C([H])([H])c1c([H])c([H])c([H])c([H])c1[H])C([H])([H])c1c([H])c([H])c([H])c([H])c1[H])C([H])([H])C([H])(C([H])([H])[H])C([H])([H])[H]


 56 59  0  0  0  0  0  0  0  0999 V2000
  -87.3389   28.8358   -1.0577 C   0  0  0  0  0  0  0  0  0  0  0  0
  -86.8313   30.1143   -1.4202 N   0  0  0  0  0  0  0  0  0  0  0  0
  -87.3214   31.3506   -0.9524 C   0  0  0  0  0  0  0  0  0  0  0  0
  -88.2688   31.3837   -0.1371 O   0  0  0  0  0  0  0  0  0  0  0  0
  -86.0283   30.1438   -2.0896 H   0  0  0  0  0  0  0  0  0  0  0  0
  -86.7406   32.6530   -1.4104 C   0  0  0  0  0  0  0  0  0  0  0  0
  -87.7312   33.4650   -2.0195 N   0  0  0  0  0  0  0  0  0  0  0  0
  -88.1310   33.1952   -3.3792 C   0  0  0  0  0  0  0  0  0  0  0  0
  -87.5608   32.2336   -3.9159 O   0  0  0  0  0  0  0  0  0  0  0  0
  -88.1828   34.2434   -1.5324 H   0  0  0  0  0  0  0  0  0  0  0  0
  -89.1313   34.0103   -4.0366 C   0  0  0  0  0  0  0  0  0  0  0  0
  -89.1020   35.4769   -3.8493 C   0  0  0  0  0  0  0  0  0  0  0  0
  -88.7769   36.3202   -4.9906 C   0  0  0  0  0  0  0  0  0  0  0  0
  -89.4534   37.4458   -5.3566 C   0  0  0  0  0  0  0  0  0  0  0  0
  -89.1037   38.1804   -6.5024 C   0  0  0  0  0  0  0  0  0  0  0  0
  -88.0471   37.7651   -7.2957 C   0  0  0  0  0  0  0  0  0  0  0  0
  -87.3578   36.6312   -6.9385 C   0  0  0  0  0  0  0  0  0  0  0  0
  -87.7152   35.9238   -5.8103 C   0  0  0  0  0  0  0  0  0  0  0  0
  -85.9362   33.3659   -0.3896 C   0  0  0  0  0  0  0  0  0  0  0  0
  -84.8189   32.5439    0.1367 C   0  0  0  0  0  0  0  0  0  0  0  0
  -84.9930   31.8280    1.2942 C   0  0  0  0  0  0  0  0  0  0  0  0
  -83.9763   31.0426    1.8252 C   0  0  0  0  0  0  0  0  0  0  0  0
  -82.7469   30.9683    1.1819 C   0  0  0  0  0  0  0  0  0  0  0  0
  -82.5762   31.6917    0.0150 C   0  0  0  0  0  0  0  0  0  0  0  0
  -83.5981   32.4697   -0.5013 C   0  0  0  0  0  0  0  0  0  0  0  0
  -88.6608   28.4769   -1.6128 C   0  0  0  0  0  0  0  0  0  0  0  0
  -89.1679   29.1936   -2.5159 O   0  0  0  0  0  0  0  0  0  0  0  0
  -89.3816   27.3528   -1.1655 N   0  0  0  0  0  0  0  0  0  0  0  0
  -88.9819   26.7458   -0.4332 H   0  0  0  0  0  0  0  0  0  0  0  0
  -90.7020   26.9538   -1.6752 C   0  0  0  0  0  0  0  0  0  0  0  0
  -91.5745   26.6064   -0.5542 C   0  0  0  0  0  0  0  0  0  0  0  0
  -92.7384   26.1895   -0.8437 O   0  0  0  0  0  0  0  0  0  0  0  0
  -91.1948   26.7049    0.8476 C   0  0  0  0  0  0  0  0  0  0  0  0
  -91.0266   27.7881    1.6240 N   0  0  0  0  0  0  0  0  0  0  0  0
  -90.6730   27.4392    2.8663 C   0  0  0  0  0  0  0  0  0  0  0  0
  -90.3790   28.1293    4.0495 C   0  0  0  0  0  0  0  0  0  0  0  0
  -90.0407   27.4433    5.1950 C   0  0  0  0  0  0  0  0  0  0  0  0
  -89.9928   26.0733    5.1683 C   0  0  0  0  0  0  0  0  0  0  0  0
  -90.2774   25.3556    4.0131 C   0  0  0  0  0  0  0  0  0  0  0  0
  -90.6192   26.0787    2.8642 C   0  0  0  0  0  0  0  0  0  0  0  0
  -90.9350   25.6685    1.6451 O   0  0  0  0  0  0  0  0  0  0  0  0
  -90.4096   25.7036   -2.5046 C   0  0  0  0  0  0  0  0  0  0  0  0
  -89.5526   24.6934   -1.8634 C   0  0  0  0  0  0  0  0  0  0  0  0
  -90.1791   23.3660   -1.5805 C   0  0  0  0  0  0  0  0  0  0  0  0
  -90.2960   23.2476   -0.1205 N   0  0  0  0  0  0  0  0  0  0  0  0
  -90.4920   24.0942    0.4364 H   0  0  0  0  0  0  0  0  0  0  0  0
  -90.1546   22.0178    0.5476 C   0  0  0  0  0  0  0  0  0  0  0  0
  -88.9583   21.2767    0.3458 N   0  0  0  0  0  0  0  0  0  0  0  0
  -91.0550   21.5271    1.3344 N   0  0  0  0  0  0  0  0  0  0  0  0
  -88.4289   21.3023   -0.5631 H   0  0  0  0  0  0  0  0  0  0  0  0
  -88.5379   20.6682    1.0853 H   0  0  0  0  0  0  0  0  0  0  0  0
  -90.9174   20.6136    1.8138 H   0  0  0  0  0  0  0  0  0  0  0  0
  -87.3353   28.5727    0.4095 C   0  0  0  0  0  0  0  0  0  0  0  0
  -87.2310   26.4392    1.5059 C   0  0  0  0  0  0  0  0  0  0  0  0
  -86.3684   27.6099    0.9559 C   0  0  0  0  0  0  0  0  0  0  0  0
  -85.5398   28.0221    2.1201 C   0  0  0  0  0  0  0  0  0  0  0  0
 54 55  1  0  0  0
 55 56  1  0  0  0
 55 53  1  0  0  0
 53  1  1  0  0  0
  1  2  1  0  0  0
  2  3  1  0  0  0
  3  4  2  0  0  0
  3  6  1  0  0  0
  6 19  1  0  0  0
 19 20  1  0  0  0
 20 21  2  0  0  0
 21 22  1  0  0  0
 22 23  2  0  0  0
 23 24  1  0  0  0
 24 25  2  0  0  0
  6  7  1  0  0  0
  7  8  1  0  0  0
  8  9  2  0  0  0
  8 11  1  0  0  0
 11 12  1  0  0  0
 12 13  1  0  0  0
 13 14  2  0  0  0
 14 15  1  0  0  0
 15 16  2  0  0  0
 16 17  1  0  0  0
 17 18  2  0  0  0
  1 26  1  0  0  0
 26 27  2  0  0  0
 26 28  1  0  0  0
 28 30  1  0  0  0
 30 42  1  0  0  0
 42 43  1  0  0  0
 43 44  1  0  0  0
 44 45  1  0  0  0
 45 47  1  0  0  0
 47 48  1  0  0  0
 47 49  2  0  0  0
 30 31  1  0  0  0
 31 32  2  0  0  0
 31 33  1  0  0  0
 33 34  2  0  0  0
 34 35  1  0  0  0
 35 36  2  0  0  0
 36 37  1  0  0  0
 37 38  2  0  0  0
 38 39  1  0  0  0
 39 40  2  0  0  0
 40 41  1  0  0  0
 25 20  1  0  0  0
 18 13  1  0  0  0
 41 33  1  0  0  0
 40 35  1  0  0  0
  2  5  1  0  0  0
  7 10  1  0  0  0
 28 29  1  0  0  0
 45 46  1  0  0  0
 48 50  1  0  0  0
 48 51  1  0  0  0
 49 52  1  0  0  0
M  END
> <minimizedAffinity>
-9.02339

> <CNNscore>
0.2323136628

> <CNNaffinity>
6.8519897461

> <CNN_VS>
1.5918108225

> <CNNaffinity_variance>
1.7926384211

$$$$
[H]N=C(N([H])[H])N([H])C([H])([H])C([H])([H])C([H])([H])[C@@]([H])(C(=O)c1nc2c([H])c([H])c([H])c([H])c2o1)N([H])C(=O)[C@@]([H])(N([H])C(=O)[C@@]([H])(N([H])C(=O)C([H])([H])C([H])([H])c1c([H])c([H])c([H])c([H])c1[H])C([H])([H])c1c([H])c([H])c([H])c([H])c1[H])C([H])([H])C([H])(C([H])([H])[H])C([H])([H])[H]


 56 59  0  0  0  0  0  0  0  0999 V2000
  -92.2298   27.4712   -2.9281 C   0  0  0  0  0  0  0  0  0  0  0  0
  -91.3862   27.4466   -1.7828 N   0  0  0  0  0  0  0  0  0  0  0  0
  -91.4353   28.3625   -0.7122 C   0  0  0  0  0  0  0  0  0  0  0  0
  -92.2818   29.2827   -0.7101 O   0  0  0  0  0  0  0  0  0  0  0  0
  -90.6685   26.6880   -1.7271 H   0  0  0  0  0  0  0  0  0  0  0  0
  -90.4867   28.2754    0.4436 C   0  0  0  0  0  0  0  0  0  0  0  0
  -89.2435   28.8805    0.1276 N   0  0  0  0  0  0  0  0  0  0  0  0
  -88.0648   28.0573    0.0078 C   0  0  0  0  0  0  0  0  0  0  0  0
  -88.2481   26.8441    0.1874 O   0  0  0  0  0  0  0  0  0  0  0  0
  -89.1424   29.8876   -0.0227 H   0  0  0  0  0  0  0  0  0  0  0  0
  -86.7770   28.6421   -0.3029 C   0  0  0  0  0  0  0  0  0  0  0  0
  -85.6468   28.4312    0.6274 C   0  0  0  0  0  0  0  0  0  0  0  0
  -84.8863   29.5887    1.0758 C   0  0  0  0  0  0  0  0  0  0  0  0
  -85.1008   30.2710    2.2365 C   0  0  0  0  0  0  0  0  0  0  0  0
  -84.3509   31.4101    2.5754 C   0  0  0  0  0  0  0  0  0  0  0  0
  -83.3634   31.8692    1.7195 C   0  0  0  0  0  0  0  0  0  0  0  0
  -83.1381   31.1912    0.5456 C   0  0  0  0  0  0  0  0  0  0  0  0
  -83.8837   30.0751    0.2304 C   0  0  0  0  0  0  0  0  0  0  0  0
  -91.0487   28.7200    1.7412 C   0  0  0  0  0  0  0  0  0  0  0  0
  -90.6796   27.8227    2.8636 C   0  0  0  0  0  0  0  0  0  0  0  0
  -90.5670   26.4734    2.6416 C   0  0  0  0  0  0  0  0  0  0  0  0
  -90.2222   25.5934    3.6610 C   0  0  0  0  0  0  0  0  0  0  0  0
  -89.9818   26.0736    4.9425 C   0  0  0  0  0  0  0  0  0  0  0  0
  -90.0964   27.4350    5.1615 C   0  0  0  0  0  0  0  0  0  0  0  0
  -90.4410   28.2987    4.1362 C   0  0  0  0  0  0  0  0  0  0  0  0
  -92.0797   28.6367   -3.8245 C   0  0  0  0  0  0  0  0  0  0  0  0
  -92.8624   28.7703   -4.8021 O   0  0  0  0  0  0  0  0  0  0  0  0
  -91.0847   29.6130   -3.6243 N   0  0  0  0  0  0  0  0  0  0  0  0
  -90.4381   29.5295   -2.8246 H   0  0  0  0  0  0  0  0  0  0  0  0
  -90.8843   30.7865   -4.4876 C   0  0  0  0  0  0  0  0  0  0  0  0
  -89.4542   31.0678   -4.6067 C   0  0  0  0  0  0  0  0  0  0  0  0
  -88.9164   30.8283   -5.7317 O   0  0  0  0  0  0  0  0  0  0  0  0
  -88.6261   31.5990   -3.5340 C   0  0  0  0  0  0  0  0  0  0  0  0
  -88.6122   31.3019   -2.2240 N   0  0  0  0  0  0  0  0  0  0  0  0
  -87.6894   32.0229   -1.5770 C   0  0  0  0  0  0  0  0  0  0  0  0
  -87.2521   32.1210   -0.2497 C   0  0  0  0  0  0  0  0  0  0  0  0
  -86.2424   32.9932    0.0926 C   0  0  0  0  0  0  0  0  0  0  0  0
  -85.6662   33.7690   -0.8801 C   0  0  0  0  0  0  0  0  0  0  0  0
  -86.0745   33.6990   -2.2063 C   0  0  0  0  0  0  0  0  0  0  0  0
  -87.1018   32.8032   -2.5256 C   0  0  0  0  0  0  0  0  0  0  0  0
  -87.6822   32.5287   -3.6840 O   0  0  0  0  0  0  0  0  0  0  0  0
  -91.5687   31.9207   -3.7249 C   0  0  0  0  0  0  0  0  0  0  0  0
  -92.6675   32.5986   -4.4317 C   0  0  0  0  0  0  0  0  0  0  0  0
  -92.2807   33.5221   -5.5416 C   0  0  0  0  0  0  0  0  0  0  0  0
  -90.9899   34.1202   -5.1737 N   0  0  0  0  0  0  0  0  0  0  0  0
  -90.1370   33.8133   -5.6672 H   0  0  0  0  0  0  0  0  0  0  0  0
  -90.8744   35.1023   -4.1732 C   0  0  0  0  0  0  0  0  0  0  0  0
  -89.7617   35.0355   -3.2907 N   0  0  0  0  0  0  0  0  0  0  0  0
  -91.7266   36.0611   -4.0147 N   0  0  0  0  0  0  0  0  0  0  0  0
  -89.3242   34.1215   -3.0076 H   0  0  0  0  0  0  0  0  0  0  0  0
  -89.3166   35.8862   -2.8758 H   0  0  0  0  0  0  0  0  0  0  0  0
  -91.6101   36.7720   -3.2636 H   0  0  0  0  0  0  0  0  0  0  0  0
  -93.6751   27.2689   -2.6245 C   0  0  0  0  0  0  0  0  0  0  0  0
  -93.6004   25.1068   -3.6657 C   0  0  0  0  0  0  0  0  0  0  0  0
  -94.1812   25.8988   -2.4605 C   0  0  0  0  0  0  0  0  0  0  0  0
  -95.6476   25.6699   -2.5546 C   0  0  0  0  0  0  0  0  0  0  0  0
 54 55  1  0  0  0
 55 56  1  0  0  0
 55 53  1  0  0  0
 53  1  1  0  0  0
  1  2  1  0  0  0
  2  3  1  0  0  0
  3  4  2  0  0  0
  3  6  1  0  0  0
  6 19  1  0  0  0
 19 20  1  0  0  0
 20 21  2  0  0  0
 21 22  1  0  0  0
 22 23  2  0  0  0
 23 24  1  0  0  0
 24 25  2  0  0  0
  6  7  1  0  0  0
  7  8  1  0  0  0
  8  9  2  0  0  0
  8 11  1  0  0  0
 11 12  1  0  0  0
 12 13  1  0  0  0
 13 14  2  0  0  0
 14 15  1  0  0  0
 15 16  2  0  0  0
 16 17  1  0  0  0
 17 18  2  0  0  0
  1 26  1  0  0  0
 26 27  2  0  0  0
 26 28  1  0  0  0
 28 30  1  0  0  0
 30 42  1  0  0  0
 42 43  1  0  0  0
 43 44  1  0  0  0
 44 45  1  0  0  0
 45 47  1  0  0  0
 47 48  1  0  0  0
 47 49  2  0  0  0
 30 31  1  0  0  0
 31 32  2  0  0  0
 31 33  1  0  0  0
 33 34  2  0  0  0
 34 35  1  0  0  0
 35 36  2  0  0  0
 36 37  1  0  0  0
 37 38  2  0  0  0
 38 39  1  0  0  0
 39 40  2  0  0  0
 40 41  1  0  0  0
 25 20  1  0  0  0
 18 13  1  0  0  0
 41 33  1  0  0  0
 40 35  1  0  0  0
  2  5  1  0  0  0
  7 10  1  0  0  0
 28 29  1  0  0  0
 45 46  1  0  0  0
 48 50  1  0  0  0
 48 51  1  0  0  0
 49 52  1  0  0  0
M  END
> <minimizedAffinity>
-7.64413

> <CNNscore>
0.1895699799

> <CNNaffinity>
7.2817406654

> <CNN_VS>
1.3803994656

> <CNNaffinity_variance>
0.5979741812

$$$$
[H]N=C(N([H])[H])N([H])C([H])([H])C([H])([H])C([H])([H])[C@@]([H])(C(=O)c1nc2c([H])c([H])c([H])c([H])c2o1)N([H])C(=O)[C@@]([H])(N([H])C(=O)[C@@]([H])(N([H])C(=O)C([H])([H])C([H])([H])c1c([H])c([H])c([H])c([H])c1[H])C([H])([H])c1c([H])c([H])c([H])c([H])c1[H])C([H])([H])C([H])(C([H])([H])[H])C([H])([H])[H]


 56 59  0  0  0  0  0  0  0  0999 V2000
  -89.2765   30.7860   -2.1399 C   0  0  0  0  0  0  0  0  0  0  0  0
  -89.1141   29.5419   -1.4695 N   0  0  0  0  0  0  0  0  0  0  0  0
  -89.6558   29.2160   -0.2093 C   0  0  0  0  0  0  0  0  0  0  0  0
  -90.3590   30.0463    0.4067 O   0  0  0  0  0  0  0  0  0  0  0  0
  -88.5457   28.8056   -1.9475 H   0  0  0  0  0  0  0  0  0  0  0  0
  -89.4098   27.8863    0.4343 C   0  0  0  0  0  0  0  0  0  0  0  0
  -88.2537   27.9250    1.2550 N   0  0  0  0  0  0  0  0  0  0  0  0
  -87.1095   27.1184    0.9062 C   0  0  0  0  0  0  0  0  0  0  0  0
  -87.2353   26.4428   -0.1261 O   0  0  0  0  0  0  0  0  0  0  0  0
  -88.1919   28.5075    2.0941 H   0  0  0  0  0  0  0  0  0  0  0  0
  -85.9164   27.1246    1.7269 C   0  0  0  0  0  0  0  0  0  0  0  0
  -85.6111   28.3182    2.5449 C   0  0  0  0  0  0  0  0  0  0  0  0
  -84.8733   29.4139    1.9330 C   0  0  0  0  0  0  0  0  0  0  0  0
  -85.4324   30.4781    1.2899 C   0  0  0  0  0  0  0  0  0  0  0  0
  -84.6469   31.4731    0.6836 C   0  0  0  0  0  0  0  0  0  0  0  0
  -83.2652   31.3877    0.7279 C   0  0  0  0  0  0  0  0  0  0  0  0
  -82.6891   30.3192    1.3720 C   0  0  0  0  0  0  0  0  0  0  0  0
  -83.4762   29.3529    1.9616 C   0  0  0  0  0  0  0  0  0  0  0  0
  -90.5919   27.2940    1.1044 C   0  0  0  0  0  0  0  0  0  0  0  0
  -90.3482   26.9926    2.5365 C   0  0  0  0  0  0  0  0  0  0  0  0
  -90.4720   27.9921    3.4684 C   0  0  0  0  0  0  0  0  0  0  0  0
  -90.2553   27.7579    4.8214 C   0  0  0  0  0  0  0  0  0  0  0  0
  -89.9042   26.4869    5.2596 C   0  0  0  0  0  0  0  0  0  0  0  0
  -89.7807   25.4823    4.3163 C   0  0  0  0  0  0  0  0  0  0  0  0
  -89.9994   25.7311    2.9723 C   0  0  0  0  0  0  0  0  0  0  0  0
  -90.3050   30.8265   -3.2006 C   0  0  0  0  0  0  0  0  0  0  0  0
  -90.3391   29.9108   -4.0646 O   0  0  0  0  0  0  0  0  0  0  0  0
  -91.2575   31.8606   -3.2820 N   0  0  0  0  0  0  0  0  0  0  0  0
  -91.2548   32.6164   -2.5797 H   0  0  0  0  0  0  0  0  0  0  0  0
  -92.2962   31.9558   -4.3186 C   0  0  0  0  0  0  0  0  0  0  0  0
  -92.0796   33.1603   -5.1190 C   0  0  0  0  0  0  0  0  0  0  0  0
  -92.9765   33.4503   -5.9697 O   0  0  0  0  0  0  0  0  0  0  0  0
  -90.9206   34.0327   -4.9990 C   0  0  0  0  0  0  0  0  0  0  0  0
  -89.7748   34.0502   -5.7002 N   0  0  0  0  0  0  0  0  0  0  0  0
  -88.9617   35.0211   -5.2689 C   0  0  0  0  0  0  0  0  0  0  0  0
  -87.6871   35.4833   -5.6216 C   0  0  0  0  0  0  0  0  0  0  0  0
  -87.1173   36.5447   -4.9539 C   0  0  0  0  0  0  0  0  0  0  0  0
  -87.8097   37.1481   -3.9358 C   0  0  0  0  0  0  0  0  0  0  0  0
  -89.0753   36.7164   -3.5582 C   0  0  0  0  0  0  0  0  0  0  0  0
  -89.6304   35.6365   -4.2548 C   0  0  0  0  0  0  0  0  0  0  0  0
  -90.7966   35.0242   -4.1162 O   0  0  0  0  0  0  0  0  0  0  0  0
  -93.5935   32.0950   -3.5224 C   0  0  0  0  0  0  0  0  0  0  0  0
  -94.3617   30.8552   -3.3242 C   0  0  0  0  0  0  0  0  0  0  0  0
  -94.6880   30.0664   -4.5513 C   0  0  0  0  0  0  0  0  0  0  0  0
  -94.0660   28.7447   -4.3915 N   0  0  0  0  0  0  0  0  0  0  0  0
  -94.4975   28.0628   -3.7480 H   0  0  0  0  0  0  0  0  0  0  0  0
  -92.9027   28.3721   -5.0891 C   0  0  0  0  0  0  0  0  0  0  0  0
  -92.5863   29.0672   -6.2883 N   0  0  0  0  0  0  0  0  0  0  0  0
  -92.1077   27.4316   -4.6970 N   0  0  0  0  0  0  0  0  0  0  0  0
  -93.3289   29.4543   -6.9251 H   0  0  0  0  0  0  0  0  0  0  0  0
  -91.6029   29.2333   -6.6034 H   0  0  0  0  0  0  0  0  0  0  0  0
  -91.2541   27.1818   -5.2376 H   0  0  0  0  0  0  0  0  0  0  0  0
  -88.0074   31.3652   -2.6651 C   0  0  0  0  0  0  0  0  0  0  0  0
  -88.3251   32.8791   -0.8288 C   0  0  0  0  0  0  0  0  0  0  0  0
  -87.2761   32.3377   -1.8407 C   0  0  0  0  0  0  0  0  0  0  0  0
  -86.7444   33.5627   -2.4953 C   0  0  0  0  0  0  0  0  0  0  0  0
 54 55  1  0  0  0
 55 56  1  0  0  0
 55 53  1  0  0  0
 53  1  1  0  0  0
  1  2  1  0  0  0
  2  3  1  0  0  0
  3  4  2  0  0  0
  3  6  1  0  0  0
  6 19  1  0  0  0
 19 20  1  0  0  0
 20 21  2  0  0  0
 21 22  1  0  0  0
 22 23  2  0  0  0
 23 24  1  0  0  0
 24 25  2  0  0  0
  6  7  1  0  0  0
  7  8  1  0  0  0
  8  9  2  0  0  0
  8 11  1  0  0  0
 11 12  1  0  0  0
 12 13  1  0  0  0
 13 14  2  0  0  0
 14 15  1  0  0  0
 15 16  2  0  0  0
 16 17  1  0  0  0
 17 18  2  0  0  0
  1 26  1  0  0  0
 26 27  2  0  0  0
 26 28  1  0  0  0
 28 30  1  0  0  0
 30 42  1  0  0  0
 42 43  1  0  0  0
 43 44  1  0  0  0
 44 45  1  0  0  0
 45 47  1  0  0  0
 47 48  1  0  0  0
 47 49  2  0  0  0
 30 31  1  0  0  0
 31 32  2  0  0  0
 31 33  1  0  0  0
 33 34  2  0  0  0
 34 35  1  0  0  0
 35 36  2  0  0  0
 36 37  1  0  0  0
 37 38  2  0  0  0
 38 39  1  0  0  0
 39 40  2  0  0  0
 40 41  1  0  0  0
 25 20  1  0  0  0
 18 13  1  0  0  0
 41 33  1  0  0  0
 40 35  1  0  0  0
  2  5  1  0  0  0
  7 10  1  0  0  0
 28 29  1  0  0  0
 45 46  1  0  0  0
 48 50  1  0  0  0
 48 51  1  0  0  0
 49 52  1  0  0  0
M  END
> <minimizedAffinity>
-8.65200

> <CNNscore>
0.1290380061

> <CNNaffinity>
6.9101638794

> <CNN_VS>
0.8916737437

> <CNNaffinity_variance>
0.9382303357

$$$$
[H]N=C(N([H])[H])N([H])C([H])([H])C([H])([H])C([H])([H])[C@@]([H])(C(=O)c1nc2c([H])c([H])c([H])c([H])c2o1)N([H])C(=O)[C@@]([H])(N([H])C(=O)[C@@]([H])(N([H])C(=O)C([H])([H])C([H])([H])c1c([H])c([H])c([H])c([H])c1[H])C([H])([H])c1c([H])c([H])c([H])c([H])c1[H])C([H])([H])C([H])(C([H])([H])[H])C([H])([H])[H]


 56 59  0  0  0  0  0  0  0  0999 V2000
  -89.4497   27.4494   -2.3583 C   0  0  0  0  0  0  0  0  0  0  0  0
  -88.8815   26.9096   -1.1710 N   0  0  0  0  0  0  0  0  0  0  0  0
  -89.1942   27.3159    0.1423 C   0  0  0  0  0  0  0  0  0  0  0  0
  -90.0467   28.2094    0.3380 O   0  0  0  0  0  0  0  0  0  0  0  0
  -88.1722   26.1485   -1.2771 H   0  0  0  0  0  0  0  0  0  0  0  0
  -88.5243   26.7080    1.3359 C   0  0  0  0  0  0  0  0  0  0  0  0
  -89.2730   25.6120    1.8357 N   0  0  0  0  0  0  0  0  0  0  0  0
  -89.7656   25.6495    3.1912 C   0  0  0  0  0  0  0  0  0  0  0  0
  -89.4911   26.6801    3.8240 O   0  0  0  0  0  0  0  0  0  0  0  0
  -89.4843   24.7848    1.2714 H   0  0  0  0  0  0  0  0  0  0  0  0
  -90.5241   24.5439    3.7384 C   0  0  0  0  0  0  0  0  0  0  0  0
  -89.9565   23.1797    3.6750 C   0  0  0  0  0  0  0  0  0  0  0  0
  -88.9798   22.7825    4.6787 C   0  0  0  0  0  0  0  0  0  0  0  0
  -88.6238   21.4984    4.9670 C   0  0  0  0  0  0  0  0  0  0  0  0
  -87.7045   21.1957    5.9857 C   0  0  0  0  0  0  0  0  0  0  0  0
  -87.1344   22.2154    6.7299 C   0  0  0  0  0  0  0  0  0  0  0  0
  -87.4858   23.5141    6.4502 C   0  0  0  0  0  0  0  0  0  0  0  0
  -88.3893   23.7917    5.4464 C   0  0  0  0  0  0  0  0  0  0  0  0
  -87.0846   26.4066    1.1519 C   0  0  0  0  0  0  0  0  0  0  0  0
  -86.2025   27.3710    1.8539 C   0  0  0  0  0  0  0  0  0  0  0  0
  -84.8749   27.0710    2.0269 C   0  0  0  0  0  0  0  0  0  0  0  0
  -84.0092   27.9433    2.6767 C   0  0  0  0  0  0  0  0  0  0  0  0
  -84.4819   29.1533    3.1697 C   0  0  0  0  0  0  0  0  0  0  0  0
  -85.8213   29.4516    2.9927 C   0  0  0  0  0  0  0  0  0  0  0  0
  -86.6711   28.5725    2.3438 C   0  0  0  0  0  0  0  0  0  0  0  0
  -89.0324   28.8213   -2.7163 C   0  0  0  0  0  0  0  0  0  0  0  0
  -88.1851   28.9910   -3.6325 O   0  0  0  0  0  0  0  0  0  0  0  0
  -89.5520   29.9567   -2.0651 N   0  0  0  0  0  0  0  0  0  0  0  0
  -90.2543   29.8427   -1.3180 H   0  0  0  0  0  0  0  0  0  0  0  0
  -89.1675   31.3422   -2.3739 C   0  0  0  0  0  0  0  0  0  0  0  0
  -88.5833   31.9640   -1.1863 C   0  0  0  0  0  0  0  0  0  0  0  0
  -89.3807   32.5761   -0.4106 O   0  0  0  0  0  0  0  0  0  0  0  0
  -87.1690   31.9212   -0.8443 C   0  0  0  0  0  0  0  0  0  0  0  0
  -86.4254   30.9106   -0.3643 N   0  0  0  0  0  0  0  0  0  0  0  0
  -85.1552   31.2909   -0.1851 C   0  0  0  0  0  0  0  0  0  0  0  0
  -83.9851   30.6720    0.2734 C   0  0  0  0  0  0  0  0  0  0  0  0
  -82.8000   31.3713    0.3333 C   0  0  0  0  0  0  0  0  0  0  0  0
  -82.7740   32.6845   -0.0605 C   0  0  0  0  0  0  0  0  0  0  0  0
  -83.9147   33.3311   -0.5199 C   0  0  0  0  0  0  0  0  0  0  0  0
  -85.1048   32.5957   -0.5711 C   0  0  0  0  0  0  0  0  0  0  0  0
  -86.3222   32.9446   -0.9591 O   0  0  0  0  0  0  0  0  0  0  0  0
  -90.4947   32.0223   -2.7091 C   0  0  0  0  0  0  0  0  0  0  0  0
  -90.8885   31.9983   -4.1272 C   0  0  0  0  0  0  0  0  0  0  0  0
  -92.3489   31.8588   -4.4141 C   0  0  0  0  0  0  0  0  0  0  0  0
  -92.9581   33.1784   -4.1973 N   0  0  0  0  0  0  0  0  0  0  0  0
  -92.3444   33.9967   -4.0598 H   0  0  0  0  0  0  0  0  0  0  0  0
  -94.3517   33.3684   -4.1748 C   0  0  0  0  0  0  0  0  0  0  0  0
  -94.9414   33.8796   -2.9864 N   0  0  0  0  0  0  0  0  0  0  0  0
  -95.1230   33.1022   -5.1771 N   0  0  0  0  0  0  0  0  0  0  0  0
  -94.5494   33.6738   -2.0320 H   0  0  0  0  0  0  0  0  0  0  0  0
  -95.7929   34.4869   -2.9932 H   0  0  0  0  0  0  0  0  0  0  0  0
  -96.1512   33.2555   -5.1264 H   0  0  0  0  0  0  0  0  0  0  0  0
  -90.9362   27.3574   -2.4185 C   0  0  0  0  0  0  0  0  0  0  0  0
  -92.8219   28.8422   -2.3548 C   0  0  0  0  0  0  0  0  0  0  0  0
  -91.6732   28.3122   -3.2585 C   0  0  0  0  0  0  0  0  0  0  0  0
  -92.3746   27.7988   -4.4653 C   0  0  0  0  0  0  0  0  0  0  0  0
 54 55  1  0  0  0
 55 56  1  0  0  0
 55 53  1  0  0  0
 53  1  1  0  0  0
  1  2  1  0  0  0
  2  3  1  0  0  0
  3  4  2  0  0  0
  3  6  1  0  0  0
  6 19  1  0  0  0
 19 20  1  0  0  0
 20 21  2  0  0  0
 21 22  1  0  0  0
 22 23  2  0  0  0
 23 24  1  0  0  0
 24 25  2  0  0  0
  6  7  1  0  0  0
  7  8  1  0  0  0
  8  9  2  0  0  0
  8 11  1  0  0  0
 11 12  1  0  0  0
 12 13  1  0  0  0
 13 14  2  0  0  0
 14 15  1  0  0  0
 15 16  2  0  0  0
 16 17  1  0  0  0
 17 18  2  0  0  0
  1 26  1  0  0  0
 26 27  2  0  0  0
 26 28  1  0  0  0
 28 30  1  0  0  0
 30 42  1  0  0  0
 42 43  1  0  0  0
 43 44  1  0  0  0
 44 45  1  0  0  0
 45 47  1  0  0  0
 47 48  1  0  0  0
 47 49  2  0  0  0
 30 31  1  0  0  0
 31 32  2  0  0  0
 31 33  1  0  0  0
 33 34  2  0  0  0
 34 35  1  0  0  0
 35 36  2  0  0  0
 36 37  1  0  0  0
 37 38  2  0  0  0
 38 39  1  0  0  0
 39 40  2  0  0  0
 40 41  1  0  0  0
 25 20  1  0  0  0
 18 13  1  0  0  0
 41 33  1  0  0  0
 40 35  1  0  0  0
  2  5  1  0  0  0
  7 10  1  0  0  0
 28 29  1  0  0  0
 45 46  1  0  0  0
 48 50  1  0  0  0
 48 51  1  0  0  0
 49 52  1  0  0  0
M  END
> <minimizedAffinity>
-8.55241

> <CNNscore>
0.1146363318

> <CNNaffinity>
7.0770010948

> <CNN_VS>
0.8112814426

> <CNNaffinity_variance>
0.5492358804

$$$$
[H]N=C(N([H])[H])N([H])C([H])([H])C([H])([H])C([H])([H])[C@@]([H])(C(=O)c1nc2c([H])c([H])c([H])c([H])c2o1)N([H])C(=O)[C@@]([H])(N([H])C(=O)[C@@]([H])(N([H])C(=O)C([H])([H])C([H])([H])c1c([H])c([H])c([H])c([H])c1[H])C([H])([H])c1c([H])c([H])c([H])c([H])c1[H])C([H])([H])C([H])(C([H])([H])[H])C([H])([H])[H]


 56 59  0  0  0  0  0  0  0  0999 V2000
  -89.4475   29.7719   -1.6997 C   0  0  0  0  0  0  0  0  0  0  0  0
  -89.7814   28.5022   -2.2476 N   0  0  0  0  0  0  0  0  0  0  0  0
  -91.0618   28.1159   -2.6936 C   0  0  0  0  0  0  0  0  0  0  0  0
  -92.0157   28.9224   -2.6414 O   0  0  0  0  0  0  0  0  0  0  0  0
  -89.0163   27.7936   -2.3271 H   0  0  0  0  0  0  0  0  0  0  0  0
  -91.3278   26.7443   -3.2331 C   0  0  0  0  0  0  0  0  0  0  0  0
  -91.6368   25.8377   -2.1871 N   0  0  0  0  0  0  0  0  0  0  0  0
  -90.5654   25.1747   -1.4843 C   0  0  0  0  0  0  0  0  0  0  0  0
  -89.4225   25.4734   -1.8618 O   0  0  0  0  0  0  0  0  0  0  0  0
  -92.5976   25.6300   -1.9027 H   0  0  0  0  0  0  0  0  0  0  0  0
  -90.8439   24.2349   -0.4184 C   0  0  0  0  0  0  0  0  0  0  0  0
  -90.1432   24.3845    0.8753 C   0  0  0  0  0  0  0  0  0  0  0  0
  -90.3298   25.6139    1.6323 C   0  0  0  0  0  0  0  0  0  0  0  0
  -90.8787   26.7631    1.1458 C   0  0  0  0  0  0  0  0  0  0  0  0
  -90.9810   27.9247    1.9300 C   0  0  0  0  0  0  0  0  0  0  0  0
  -90.5157   27.9231    3.2345 C   0  0  0  0  0  0  0  0  0  0  0  0
  -89.9589   26.7714    3.7365 C   0  0  0  0  0  0  0  0  0  0  0  0
  -89.8677   25.6412    2.9522 C   0  0  0  0  0  0  0  0  0  0  0  0
  -92.2893   26.6976   -4.3603 C   0  0  0  0  0  0  0  0  0  0  0  0
  -93.5198   25.9360   -4.0332 C   0  0  0  0  0  0  0  0  0  0  0  0
  -93.6135   24.6154   -4.3936 C   0  0  0  0  0  0  0  0  0  0  0  0
  -94.7452   23.8604   -4.1076 C   0  0  0  0  0  0  0  0  0  0  0  0
  -95.8176   24.4402   -3.4410 C   0  0  0  0  0  0  0  0  0  0  0  0
  -95.7185   25.7720   -3.0795 C   0  0  0  0  0  0  0  0  0  0  0  0
  -94.5850   26.5109   -3.3716 C   0  0  0  0  0  0  0  0  0  0  0  0
  -88.8996   30.7671   -2.6451 C   0  0  0  0  0  0  0  0  0  0  0  0
  -88.5843   30.4060   -3.8098 O   0  0  0  0  0  0  0  0  0  0  0  0
  -88.7153   32.1171   -2.2889 N   0  0  0  0  0  0  0  0  0  0  0  0
  -88.9753   32.4379   -1.3435 H   0  0  0  0  0  0  0  0  0  0  0  0
  -88.1675   33.1469   -3.1845 C   0  0  0  0  0  0  0  0  0  0  0  0
  -87.1146   33.8882   -2.4913 C   0  0  0  0  0  0  0  0  0  0  0  0
  -87.0666   35.1402   -2.6973 O   0  0  0  0  0  0  0  0  0  0  0  0
  -86.1384   33.2886   -1.5933 C   0  0  0  0  0  0  0  0  0  0  0  0
  -84.7960   33.3267   -1.6252 N   0  0  0  0  0  0  0  0  0  0  0  0
  -84.2709   32.6391   -0.6047 C   0  0  0  0  0  0  0  0  0  0  0  0
  -82.9741   32.3530   -0.1585 C   0  0  0  0  0  0  0  0  0  0  0  0
  -82.7742   31.5903    0.9709 C   0  0  0  0  0  0  0  0  0  0  0  0
  -83.8592   31.1102    1.6582 C   0  0  0  0  0  0  0  0  0  0  0  0
  -85.1594   31.3731    1.2449 C   0  0  0  0  0  0  0  0  0  0  0  0
  -85.3327   32.1517    0.0945 C   0  0  0  0  0  0  0  0  0  0  0  0
  -86.4345   32.5553   -0.5199 O   0  0  0  0  0  0  0  0  0  0  0  0
  -89.3568   34.0701   -3.4483 C   0  0  0  0  0  0  0  0  0  0  0  0
  -89.6857   34.3054   -4.8636 C   0  0  0  0  0  0  0  0  0  0  0  0
  -91.0707   33.9477   -5.2974 C   0  0  0  0  0  0  0  0  0  0  0  0
  -91.0735   32.5063   -5.5831 N   0  0  0  0  0  0  0  0  0  0  0  0
  -90.5138   32.1515   -6.3743 H   0  0  0  0  0  0  0  0  0  0  0  0
  -91.8102   31.5887   -4.8122 C   0  0  0  0  0  0  0  0  0  0  0  0
  -92.0798   30.3080   -5.3675 N   0  0  0  0  0  0  0  0  0  0  0  0
  -92.2543   31.8494   -3.6267 N   0  0  0  0  0  0  0  0  0  0  0  0
  -92.2126   30.1610   -6.4007 H   0  0  0  0  0  0  0  0  0  0  0  0
  -92.1600   29.4437   -4.7839 H   0  0  0  0  0  0  0  0  0  0  0  0
  -92.7960   31.1462   -3.0833 H   0  0  0  0  0  0  0  0  0  0  0  0
  -88.5710   29.7044   -0.4960 C   0  0  0  0  0  0  0  0  0  0  0  0
  -87.4084   28.4451    1.1855 C   0  0  0  0  0  0  0  0  0  0  0  0
  -87.6596   28.5613   -0.3444 C   0  0  0  0  0  0  0  0  0  0  0  0
  -86.2942   28.6628   -0.9249 C   0  0  0  0  0  0  0  0  0  0  0  0
 54 55  1  0  0  0
 55 56  1  0  0  0
 55 53  1  0  0  0
 53  1  1  0  0  0
  1  2  1  0  0  0
  2  3  1  0  0  0
  3  4  2  0  0  0
  3  6  1  0  0  0
  6 19  1  0  0  0
 19 20  1  0  0  0
 20 21  2  0  0  0
 21 22  1  0  0  0
 22 23  2  0  0  0
 23 24  1  0  0  0
 24 25  2  0  0  0
  6  7  1  0  0  0
  7  8  1  0  0  0
  8  9  2  0  0  0
  8 11  1  0  0  0
 11 12  1  0  0  0
 12 13  1  0  0  0
 13 14  2  0  0  0
 14 15  1  0  0  0
 15 16  2  0  0  0
 16 17  1  0  0  0
 17 18  2  0  0  0
  1 26  1  0  0  0
 26 27  2  0  0  0
 26 28  1  0  0  0
 28 30  1  0  0  0
 30 42  1  0  0  0
 42 43  1  0  0  0
 43 44  1  0  0  0
 44 45  1  0  0  0
 45 47  1  0  0  0
 47 48  1  0  0  0
 47 49  2  0  0  0
 30 31  1  0  0  0
 31 32  2  0  0  0
 31 33  1  0  0  0
 33 34  2  0  0  0
 34 35  1  0  0  0
 35 36  2  0  0  0
 36 37  1  0  0  0
 37 38  2  0  0  0
 38 39  1  0  0  0
 39 40  2  0  0  0
 40 41  1  0  0  0
 25 20  1  0  0  0
 18 13  1  0  0  0
 41 33  1  0  0  0
 40 35  1  0  0  0
  2  5  1  0  0  0
  7 10  1  0  0  0
 28 29  1  0  0  0
 45 46  1  0  0  0
 48 50  1  0  0  0
 48 51  1  0  0  0
 49 52  1  0  0  0
M  END
> <minimizedAffinity>
-7.72119

> <CNNscore>
0.1125980988

> <CNNaffinity>
7.1326360703

> <CNN_VS>
0.8031212687

> <CNNaffinity_variance>
0.6616463661

$$$$
[H]N=C(N([H])[H])N([H])C([H])([H])C([H])([H])C([H])([H])[C@@]([H])(C(=O)c1nc2c([H])c([H])c([H])c([H])c2o1)N([H])C(=O)[C@@]([H])(N([H])C(=O)[C@@]([H])(N([H])C(=O)C([H])([H])C([H])([H])c1c([H])c([H])c([H])c([H])c1[H])C([H])([H])c1c([H])c([H])c([H])c([H])c1[H])C([H])([H])C([H])(C([H])([H])[H])C([H])([H])[H]


 56 59  0  0  0  0  0  0  0  0999 V2000
  -89.4088   26.0945    2.4514 C   0  0  0  0  0  0  0  0  0  0  0  0
  -88.8654   27.2354    1.7980 N   0  0  0  0  0  0  0  0  0  0  0  0
  -87.7527   27.2284    0.9324 C   0  0  0  0  0  0  0  0  0  0  0  0
  -87.1672   26.1554    0.6695 O   0  0  0  0  0  0  0  0  0  0  0  0
  -89.3265   28.1577    1.9723 H   0  0  0  0  0  0  0  0  0  0  0  0
  -87.2319   28.4863    0.3082 C   0  0  0  0  0  0  0  0  0  0  0  0
  -85.8217   28.5701    0.4342 N   0  0  0  0  0  0  0  0  0  0  0  0
  -85.2387   28.7995    1.7339 C   0  0  0  0  0  0  0  0  0  0  0  0
  -86.0503   28.8968    2.6664 O   0  0  0  0  0  0  0  0  0  0  0  0
  -85.1895   28.4729   -0.3645 H   0  0  0  0  0  0  0  0  0  0  0  0
  -83.8036   28.9016    1.8983 C   0  0  0  0  0  0  0  0  0  0  0  0
  -83.1739   30.2396    1.9147 C   0  0  0  0  0  0  0  0  0  0  0  0
  -83.6164   31.2315    0.9454 C   0  0  0  0  0  0  0  0  0  0  0  0
  -82.8358   31.7901   -0.0228 C   0  0  0  0  0  0  0  0  0  0  0  0
  -83.3278   32.7783   -0.8922 C   0  0  0  0  0  0  0  0  0  0  0  0
  -84.6384   33.2116   -0.7777 C   0  0  0  0  0  0  0  0  0  0  0  0
  -85.4354   32.6575    0.1951 C   0  0  0  0  0  0  0  0  0  0  0  0
  -84.9351   31.6885    1.0386 C   0  0  0  0  0  0  0  0  0  0  0  0
  -87.7195   28.7430   -1.0679 C   0  0  0  0  0  0  0  0  0  0  0  0
  -88.0380   30.1723   -1.3061 C   0  0  0  0  0  0  0  0  0  0  0  0
  -88.8414   30.8430   -0.4187 C   0  0  0  0  0  0  0  0  0  0  0  0
  -89.1663   32.1826   -0.5985 C   0  0  0  0  0  0  0  0  0  0  0  0
  -88.6748   32.8759   -1.6977 C   0  0  0  0  0  0  0  0  0  0  0  0
  -87.8650   32.1955   -2.5897 C   0  0  0  0  0  0  0  0  0  0  0  0
  -87.5506   30.8613   -2.3973 C   0  0  0  0  0  0  0  0  0  0  0  0
  -90.2415   25.2007    1.6194 C   0  0  0  0  0  0  0  0  0  0  0  0
  -91.4191   24.9382    1.9808 O   0  0  0  0  0  0  0  0  0  0  0  0
  -89.7628   24.6261    0.4261 N   0  0  0  0  0  0  0  0  0  0  0  0
  -88.8046   24.8342    0.1052 H   0  0  0  0  0  0  0  0  0  0  0  0
  -90.5429   23.7248   -0.4352 C   0  0  0  0  0  0  0  0  0  0  0  0
  -91.6585   24.4602   -1.0295 C   0  0  0  0  0  0  0  0  0  0  0  0
  -92.7618   23.8401   -1.1322 O   0  0  0  0  0  0  0  0  0  0  0  0
  -91.5826   25.8361   -1.4986 C   0  0  0  0  0  0  0  0  0  0  0  0
  -90.7865   26.3903   -2.4280 N   0  0  0  0  0  0  0  0  0  0  0  0
  -91.0394   27.6975   -2.5603 C   0  0  0  0  0  0  0  0  0  0  0  0
  -90.5314   28.7354   -3.3523 C   0  0  0  0  0  0  0  0  0  0  0  0
  -91.0332   30.0131   -3.2388 C   0  0  0  0  0  0  0  0  0  0  0  0
  -92.0380   30.2630   -2.3399 C   0  0  0  0  0  0  0  0  0  0  0  0
  -92.5657   29.2588   -1.5376 C   0  0  0  0  0  0  0  0  0  0  0  0
  -92.0374   27.9697   -1.6749 C   0  0  0  0  0  0  0  0  0  0  0  0
  -92.3406   26.8392   -1.0550 O   0  0  0  0  0  0  0  0  0  0  0  0
  -91.0804   22.6709    0.5326 C   0  0  0  0  0  0  0  0  0  0  0  0
  -90.5250   21.3163    0.3804 C   0  0  0  0  0  0  0  0  0  0  0  0
  -89.3400   20.9795    1.2271 C   0  0  0  0  0  0  0  0  0  0  0  0
  -89.7747   21.0627    2.6283 N   0  0  0  0  0  0  0  0  0  0  0  0
  -90.6072   21.6263    2.8617 H   0  0  0  0  0  0  0  0  0  0  0  0
  -89.0979   20.3965    3.6661 C   0  0  0  0  0  0  0  0  0  0  0  0
  -88.3474   21.1759    4.5884 N   0  0  0  0  0  0  0  0  0  0  0  0
  -89.1228   19.1140    3.8242 N   0  0  0  0  0  0  0  0  0  0  0  0
  -87.8707   22.0712    4.3088 H   0  0  0  0  0  0  0  0  0  0  0  0
  -88.2281   20.9059    5.5918 H   0  0  0  0  0  0  0  0  0  0  0  0
  -88.6104   18.6533    4.6043 H   0  0  0  0  0  0  0  0  0  0  0  0
  -90.1348   26.4048    3.7157 C   0  0  0  0  0  0  0  0  0  0  0  0
  -89.7120   26.5578    6.0742 C   0  0  0  0  0  0  0  0  0  0  0  0
  -89.8985   25.5610    4.8957 C   0  0  0  0  0  0  0  0  0  0  0  0
  -88.6681   24.7265    4.9342 C   0  0  0  0  0  0  0  0  0  0  0  0
 54 55  1  0  0  0
 55 56  1  0  0  0
 55 53  1  0  0  0
 53  1  1  0  0  0
  1  2  1  0  0  0
  2  3  1  0  0  0
  3  4  2  0  0  0
  3  6  1  0  0  0
  6 19  1  0  0  0
 19 20  1  0  0  0
 20 21  2  0  0  0
 21 22  1  0  0  0
 22 23  2  0  0  0
 23 24  1  0  0  0
 24 25  2  0  0  0
  6  7  1  0  0  0
  7  8  1  0  0  0
  8  9  2  0  0  0
  8 11  1  0  0  0
 11 12  1  0  0  0
 12 13  1  0  0  0
 13 14  2  0  0  0
 14 15  1  0  0  0
 15 16  2  0  0  0
 16 17  1  0  0  0
 17 18  2  0  0  0
  1 26  1  0  0  0
 26 27  2  0  0  0
 26 28  1  0  0  0
 28 30  1  0  0  0
 30 42  1  0  0  0
 42 43  1  0  0  0
 43 44  1  0  0  0
 44 45  1  0  0  0
 45 47  1  0  0  0
 47 48  1  0  0  0
 47 49  2  0  0  0
 30 31  1  0  0  0
 31 32  2  0  0  0
 31 33  1  0  0  0
 33 34  2  0  0  0
 34 35  1  0  0  0
 35 36  2  0  0  0
 36 37  1  0  0  0
 37 38  2  0  0  0
 38 39  1  0  0  0
 39 40  2  0  0  0
 40 41  1  0  0  0
 25 20  1  0  0  0
 18 13  1  0  0  0
 41 33  1  0  0  0
 40 35  1  0  0  0
  2  5  1  0  0  0
  7 10  1  0  0  0
 28 29  1  0  0  0
 45 46  1  0  0  0
 48 50  1  0  0  0
 48 51  1  0  0  0
 49 52  1  0  0  0
M  END
> <minimizedAffinity>
-8.42464

> <CNNscore>
0.0829892829

> <CNNaffinity>
7.3675994873

> <CNN_VS>
0.6114317775

> <CNNaffinity_variance>
0.5091019869

$$$$
[H]c1c([H])c([H])c2c(c1[H])c1c3c(c4c5c([H])c([H])c([H])c([H])c5n5c4c1n2[C@@]1([H])O[C@@]5(C([H])([H])[H])[C@@]([H])(N([H])C([H])([H])[H])C1([H])[H])C([H])([H])N([H])C3=O


 34 41  0  0  0  0  0  0  0  0999 V2000
  -91.6355   30.3772   -2.6715 C   0  0  0  0  0  0  0  0  0  0  0  0
  -91.3153   29.1533   -1.8657 C   0  0  0  0  0  0  0  0  0  0  0  0
  -89.9457   29.3291   -1.2798 C   0  0  0  0  0  0  0  0  0  0  0  0
  -89.4193   30.6618   -1.7236 O   0  0  0  0  0  0  0  0  0  0  0  0
  -90.4637   31.3095   -2.5837 C   0  0  0  0  0  0  0  0  0  0  0  0
  -90.3553   32.6537   -3.2407 C   0  0  0  0  0  0  0  0  0  0  0  0
  -89.2324   32.1499   -2.4178 N   0  0  0  0  0  0  0  0  0  0  0  0
  -89.0625   33.5006   -3.0478 C   0  0  0  0  0  0  0  0  0  0  0  0
  -89.9622   34.3186   -3.9262 C   0  0  0  0  0  0  0  0  0  0  0  0
  -89.5127   35.6638   -4.4146 C   0  0  0  0  0  0  0  0  0  0  0  0
  -88.1637   36.1909   -4.0247 C   0  0  0  0  0  0  0  0  0  0  0  0
  -87.2640   35.3728   -3.1463 C   0  0  0  0  0  0  0  0  0  0  0  0
  -87.7135   34.0277   -2.6579 C   0  0  0  0  0  0  0  0  0  0  0  0
  -87.0494   33.0029   -1.7868 C   0  0  0  0  0  0  0  0  0  0  0  0
  -85.6997   32.7709   -0.9952 C   0  0  0  0  0  0  0  0  0  0  0  0
  -84.5279   33.7032   -0.9074 C   0  0  0  0  0  0  0  0  0  0  0  0
  -83.4835   33.0554   -0.0473 N   0  0  0  0  0  0  0  0  0  0  0  0
  -84.0099   31.7228    0.3965 C   0  0  0  0  0  0  0  0  0  0  0  0
  -83.2925   30.7387    1.2723 O   0  0  0  0  0  0  0  0  0  0  0  0
  -85.3795   31.5468   -0.1893 C   0  0  0  0  0  0  0  0  0  0  0  0
  -86.3765   30.4303   -0.0931 C   0  0  0  0  0  0  0  0  0  0  0  0
  -86.4234   29.0955    0.5894 C   0  0  0  0  0  0  0  0  0  0  0  0
  -85.4344   28.3776    1.4592 C   0  0  0  0  0  0  0  0  0  0  0  0
  -85.7656   27.0228    2.0113 C   0  0  0  0  0  0  0  0  0  0  0  0
  -87.0860   26.3859    1.6937 C   0  0  0  0  0  0  0  0  0  0  0  0
  -88.0751   27.1037    0.8239 C   0  0  0  0  0  0  0  0  0  0  0  0
  -87.7438   28.4585    0.2718 C   0  0  0  0  0  0  0  0  0  0  0  0
  -88.5130   29.3997   -0.6071 N   0  0  0  0  0  0  0  0  0  0  0  0
  -87.6680   30.6183   -0.8326 C   0  0  0  0  0  0  0  0  0  0  0  0
  -87.9881   31.8423   -1.6385 C   0  0  0  0  0  0  0  0  0  0  0  0
  -82.1475   33.6380    0.3068 H   0  0  0  0  0  0  0  0  0  0  0  0
  -94.1627   30.0437   -2.1697 C   0  0  0  0  0  0  0  0  0  0  0  0
  -92.9308   29.6698   -2.9395 N   0  0  0  0  0  0  0  0  0  0  0  0
  -93.1258   28.7816   -3.7452 H   0  0  0  0  0  0  0  0  0  0  0  0
 32 33  1  0  0  0
 33  1  1  0  0  0
  1  2  1  0  0  0
  2  3  1  0  0  0
  3  4  1  0  0  0
  4  5  1  0  0  0
  5  6  1  0  0  0
  5  7  1  0  0  0
  7  8  1  0  0  0
  8  9  2  0  0  0
  9 10  1  0  0  0
 10 11  2  0  0  0
 11 12  1  0  0  0
 12 13  2  0  0  0
 13 14  1  0  0  0
 14 15  2  0  0  0
 15 16  1  0  0  0
 16 17  1  0  0  0
 17 18  1  0  0  0
 18 19  2  0  0  0
 18 20  1  0  0  0
 20 21  2  0  0  0
 21 22  1  0  0  0
 22 23  2  0  0  0
 23 24  1  0  0  0
 24 25  2  0  0  0
 25 26  1  0  0  0
 26 27  2  0  0  0
 27 28  1  0  0  0
 28 29  1  0  0  0
 29 30  2  0  0  0
  5  1  1  0  0  0
 30  7  1  0  0  0
 28  3  1  0  0  0
 13  8  1  0  0  0
 30 14  1  0  0  0
 20 15  1  0  0  0
 29 21  1  0  0  0
 27 22  1  0  0  0
 33 34  1  0  0  0
 17 31  1  0  0  0
M  END
> <minimizedAffinity>
-10.09830

> <CNNscore>
0.5170944333

> <CNNaffinity>
6.7890334129

> <CNN_VS>
3.5105714798

> <CNNaffinity_variance>
0.1762416661

$$$$
[H]c1c([H])c([H])c2c(c1[H])c1c3c(c4c5c([H])c([H])c([H])c([H])c5n5c4c1n2[C@@]1([H])O[C@@]5(C([H])([H])[H])[C@@]([H])(N([H])C([H])([H])[H])C1([H])[H])C([H])([H])N([H])C3=O


 34 41  0  0  0  0  0  0  0  0999 V2000
  -88.4454   33.9445   -2.9075 C   0  0  0  0  0  0  0  0  0  0  0  0
  -87.0467   34.1052   -2.3901 C   0  0  0  0  0  0  0  0  0  0  0  0
  -86.7090   32.8880   -1.5811 C   0  0  0  0  0  0  0  0  0  0  0  0
  -87.8991   31.9751   -1.5985 O   0  0  0  0  0  0  0  0  0  0  0  0
  -88.9722   32.6281   -2.4182 C   0  0  0  0  0  0  0  0  0  0  0  0
  -90.3332   32.0636   -2.6993 C   0  0  0  0  0  0  0  0  0  0  0  0
  -89.3804   31.2937   -1.8679 N   0  0  0  0  0  0  0  0  0  0  0  0
  -90.7249   30.6752   -2.1124 C   0  0  0  0  0  0  0  0  0  0  0  0
  -91.9206   31.1462   -2.8861 C   0  0  0  0  0  0  0  0  0  0  0  0
  -93.1530   30.2937   -2.9546 C   0  0  0  0  0  0  0  0  0  0  0  0
  -93.1896   28.9703   -2.2496 C   0  0  0  0  0  0  0  0  0  0  0  0
  -91.9938   28.4993   -1.4759 C   0  0  0  0  0  0  0  0  0  0  0  0
  -90.7615   29.3518   -1.4074 C   0  0  0  0  0  0  0  0  0  0  0  0
  -89.4396   29.1523   -0.7270 C   0  0  0  0  0  0  0  0  0  0  0  0
  -88.6841   28.0954    0.1754 C   0  0  0  0  0  0  0  0  0  0  0  0
  -89.2109   26.7790    0.6647 C   0  0  0  0  0  0  0  0  0  0  0  0
  -88.1377   26.1260    1.4845 N   0  0  0  0  0  0  0  0  0  0  0  0
  -86.9476   27.0389    1.5018 C   0  0  0  0  0  0  0  0  0  0  0  0
  -85.6481   26.7802    2.2048 O   0  0  0  0  0  0  0  0  0  0  0  0
  -87.2852   28.2561    0.6928 C   0  0  0  0  0  0  0  0  0  0  0  0
  -86.4997   29.4900    0.3604 C   0  0  0  0  0  0  0  0  0  0  0  0
  -85.1250   29.9993    0.6775 C   0  0  0  0  0  0  0  0  0  0  0  0
  -83.9997   29.4177    1.4809 C   0  0  0  0  0  0  0  0  0  0  0  0
  -82.7124   30.1738    1.6258 C   0  0  0  0  0  0  0  0  0  0  0  0
  -82.5503   31.5116    0.9671 C   0  0  0  0  0  0  0  0  0  0  0  0
  -83.6756   32.0933    0.1636 C   0  0  0  0  0  0  0  0  0  0  0  0
  -84.9628   31.3371    0.0189 C   0  0  0  0  0  0  0  0  0  0  0  0
  -86.2375   31.6547   -0.7054 N   0  0  0  0  0  0  0  0  0  0  0  0
  -87.1873   30.5132   -0.4943 C   0  0  0  0  0  0  0  0  0  0  0  0
  -88.5861   30.3525   -1.0117 C   0  0  0  0  0  0  0  0  0  0  0  0
  -88.2371   24.7941    2.1670 H   0  0  0  0  0  0  0  0  0  0  0  0
  -87.3222   35.4003   -4.7430 C   0  0  0  0  0  0  0  0  0  0  0  0
  -88.2003   35.2860   -3.5323 N   0  0  0  0  0  0  0  0  0  0  0  0
  -88.6451   36.3556   -3.1657 H   0  0  0  0  0  0  0  0  0  0  0  0
 32 33  1  0  0  0
 33  1  1  0  0  0
  1  2  1  0  0  0
  2  3  1  0  0  0
  3  4  1  0  0  0
  4  5  1  0  0  0
  5  6  1  0  0  0
  5  7  1  0  0  0
  7  8  1  0  0  0
  8  9  2  0  0  0
  9 10  1  0  0  0
 10 11  2  0  0  0
 11 12  1  0  0  0
 12 13  2  0  0  0
 13 14  1  0  0  0
 14 15  2  0  0  0
 15 16  1  0  0  0
 16 17  1  0  0  0
 17 18  1  0  0  0
 18 19  2  0  0  0
 18 20  1  0  0  0
 20 21  2  0  0  0
 21 22  1  0  0  0
 22 23  2  0  0  0
 23 24  1  0  0  0
 24 25  2  0  0  0
 25 26  1  0  0  0
 26 27  2  0  0  0
 27 28  1  0  0  0
 28 29  1  0  0  0
 29 30  2  0  0  0
  5  1  1  0  0  0
 30  7  1  0  0  0
 28  3  1  0  0  0
 13  8  1  0  0  0
 30 14  1  0  0  0
 20 15  1  0  0  0
 29 21  1  0  0  0
 27 22  1  0  0  0
 33 34  1  0  0  0
 17 31  1  0  0  0
M  END
> <minimizedAffinity>
-11.22448

> <CNNscore>
0.4767045379

> <CNNaffinity>
7.0066041946

> <CNN_VS>
3.3400800228

> <CNNaffinity_variance>
0.1036304012

$$$$
[H]c1c([H])c([H])c2c(c1[H])c1c3c(c4c5c([H])c([H])c([H])c([H])c5n5c4c1n2[C@@]1([H])O[C@@]5(C([H])([H])[H])[C@@]([H])(N([H])C([H])([H])[H])C1([H])[H])C([H])([H])N([H])C3=O


 34 41  0  0  0  0  0  0  0  0999 V2000
  -91.0186   27.4394   -1.7503 C   0  0  0  0  0  0  0  0  0  0  0  0
  -90.1062   26.6971   -0.8195 C   0  0  0  0  0  0  0  0  0  0  0  0
  -88.9491   27.5935   -0.4917 C   0  0  0  0  0  0  0  0  0  0  0  0
  -89.1463   28.8899   -1.2200 O   0  0  0  0  0  0  0  0  0  0  0  0
  -90.4253   28.7947   -1.9979 C   0  0  0  0  0  0  0  0  0  0  0  0
  -91.0086   29.8665   -2.8701 C   0  0  0  0  0  0  0  0  0  0  0  0
  -89.7312   30.1140   -2.1639 N   0  0  0  0  0  0  0  0  0  0  0  0
  -90.2619   31.2250   -3.0206 C   0  0  0  0  0  0  0  0  0  0  0  0
  -91.4957   31.3386   -3.8662 C   0  0  0  0  0  0  0  0  0  0  0  0
  -91.7691   32.6016   -4.6280 C   0  0  0  0  0  0  0  0  0  0  0  0
  -90.8089   33.7508   -4.5441 C   0  0  0  0  0  0  0  0  0  0  0  0
  -89.5752   33.6372   -3.6984 C   0  0  0  0  0  0  0  0  0  0  0  0
  -89.3017   32.3743   -2.9367 C   0  0  0  0  0  0  0  0  0  0  0  0
  -88.1774   31.9736   -2.0282 C   0  0  0  0  0  0  0  0  0  0  0  0
  -86.8314   32.5521   -1.4315 C   0  0  0  0  0  0  0  0  0  0  0  0
  -86.2382   33.9073   -1.6790 C   0  0  0  0  0  0  0  0  0  0  0  0
  -84.9591   34.0026   -0.9012 N   0  0  0  0  0  0  0  0  0  0  0  0
  -84.7619   32.7062   -0.1729 C   0  0  0  0  0  0  0  0  0  0  0  0
  -83.6099   32.3659    0.7255 O   0  0  0  0  0  0  0  0  0  0  0  0
  -85.9191   31.8097   -0.5006 C   0  0  0  0  0  0  0  0  0  0  0  0
  -86.2598   30.4133   -0.0717 C   0  0  0  0  0  0  0  0  0  0  0  0
  -85.6252   29.3827    0.8143 C   0  0  0  0  0  0  0  0  0  0  0  0
  -84.3610   29.3943    1.6215 C   0  0  0  0  0  0  0  0  0  0  0  0
  -83.9751   28.1902    2.4283 C   0  0  0  0  0  0  0  0  0  0  0  0
  -84.8534   26.9743    2.4280 C   0  0  0  0  0  0  0  0  0  0  0  0
  -86.1178   26.9626    1.6208 C   0  0  0  0  0  0  0  0  0  0  0  0
  -86.5036   28.1668    0.8140 C   0  0  0  0  0  0  0  0  0  0  0  0
  -87.6811   28.4459   -0.0723 N   0  0  0  0  0  0  0  0  0  0  0  0
  -87.5305   29.8343   -0.6197 C   0  0  0  0  0  0  0  0  0  0  0  0
  -88.4428   30.5766   -1.5505 C   0  0  0  0  0  0  0  0  0  0  0  0
  -84.0389   35.1863   -0.8590 H   0  0  0  0  0  0  0  0  0  0  0  0
  -93.2906   26.2202   -2.0688 C   0  0  0  0  0  0  0  0  0  0  0  0
  -91.8384   26.1845   -1.6950 N   0  0  0  0  0  0  0  0  0  0  0  0
  -91.4595   25.0773   -1.3680 H   0  0  0  0  0  0  0  0  0  0  0  0
 32 33  1  0  0  0
 33  1  1  0  0  0
  1  2  1  0  0  0
  2  3  1  0  0  0
  3  4  1  0  0  0
  4  5  1  0  0  0
  5  6  1  0  0  0
  5  7  1  0  0  0
  7  8  1  0  0  0
  8  9  2  0  0  0
  9 10  1  0  0  0
 10 11  2  0  0  0
 11 12  1  0  0  0
 12 13  2  0  0  0
 13 14  1  0  0  0
 14 15  2  0  0  0
 15 16  1  0  0  0
 16 17  1  0  0  0
 17 18  1  0  0  0
 18 19  2  0  0  0
 18 20  1  0  0  0
 20 21  2  0  0  0
 21 22  1  0  0  0
 22 23  2  0  0  0
 23 24  1  0  0  0
 24 25  2  0  0  0
 25 26  1  0  0  0
 26 27  2  0  0  0
 27 28  1  0  0  0
 28 29  1  0  0  0
 29 30  2  0  0  0
  5  1  1  0  0  0
 30  7  1  0  0  0
 28  3  1  0  0  0
 13  8  1  0  0  0
 30 14  1  0  0  0
 20 15  1  0  0  0
 29 21  1  0  0  0
 27 22  1  0  0  0
 33 34  1  0  0  0
 17 31  1  0  0  0
M  END
> <minimizedAffinity>
-9.71912

> <CNNscore>
0.3266430199

> <CNNaffinity>
6.5492949486

> <CNN_VS>
2.1392815113

> <CNNaffinity_variance>
0.4168175757

$$$$
[H]c1c([H])c([H])c2c(c1[H])c1c3c(c4c5c([H])c([H])c([H])c([H])c5n5c4c1n2[C@@]1([H])O[C@@]5(C([H])([H])[H])[C@@]([H])(N([H])C([H])([H])[H])C1([H])[H])C([H])([H])N([H])C3=O


 34 41  0  0  0  0  0  0  0  0999 V2000
  -86.9320   34.1101   -2.4596 C   0  0  0  0  0  0  0  0  0  0  0  0
  -88.3319   33.9231   -2.9650 C   0  0  0  0  0  0  0  0  0  0  0  0
  -88.8588   32.6352   -2.4049 C   0  0  0  0  0  0  0  0  0  0  0  0
  -87.7845   32.0262   -1.5534 O   0  0  0  0  0  0  0  0  0  0  0  0
  -86.5938   32.9377   -1.5872 C   0  0  0  0  0  0  0  0  0  0  0  0
  -85.2931   32.7158   -0.8738 C   0  0  0  0  0  0  0  0  0  0  0  0
  -86.3789   31.7183   -0.7405 N   0  0  0  0  0  0  0  0  0  0  0  0
  -85.1031   31.4388   -0.0027 C   0  0  0  0  0  0  0  0  0  0  0  0
  -83.8150   32.2007    0.0990 C   0  0  0  0  0  0  0  0  0  0  0  0
  -82.6886   31.6619    0.9304 C   0  0  0  0  0  0  0  0  0  0  0  0
  -82.8505   30.3614    1.6600 C   0  0  0  0  0  0  0  0  0  0  0  0
  -84.1387   29.5996    1.5583 C   0  0  0  0  0  0  0  0  0  0  0  0
  -85.2650   30.1384    0.7270 C   0  0  0  0  0  0  0  0  0  0  0  0
  -86.6408   29.6140    0.4401 C   0  0  0  0  0  0  0  0  0  0  0  0
  -87.5690   28.3813    0.7882 C   0  0  0  0  0  0  0  0  0  0  0  0
  -87.2307   27.2089    1.6606 C   0  0  0  0  0  0  0  0  0  0  0  0
  -88.4215   26.2973    1.6944 N   0  0  0  0  0  0  0  0  0  0  0  0
  -89.4957   26.9063    0.8429 C   0  0  0  0  0  0  0  0  0  0  0  0
  -90.8577   26.3288    0.5949 O   0  0  0  0  0  0  0  0  0  0  0  0
  -88.9689   28.1943    0.2828 C   0  0  0  0  0  0  0  0  0  0  0  0
  -89.5830   29.2210   -0.6221 C   0  0  0  0  0  0  0  0  0  0  0  0
  -90.9059   29.3849   -1.3097 C   0  0  0  0  0  0  0  0  0  0  0  0
  -92.1391   28.5310   -1.3302 C   0  0  0  0  0  0  0  0  0  0  0  0
  -93.3359   28.9608   -2.1257 C   0  0  0  0  0  0  0  0  0  0  0  0
  -93.2997   30.2445   -2.9007 C   0  0  0  0  0  0  0  0  0  0  0  0
  -92.0666   31.0985   -2.8802 C   0  0  0  0  0  0  0  0  0  0  0  0
  -90.8698   30.6686   -2.0847 C   0  0  0  0  0  0  0  0  0  0  0  0
  -89.5243   31.2982   -1.8761 N   0  0  0  0  0  0  0  0  0  0  0  0
  -88.7291   30.4035   -0.9722 C   0  0  0  0  0  0  0  0  0  0  0  0
  -87.3292   30.5905   -0.4668 C   0  0  0  0  0  0  0  0  0  0  0  0
  -88.5207   25.0039    2.4474 H   0  0  0  0  0  0  0  0  0  0  0  0
  -87.3509   35.3316   -4.7140 C   0  0  0  0  0  0  0  0  0  0  0  0
  -86.9798   35.3769   -3.2614 N   0  0  0  0  0  0  0  0  0  0  0  0
  -86.7436   36.5015   -2.8666 H   0  0  0  0  0  0  0  0  0  0  0  0
 32 33  1  0  0  0
 33  1  1  0  0  0
  1  2  1  0  0  0
  2  3  1  0  0  0
  3  4  1  0  0  0
  4  5  1  0  0  0
  5  6  1  0  0  0
  5  7  1  0  0  0
  7  8  1  0  0  0
  8  9  2  0  0  0
  9 10  1  0  0  0
 10 11  2  0  0  0
 11 12  1  0  0  0
 12 13  2  0  0  0
 13 14  1  0  0  0
 14 15  2  0  0  0
 15 16  1  0  0  0
 16 17  1  0  0  0
 17 18  1  0  0  0
 18 19  2  0  0  0
 18 20  1  0  0  0
 20 21  2  0  0  0
 21 22  1  0  0  0
 22 23  2  0  0  0
 23 24  1  0  0  0
 24 25  2  0  0  0
 25 26  1  0  0  0
 26 27  2  0  0  0
 27 28  1  0  0  0
 28 29  1  0  0  0
 29 30  2  0  0  0
  5  1  1  0  0  0
 30  7  1  0  0  0
 28  3  1  0  0  0
 13  8  1  0  0  0
 30 14  1  0  0  0
 20 15  1  0  0  0
 29 21  1  0  0  0
 27 22  1  0  0  0
 33 34  1  0  0  0
 17 31  1  0  0  0
M  END
> <minimizedAffinity>
-11.04310

> <CNNscore>
0.2911890149

> <CNNaffinity>
6.6320524216

> <CNN_VS>
1.9311808348

> <CNNaffinity_variance>
0.1572256088

$$$$
[H]c1c([H])c([H])c2c(c1[H])c1c3c(c4c5c([H])c([H])c([H])c([H])c5n5c4c1n2[C@@]1([H])O[C@@]5(C([H])([H])[H])[C@@]([H])(N([H])C([H])([H])[H])C1([H])[H])C([H])([H])N([H])C3=O


 34 41  0  0  0  0  0  0  0  0999 V2000
  -91.1186   30.9593   -2.4805 C   0  0  0  0  0  0  0  0  0  0  0  0
  -90.1112   32.0656   -2.5869 C   0  0  0  0  0  0  0  0  0  0  0  0
  -88.8869   31.6526   -1.8249 C   0  0  0  0  0  0  0  0  0  0  0  0
  -89.1376   30.2911   -1.2475 O   0  0  0  0  0  0  0  0  0  0  0  0
  -90.5168   29.8626   -1.6527 C   0  0  0  0  0  0  0  0  0  0  0  0
  -91.1782   28.5651   -1.2932 C   0  0  0  0  0  0  0  0  0  0  0  0
  -89.8051   28.8426   -0.8142 N   0  0  0  0  0  0  0  0  0  0  0  0
  -90.4109   27.5279   -0.4209 C   0  0  0  0  0  0  0  0  0  0  0  0
  -91.7472   26.9116   -0.7115 C   0  0  0  0  0  0  0  0  0  0  0  0
  -92.0793   25.5519   -0.1719 C   0  0  0  0  0  0  0  0  0  0  0  0
  -91.0751   24.8087    0.6583 C   0  0  0  0  0  0  0  0  0  0  0  0
  -89.7388   25.4251    0.9488 C   0  0  0  0  0  0  0  0  0  0  0  0
  -89.4067   26.7847    0.4092 C   0  0  0  0  0  0  0  0  0  0  0  0
  -88.1803   27.6400    0.5290 C   0  0  0  0  0  0  0  0  0  0  0  0
  -86.7427   27.6183    1.1888 C   0  0  0  0  0  0  0  0  0  0  0  0
  -86.1410   26.5217    2.0165 C   0  0  0  0  0  0  0  0  0  0  0  0
  -84.7618   26.9501    2.4217 N   0  0  0  0  0  0  0  0  0  0  0  0
  -84.5111   28.3117    1.8444 C   0  0  0  0  0  0  0  0  0  0  0  0
  -83.2564   29.1186    2.0015 O   0  0  0  0  0  0  0  0  0  0  0  0
  -85.7354   28.7247    1.0824 C   0  0  0  0  0  0  0  0  0  0  0  0
  -86.0630   29.9652    0.3054 C   0  0  0  0  0  0  0  0  0  0  0  0
  -85.3474   31.2428   -0.0195 C   0  0  0  0  0  0  0  0  0  0  0  0
  -83.9817   31.7479    0.3407 C   0  0  0  0  0  0  0  0  0  0  0  0
  -83.5298   33.0954   -0.1387 C   0  0  0  0  0  0  0  0  0  0  0  0
  -84.4436   33.9379   -0.9784 C   0  0  0  0  0  0  0  0  0  0  0  0
  -85.8094   33.4329   -1.3387 C   0  0  0  0  0  0  0  0  0  0  0  0
  -86.2612   32.0854   -0.8592 C   0  0  0  0  0  0  0  0  0  0  0  0
  -87.5416   31.3284   -1.0533 N   0  0  0  0  0  0  0  0  0  0  0  0
  -87.4191   30.0182   -0.3335 C   0  0  0  0  0  0  0  0  0  0  0  0
  -88.4265   28.9119   -0.2271 C   0  0  0  0  0  0  0  0  0  0  0  0
  -83.8018   26.1565    3.2575 H   0  0  0  0  0  0  0  0  0  0  0  0
  -91.4503   32.3706   -4.6364 C   0  0  0  0  0  0  0  0  0  0  0  0
  -91.9679   31.8643   -3.3228 N   0  0  0  0  0  0  0  0  0  0  0  0
  -93.0860   32.2653   -3.0667 H   0  0  0  0  0  0  0  0  0  0  0  0
 32 33  1  0  0  0
 33  1  1  0  0  0
  1  2  1  0  0  0
  2  3  1  0  0  0
  3  4  1  0  0  0
  4  5  1  0  0  0
  5  6  1  0  0  0
  5  7  1  0  0  0
  7  8  1  0  0  0
  8  9  2  0  0  0
  9 10  1  0  0  0
 10 11  2  0  0  0
 11 12  1  0  0  0
 12 13  2  0  0  0
 13 14  1  0  0  0
 14 15  2  0  0  0
 15 16  1  0  0  0
 16 17  1  0  0  0
 17 18  1  0  0  0
 18 19  2  0  0  0
 18 20  1  0  0  0
 20 21  2  0  0  0
 21 22  1  0  0  0
 22 23  2  0  0  0
 23 24  1  0  0  0
 24 25  2  0  0  0
 25 26  1  0  0  0
 26 27  2  0  0  0
 27 28  1  0  0  0
 28 29  1  0  0  0
 29 30  2  0  0  0
  5  1  1  0  0  0
 30  7  1  0  0  0
 28  3  1  0  0  0
 13  8  1  0  0  0
 30 14  1  0  0  0
 20 15  1  0  0  0
 29 21  1  0  0  0
 27 22  1  0  0  0
 33 34  1  0  0  0
 17 31  1  0  0  0
M  END
> <minimizedAffinity>
-9.85186

> <CNNscore>
0.2255624384

> <CNNaffinity>
6.4696540833

> <CNN_VS>
1.4593110085

> <CNNaffinity_variance>
0.2011303157

$$$$
[H]c1c([H])c([H])c2c(c1[H])c1c3c(c4c5c([H])c([H])c([H])c([H])c5n5c4c1n2[C@@]1([H])O[C@@]5(C([H])([H])[H])[C@@]([H])(N([H])C([H])([H])[H])C1([H])[H])C([H])([H])N([H])C3=O


 34 41  0  0  0  0  0  0  0  0999 V2000
  -89.4803   26.2522    1.0905 C   0  0  0  0  0  0  0  0  0  0  0  0
  -88.0898   26.2204    1.6521 C   0  0  0  0  0  0  0  0  0  0  0  0
  -87.3839   27.4690    1.2132 C   0  0  0  0  0  0  0  0  0  0  0  0
  -88.3382   28.2726    0.3804 O   0  0  0  0  0  0  0  0  0  0  0  0
  -89.6338   27.5205    0.3045 C   0  0  0  0  0  0  0  0  0  0  0  0
  -90.8666   27.9598   -0.4286 C   0  0  0  0  0  0  0  0  0  0  0  0
  -89.6602   28.8177   -0.4482 N   0  0  0  0  0  0  0  0  0  0  0  0
  -90.8600   29.3126   -1.2003 C   0  0  0  0  0  0  0  0  0  0  0  0
  -92.2279   28.7312   -1.4021 C   0  0  0  0  0  0  0  0  0  0  0  0
  -93.2435   29.4705   -2.2221 C   0  0  0  0  0  0  0  0  0  0  0  0
  -92.8911   30.7909   -2.8401 C   0  0  0  0  0  0  0  0  0  0  0  0
  -91.5230   31.3722   -2.6382 C   0  0  0  0  0  0  0  0  0  0  0  0
  -90.5075   30.6330   -1.8183 C   0  0  0  0  0  0  0  0  0  0  0  0
  -89.0899   30.9544   -1.4483 C   0  0  0  0  0  0  0  0  0  0  0  0
  -88.0016   32.0813   -1.6679 C   0  0  0  0  0  0  0  0  0  0  0  0
  -88.1551   33.3496   -2.4539 C   0  0  0  0  0  0  0  0  0  0  0  0
  -86.8595   34.1017   -2.3780 N   0  0  0  0  0  0  0  0  0  0  0  0
  -85.9052   33.2981   -1.5452 C   0  0  0  0  0  0  0  0  0  0  0  0
  -84.4930   33.6767   -1.2100 O   0  0  0  0  0  0  0  0  0  0  0  0
  -86.6110   32.0494   -1.1063 C   0  0  0  0  0  0  0  0  0  0  0  0
  -86.1672   30.8875   -0.2679 C   0  0  0  0  0  0  0  0  0  0  0  0
  -84.9042   30.5047    0.4448 C   0  0  0  0  0  0  0  0  0  0  0  0
  -83.5760   31.1902    0.5715 C   0  0  0  0  0  0  0  0  0  0  0  0
  -82.4755   30.5525    1.3666 C   0  0  0  0  0  0  0  0  0  0  0  0
  -82.7032   29.2291    2.0350 C   0  0  0  0  0  0  0  0  0  0  0  0
  -84.0314   28.5435    1.9084 C   0  0  0  0  0  0  0  0  0  0  0  0
  -85.1318   29.1813    1.1133 C   0  0  0  0  0  0  0  0  0  0  0  0
  -86.5357   28.7462    0.8137 N   0  0  0  0  0  0  0  0  0  0  0  0
  -87.1756   29.8006   -0.0399 C   0  0  0  0  0  0  0  0  0  0  0  0
  -88.5662   29.8325   -0.6015 C   0  0  0  0  0  0  0  0  0  0  0  0
  -86.5691   35.4249   -3.0219 H   0  0  0  0  0  0  0  0  0  0  0  0
  -90.3460   24.8540    3.1018 C   0  0  0  0  0  0  0  0  0  0  0  0
  -89.6237   24.9328    1.7895 N   0  0  0  0  0  0  0  0  0  0  0  0
  -89.2077   23.8558    1.4112 H   0  0  0  0  0  0  0  0  0  0  0  0
 32 33  1  0  0  0
 33  1  1  0  0  0
  1  2  1  0  0  0
  2  3  1  0  0  0
  3  4  1  0  0  0
  4  5  1  0  0  0
  5  6  1  0  0  0
  5  7  1  0  0  0
  7  8  1  0  0  0
  8  9  2  0  0  0
  9 10  1  0  0  0
 10 11  2  0  0  0
 11 12  1  0  0  0
 12 13  2  0  0  0
 13 14  1  0  0  0
 14 15  2  0  0  0
 15 16  1  0  0  0
 16 17  1  0  0  0
 17 18  1  0  0  0
 18 19  2  0  0  0
 18 20  1  0  0  0
 20 21  2  0  0  0
 21 22  1  0  0  0
 22 23  2  0  0  0
 23 24  1  0  0  0
 24 25  2  0  0  0
 25 26  1  0  0  0
 26 27  2  0  0  0
 27 28  1  0  0  0
 28 29  1  0  0  0
 29 30  2  0  0  0
  5  1  1  0  0  0
 30  7  1  0  0  0
 28  3  1  0  0  0
 13  8  1  0  0  0
 30 14  1  0  0  0
 20 15  1  0  0  0
 29 21  1  0  0  0
 27 22  1  0  0  0
 33 34  1  0  0  0
 17 31  1  0  0  0
M  END
> <minimizedAffinity>
-11.41848

> <CNNscore>
0.2030154616

> <CNNaffinity>
6.4950356483

> <CNN_VS>
1.3185926676

> <CNNaffinity_variance>
0.1314988434

$$$$
[H]c1c([H])c([H])c2c(c1[H])c1c3c(c4c5c([H])c([H])c([H])c([H])c5n5c4c1n2[C@@]1([H])O[C@@]5(C([H])([H])[H])[C@@]([H])(N([H])C([H])([H])[H])C1([H])[H])C([H])([H])N([H])C3=O


 34 41  0  0  0  0  0  0  0  0999 V2000
  -89.1116   25.3947   -0.6325 C   0  0  0  0  0  0  0  0  0  0  0  0
  -87.8867   25.5694    0.2154 C   0  0  0  0  0  0  0  0  0  0  0  0
  -87.4432   26.9978    0.1005 C   0  0  0  0  0  0  0  0  0  0  0  0
  -88.3942   27.7059   -0.8183 O   0  0  0  0  0  0  0  0  0  0  0  0
  -89.4253   26.7151   -1.2714 C   0  0  0  0  0  0  0  0  0  0  0  0
  -90.5692   26.9955   -2.2002 C   0  0  0  0  0  0  0  0  0  0  0  0
  -89.6314   28.0851   -1.8464 N   0  0  0  0  0  0  0  0  0  0  0  0
  -90.7543   28.4294   -2.7795 C   0  0  0  0  0  0  0  0  0  0  0  0
  -91.8729   27.6086   -3.3494 C   0  0  0  0  0  0  0  0  0  0  0  0
  -92.8686   28.2394   -4.2774 C   0  0  0  0  0  0  0  0  0  0  0  0
  -92.7455   29.6908   -4.6352 C   0  0  0  0  0  0  0  0  0  0  0  0
  -91.6268   30.5115   -4.0651 C   0  0  0  0  0  0  0  0  0  0  0  0
  -90.6312   29.8808   -3.1373 C   0  0  0  0  0  0  0  0  0  0  0  0
  -89.4322   30.4337   -2.4254 C   0  0  0  0  0  0  0  0  0  0  0  0
  -88.6360   31.7903   -2.2583 C   0  0  0  0  0  0  0  0  0  0  0  0
  -88.9496   33.1107   -2.8972 C   0  0  0  0  0  0  0  0  0  0  0  0
  -87.9185   34.1015   -2.4442 N   0  0  0  0  0  0  0  0  0  0  0  0
  -86.9676   33.3934   -1.5253 C   0  0  0  0  0  0  0  0  0  0  0  0
  -85.7815   34.0061   -0.8414 O   0  0  0  0  0  0  0  0  0  0  0  0
  -87.4110   31.9650   -1.4104 C   0  0  0  0  0  0  0  0  0  0  0  0
  -86.8575   30.8008   -0.6433 C   0  0  0  0  0  0  0  0  0  0  0  0
  -85.6949   30.5848    0.2794 C   0  0  0  0  0  0  0  0  0  0  0  0
  -84.6258   31.5099    0.7807 C   0  0  0  0  0  0  0  0  0  0  0  0
  -83.5700   30.9993    1.7158 C   0  0  0  0  0  0  0  0  0  0  0  0
  -83.5832   29.5636    2.1497 C   0  0  0  0  0  0  0  0  0  0  0  0
  -84.6522   28.6383    1.6485 C   0  0  0  0  0  0  0  0  0  0  0  0
  -85.7080   29.1490    0.7134 C   0  0  0  0  0  0  0  0  0  0  0  0
  -86.8789   28.4776    0.0588 N   0  0  0  0  0  0  0  0  0  0  0  0
  -87.5893   29.4986   -0.7797 C   0  0  0  0  0  0  0  0  0  0  0  0
  -88.8143   29.3238   -1.6275 C   0  0  0  0  0  0  0  0  0  0  0  0
  -87.8503   35.5465   -2.8404 H   0  0  0  0  0  0  0  0  0  0  0  0
  -90.0607   22.9762   -0.6315 C   0  0  0  0  0  0  0  0  0  0  0  0
  -89.0514   23.9758   -0.1497 N   0  0  0  0  0  0  0  0  0  0  0  0
  -88.2456   23.5008    0.6258 H   0  0  0  0  0  0  0  0  0  0  0  0
 32 33  1  0  0  0
 33  1  1  0  0  0
  1  2  1  0  0  0
  2  3  1  0  0  0
  3  4  1  0  0  0
  4  5  1  0  0  0
  5  6  1  0  0  0
  5  7  1  0  0  0
  7  8  1  0  0  0
  8  9  2  0  0  0
  9 10  1  0  0  0
 10 11  2  0  0  0
 11 12  1  0  0  0
 12 13  2  0  0  0
 13 14  1  0  0  0
 14 15  2  0  0  0
 15 16  1  0  0  0
 16 17  1  0  0  0
 17 18  1  0  0  0
 18 19  2  0  0  0
 18 20  1  0  0  0
 20 21  2  0  0  0
 21 22  1  0  0  0
 22 23  2  0  0  0
 23 24  1  0  0  0
 24 25  2  0  0  0
 25 26  1  0  0  0
 26 27  2  0  0  0
 27 28  1  0  0  0
 28 29  1  0  0  0
 29 30  2  0  0  0
  5  1  1  0  0  0
 30  7  1  0  0  0
 28  3  1  0  0  0
 13  8  1  0  0  0
 30 14  1  0  0  0
 20 15  1  0  0  0
 29 21  1  0  0  0
 27 22  1  0  0  0
 33 34  1  0  0  0
 17 31  1  0  0  0
M  END
> <minimizedAffinity>
-10.93915

> <CNNscore>
0.1765088886

> <CNNaffinity>
6.2474737167

> <CNN_VS>
1.1027346849

> <CNNaffinity_variance>
0.2577928901

$$$$
[H]c1c([H])c([H])c2c(c1[H])c1c3c(c4c5c([H])c([H])c([H])c([H])c5n5c4c1n2[C@@]1([H])O[C@@]5(C([H])([H])[H])[C@@]([H])(N([H])C([H])([H])[H])C1([H])[H])C([H])([H])N([H])C3=O


 34 41  0  0  0  0  0  0  0  0999 V2000
  -88.5582   26.3208    1.8375 C   0  0  0  0  0  0  0  0  0  0  0  0
  -89.9117   26.4560    1.2054 C   0  0  0  0  0  0  0  0  0  0  0  0
  -89.9135   27.7063    0.3766 C   0  0  0  0  0  0  0  0  0  0  0  0
  -88.5611   28.3438    0.4966 O   0  0  0  0  0  0  0  0  0  0  0  0
  -87.7234   27.4876    1.3995 C   0  0  0  0  0  0  0  0  0  0  0  0
  -86.3008   27.7517    1.7949 C   0  0  0  0  0  0  0  0  0  0  0  0
  -86.9953   28.6963    0.8909 N   0  0  0  0  0  0  0  0  0  0  0  0
  -85.5742   29.0163    1.2487 C   0  0  0  0  0  0  0  0  0  0  0  0
  -84.5746   28.3110    2.1166 C   0  0  0  0  0  0  0  0  0  0  0  0
  -83.1981   28.8812    2.2908 C   0  0  0  0  0  0  0  0  0  0  0  0
  -82.8213   30.1566    1.5972 C   0  0  0  0  0  0  0  0  0  0  0  0
  -83.8210   30.8619    0.7293 C   0  0  0  0  0  0  0  0  0  0  0  0
  -85.1974   30.2918    0.5551 C   0  0  0  0  0  0  0  0  0  0  0  0
  -86.3857   30.7601   -0.2315 C   0  0  0  0  0  0  0  0  0  0  0  0
  -86.8209   31.9419   -1.1887 C   0  0  0  0  0  0  0  0  0  0  0  0
  -85.9862   33.1087   -1.6268 C   0  0  0  0  0  0  0  0  0  0  0  0
  -86.8238   33.9649   -2.5297 N   0  0  0  0  0  0  0  0  0  0  0  0
  -88.1762   33.3274   -2.6497 C   0  0  0  0  0  0  0  0  0  0  0  0
  -89.3282   33.8486   -3.4567 O   0  0  0  0  0  0  0  0  0  0  0  0
  -88.1745   32.0771   -1.8209 C   0  0  0  0  0  0  0  0  0  0  0  0
  -89.2305   31.0442   -1.5602 C   0  0  0  0  0  0  0  0  0  0  0  0
  -90.6517   30.8364   -1.9924 C   0  0  0  0  0  0  0  0  0  0  0  0
  -91.5567   31.6343   -2.8837 C   0  0  0  0  0  0  0  0  0  0  0  0
  -92.9598   31.1690   -3.1381 C   0  0  0  0  0  0  0  0  0  0  0  0
  -93.4580   29.9057   -2.5011 C   0  0  0  0  0  0  0  0  0  0  0  0
  -92.5531   29.1077   -1.6098 C   0  0  0  0  0  0  0  0  0  0  0  0
  -91.1500   29.5731   -1.3555 C   0  0  0  0  0  0  0  0  0  0  0  0
  -90.0366   29.0000   -0.5296 N   0  0  0  0  0  0  0  0  0  0  0  0
  -88.8504   29.9092   -0.6562 C   0  0  0  0  0  0  0  0  0  0  0  0
  -87.4968   29.7741   -0.0240 C   0  0  0  0  0  0  0  0  0  0  0  0
  -86.3859   35.2356   -3.1956 H   0  0  0  0  0  0  0  0  0  0  0  0
  -89.4813   25.0268    3.8926 C   0  0  0  0  0  0  0  0  0  0  0  0
  -89.1352   25.0712    2.4338 N   0  0  0  0  0  0  0  0  0  0  0  0
  -89.3735   24.0285    1.8574 H   0  0  0  0  0  0  0  0  0  0  0  0
 32 33  1  0  0  0
 33  1  1  0  0  0
  1  2  1  0  0  0
  2  3  1  0  0  0
  3  4  1  0  0  0
  4  5  1  0  0  0
  5  6  1  0  0  0
  5  7  1  0  0  0
  7  8  1  0  0  0
  8  9  2  0  0  0
  9 10  1  0  0  0
 10 11  2  0  0  0
 11 12  1  0  0  0
 12 13  2  0  0  0
 13 14  1  0  0  0
 14 15  2  0  0  0
 15 16  1  0  0  0
 16 17  1  0  0  0
 17 18  1  0  0  0
 18 19  2  0  0  0
 18 20  1  0  0  0
 20 21  2  0  0  0
 21 22  1  0  0  0
 22 23  2  0  0  0
 23 24  1  0  0  0
 24 25  2  0  0  0
 25 26  1  0  0  0
 26 27  2  0  0  0
 27 28  1  0  0  0
 28 29  1  0  0  0
 29 30  2  0  0  0
  5  1  1  0  0  0
 30  7  1  0  0  0
 28  3  1  0  0  0
 13  8  1  0  0  0
 30 14  1  0  0  0
 20 15  1  0  0  0
 29 21  1  0  0  0
 27 22  1  0  0  0
 33 34  1  0  0  0
 17 31  1  0  0  0
M  END
> <minimizedAffinity>
-11.39408

> <CNNscore>
0.1607008576

> <CNNaffinity>
6.3520808220

> <CNN_VS>
1.0207848549

> <CNNaffinity_variance>
0.1805206835

$$$$
[H]c1c([H])c([H])c2c(c1[H])c1c3c(c4c5c([H])c([H])c([H])c([H])c5n5c4c1n2[C@@]1([H])O[C@@]5(C([H])([H])[H])[C@@]([H])(N([H])C([H])([H])[H])C1([H])[H])C([H])([H])N([H])C3=O


 34 41  0  0  0  0  0  0  0  0999 V2000
  -88.5387   25.5851   -0.0662 C   0  0  0  0  0  0  0  0  0  0  0  0
  -89.6959   25.7463   -1.0069 C   0  0  0  0  0  0  0  0  0  0  0  0
  -89.6761   27.1521   -1.5296 C   0  0  0  0  0  0  0  0  0  0  0  0
  -88.5065   27.8598   -0.9120 O   0  0  0  0  0  0  0  0  0  0  0  0
  -87.8036   26.8913   -0.0076 C   0  0  0  0  0  0  0  0  0  0  0  0
  -86.5804   27.1787    0.8117 C   0  0  0  0  0  0  0  0  0  0  0  0
  -87.1592   28.2455   -0.0361 N   0  0  0  0  0  0  0  0  0  0  0  0
  -85.9363   28.5957    0.7588 C   0  0  0  0  0  0  0  0  0  0  0  0
  -85.0920   27.7958    1.7061 C   0  0  0  0  0  0  0  0  0  0  0  0
  -83.9031   28.4276    2.3675 C   0  0  0  0  0  0  0  0  0  0  0  0
  -83.5585   29.8591    2.0816 C   0  0  0  0  0  0  0  0  0  0  0  0
  -84.4028   30.6590    1.1343 C   0  0  0  0  0  0  0  0  0  0  0  0
  -85.5917   30.0272    0.4729 C   0  0  0  0  0  0  0  0  0  0  0  0
  -86.6016   30.5620   -0.4988 C   0  0  0  0  0  0  0  0  0  0  0  0
  -86.9542   31.8937   -1.2761 C   0  0  0  0  0  0  0  0  0  0  0  0
  -86.2191   33.1999   -1.2175 C   0  0  0  0  0  0  0  0  0  0  0  0
  -86.9220   34.1684   -2.1220 N   0  0  0  0  0  0  0  0  0  0  0  0
  -88.0916   33.4608   -2.7396 C   0  0  0  0  0  0  0  0  0  0  0  0
  -89.0695   34.0546   -3.7096 O   0  0  0  0  0  0  0  0  0  0  0  0
  -88.1115   32.0549   -2.2169 C   0  0  0  0  0  0  0  0  0  0  0  0
  -89.0338   30.9007   -2.4759 C   0  0  0  0  0  0  0  0  0  0  0  0
  -90.2549   30.6767   -3.3177 C   0  0  0  0  0  0  0  0  0  0  0  0
  -91.0165   31.5801   -4.2418 C   0  0  0  0  0  0  0  0  0  0  0  0
  -92.2264   31.0664   -4.9644 C   0  0  0  0  0  0  0  0  0  0  0  0
  -92.6749   29.6493   -4.7628 C   0  0  0  0  0  0  0  0  0  0  0  0
  -91.9133   28.7458   -3.8387 C   0  0  0  0  0  0  0  0  0  0  0  0
  -90.7034   29.2596   -3.1162 C   0  0  0  0  0  0  0  0  0  0  0  0
  -89.7594   28.6077   -2.1498 N   0  0  0  0  0  0  0  0  0  0  0  0
  -88.7276   29.6220   -1.7541 C   0  0  0  0  0  0  0  0  0  0  0  0
  -87.5704   29.4608   -0.8134 C   0  0  0  0  0  0  0  0  0  0  0  0
  -86.5252   35.5942   -2.3660 H   0  0  0  0  0  0  0  0  0  0  0  0
  -90.5281   23.9154    0.0001 C   0  0  0  0  0  0  0  0  0  0  0  0
  -89.0544   24.1840    0.0781 N   0  0  0  0  0  0  0  0  0  0  0  0
  -88.3976   23.1782    0.2607 H   0  0  0  0  0  0  0  0  0  0  0  0
 32 33  1  0  0  0
 33  1  1  0  0  0
  1  2  1  0  0  0
  2  3  1  0  0  0
  3  4  1  0  0  0
  4  5  1  0  0  0
  5  6  1  0  0  0
  5  7  1  0  0  0
  7  8  1  0  0  0
  8  9  2  0  0  0
  9 10  1  0  0  0
 10 11  2  0  0  0
 11 12  1  0  0  0
 12 13  2  0  0  0
 13 14  1  0  0  0
 14 15  2  0  0  0
 15 16  1  0  0  0
 16 17  1  0  0  0
 17 18  1  0  0  0
 18 19  2  0  0  0
 18 20  1  0  0  0
 20 21  2  0  0  0
 21 22  1  0  0  0
 22 23  2  0  0  0
 23 24  1  0  0  0
 24 25  2  0  0  0
 25 26  1  0  0  0
 26 27  2  0  0  0
 27 28  1  0  0  0
 28 29  1  0  0  0
 29 30  2  0  0  0
  5  1  1  0  0  0
 30  7  1  0  0  0
 28  3  1  0  0  0
 13  8  1  0  0  0
 30 14  1  0  0  0
 20 15  1  0  0  0
 29 21  1  0  0  0
 27 22  1  0  0  0
 33 34  1  0  0  0
 17 31  1  0  0  0
M  END
> <minimizedAffinity>
-10.62120

> <CNNscore>
0.1333734095

> <CNNaffinity>
6.2426986694

> <CNN_VS>
0.8326100111

> <CNNaffinity_variance>
0.2704806328

$$$$
[H]c1nc([H])c2sc(C(=O)N([H])C([H])([H])[H])c([H])c2c1Oc1c([H])c([H])c(N([H])C(=O)C2(C(=O)N([H])c3c([H])c([H])c(F)c([H])c3[H])C([H])([H])C2([H])[H])c([H])c1[H]


 39 43  0  0  0  0  0  0  0  0999 V2000
  -87.7863   30.7009   -0.8129 C   0  0  0  0  0  0  0  0  0  0  0  0
  -87.5145   29.9220   -1.8845 C   0  0  0  0  0  0  0  0  0  0  0  0
  -88.0372   28.6551   -2.0776 C   0  0  0  0  0  0  0  0  0  0  0  0
  -88.8864   28.1615   -1.1190 C   0  0  0  0  0  0  0  0  0  0  0  0
  -89.2117   28.8894   -0.0090 C   0  0  0  0  0  0  0  0  0  0  0  0
  -88.6505   30.1770    0.1411 C   0  0  0  0  0  0  0  0  0  0  0  0
  -89.3868   26.8186   -1.2710 N   0  0  0  0  0  0  0  0  0  0  0  0
  -90.7224   26.4450   -1.3064 C   0  0  0  0  0  0  0  0  0  0  0  0
  -91.5843   27.4100   -1.2304 O   0  0  0  0  0  0  0  0  0  0  0  0
  -88.6370   26.0617   -1.3741 H   0  0  0  0  0  0  0  0  0  0  0  0
  -91.3192   25.0896   -1.4165 C   0  0  0  0  0  0  0  0  0  0  0  0
  -92.7530   25.0124   -1.8445 C   0  0  0  0  0  0  0  0  0  0  0  0
  -91.7105   24.7185   -2.8371 C   0  0  0  0  0  0  0  0  0  0  0  0
  -90.8955   24.0397   -0.4745 C   0  0  0  0  0  0  0  0  0  0  0  0
  -89.6978   23.6267   -0.5631 O   0  0  0  0  0  0  0  0  0  0  0  0
  -91.7197   23.4734    0.5040 N   0  0  0  0  0  0  0  0  0  0  0  0
  -92.7371   23.7501    0.6410 H   0  0  0  0  0  0  0  0  0  0  0  0
  -91.2435   22.4703    1.4012 C   0  0  0  0  0  0  0  0  0  0  0  0
  -90.6568   22.7293    2.6021 C   0  0  0  0  0  0  0  0  0  0  0  0
  -90.1700   21.7217    3.4002 C   0  0  0  0  0  0  0  0  0  0  0  0
  -90.2502   20.4175    3.0342 C   0  0  0  0  0  0  0  0  0  0  0  0
  -89.7708   19.4313    3.8209 F   0  0  0  0  0  0  0  0  0  0  0  0
  -90.8502   20.1150    1.8003 C   0  0  0  0  0  0  0  0  0  0  0  0
  -91.3274   21.1329    1.0238 C   0  0  0  0  0  0  0  0  0  0  0  0
  -87.2685   31.9664   -0.6018 O   0  0  0  0  0  0  0  0  0  0  0  0
  -84.5595   29.3413    1.5118 C   0  0  0  0  0  0  0  0  0  0  0  0
  -85.5041   30.0911    0.8768 C   0  0  0  0  0  0  0  0  0  0  0  0
  -85.0901   31.2202    0.2594 C   0  0  0  0  0  0  0  0  0  0  0  0
  -85.8733   32.1299   -0.4454 C   0  0  0  0  0  0  0  0  0  0  0  0
  -85.2874   33.2507   -1.0279 C   0  0  0  0  0  0  0  0  0  0  0  0
  -83.9765   33.4979   -0.9366 N   0  0  0  0  0  0  0  0  0  0  0  0
  -83.1889   32.6505   -0.2697 C   0  0  0  0  0  0  0  0  0  0  0  0
  -83.7533   31.5052    0.3309 C   0  0  0  0  0  0  0  0  0  0  0  0
  -83.1225   30.2137    1.2415 S   0  0  0  0  0  0  0  0  0  0  0  0
  -86.8887   26.4884    1.6679 C   0  0  0  0  0  0  0  0  0  0  0  0
  -85.8288   27.2611    1.9683 N   0  0  0  0  0  0  0  0  0  0  0  0
  -84.7378   28.0564    2.2776 C   0  0  0  0  0  0  0  0  0  0  0  0
  -83.8562   27.8143    3.1529 O   0  0  0  0  0  0  0  0  0  0  0  0
  -85.4795   26.4212    2.9804 H   0  0  0  0  0  0  0  0  0  0  0  0
 35 36  1  0  0  0
 36 37  1  0  0  0
 37 38  2  0  0  0
 37 26  1  0  0  0
 26 27  2  0  0  0
 27 28  1  0  0  0
 28 29  2  0  0  0
 29 25  1  0  0  0
 25  1  1  0  0  0
  1  2  2  0  0  0
  2  3  1  0  0  0
  3  4  2  0  0  0
  4  7  1  0  0  0
  7  8  1  0  0  0
  8  9  2  0  0  0
  8 11  1  0  0  0
 11 12  1  0  0  0
 12 13  1  0  0  0
 11 14  1  0  0  0
 14 15  2  0  0  0
 14 16  1  0  0  0
 16 18  1  0  0  0
 18 19  2  0  0  0
 19 20  1  0  0  0
 20 21  2  0  0  0
 21 22  1  0  0  0
 21 23  1  0  0  0
 23 24  2  0  0  0
  4  5  1  0  0  0
  5  6  2  0  0  0
 29 30  1  0  0  0
 30 31  2  0  0  0
 31 32  1  0  0  0
 32 33  2  0  0  0
 33 34  1  0  0  0
 34 26  1  0  0  0
 33 28  1  0  0  0
  6  1  1  0  0  0
 13 11  1  0  0  0
 24 18  1  0  0  0
 36 39  1  0  0  0
  7 10  1  0  0  0
 16 17  1  0  0  0
M  END
> <minimizedAffinity>
-9.08996

> <CNNscore>
0.1750064343

> <CNNaffinity>
6.7627129555

> <CNN_VS>
1.1835182905

> <CNNaffinity_variance>
0.2304613888

$$$$
[H]c1nc([H])c2sc(C(=O)N([H])C([H])([H])[H])c([H])c2c1Oc1c([H])c([H])c(N([H])C(=O)C2(C(=O)N([H])c3c([H])c([H])c(F)c([H])c3[H])C([H])([H])C2([H])[H])c([H])c1[H]


 39 43  0  0  0  0  0  0  0  0999 V2000
  -87.3112   32.4713   -1.2938 C   0  0  0  0  0  0  0  0  0  0  0  0
  -87.1596   32.0535   -2.5711 C   0  0  0  0  0  0  0  0  0  0  0  0
  -88.1944   31.5938   -3.3669 C   0  0  0  0  0  0  0  0  0  0  0  0
  -89.4538   31.5624   -2.8222 C   0  0  0  0  0  0  0  0  0  0  0  0
  -89.6879   31.9706   -1.5391 C   0  0  0  0  0  0  0  0  0  0  0  0
  -88.5971   32.4305   -0.7684 C   0  0  0  0  0  0  0  0  0  0  0  0
  -90.5310   31.0242   -3.6139 N   0  0  0  0  0  0  0  0  0  0  0  0
  -91.4513   31.7597   -4.3465 C   0  0  0  0  0  0  0  0  0  0  0  0
  -91.2894   33.0456   -4.3342 O   0  0  0  0  0  0  0  0  0  0  0  0
  -90.5966   29.9559   -3.6280 H   0  0  0  0  0  0  0  0  0  0  0  0
  -92.6089   31.2895   -5.1490 C   0  0  0  0  0  0  0  0  0  0  0  0
  -93.8524   32.1239   -5.0998 C   0  0  0  0  0  0  0  0  0  0  0  0
  -92.9820   32.2357   -6.2780 C   0  0  0  0  0  0  0  0  0  0  0  0
  -92.8383   29.8424   -5.2990 C   0  0  0  0  0  0  0  0  0  0  0  0
  -91.8145   29.0927   -5.3494 O   0  0  0  0  0  0  0  0  0  0  0  0
  -94.1004   29.2452   -5.3877 N   0  0  0  0  0  0  0  0  0  0  0  0
  -95.0093   29.7965   -5.3663 H   0  0  0  0  0  0  0  0  0  0  0  0
  -94.2574   27.8318   -5.5136 C   0  0  0  0  0  0  0  0  0  0  0  0
  -94.3013   27.1664   -6.7005 C   0  0  0  0  0  0  0  0  0  0  0  0
  -94.5075   25.8087   -6.7599 C   0  0  0  0  0  0  0  0  0  0  0  0
  -94.6759   25.0613   -5.6400 C   0  0  0  0  0  0  0  0  0  0  0  0
  -94.8783   23.7285   -5.7029 F   0  0  0  0  0  0  0  0  0  0  0  0
  -94.6362   25.7169   -4.3980 C   0  0  0  0  0  0  0  0  0  0  0  0
  -94.4295   27.0671   -4.3632 C   0  0  0  0  0  0  0  0  0  0  0  0
  -86.2874   32.9284   -0.4832 O   0  0  0  0  0  0  0  0  0  0  0  0
  -87.0543   28.8584    0.7595 C   0  0  0  0  0  0  0  0  0  0  0  0
  -86.9323   30.1491    0.3389 C   0  0  0  0  0  0  0  0  0  0  0  0
  -85.7065   30.7140    0.4132 C   0  0  0  0  0  0  0  0  0  0  0  0
  -85.3520   32.0079    0.0416 C   0  0  0  0  0  0  0  0  0  0  0  0
  -84.0350   32.4378    0.1811 C   0  0  0  0  0  0  0  0  0  0  0  0
  -83.0748   31.6452    0.6688 N   0  0  0  0  0  0  0  0  0  0  0  0
  -83.3719   30.3965    1.0370 C   0  0  0  0  0  0  0  0  0  0  0  0
  -84.6978   29.9316    0.9068 C   0  0  0  0  0  0  0  0  0  0  0  0
  -85.4736   28.4562    1.2479 S   0  0  0  0  0  0  0  0  0  0  0  0
  -88.5324   26.1942    2.8346 C   0  0  0  0  0  0  0  0  0  0  0  0
  -88.4117   27.0811    1.8299 N   0  0  0  0  0  0  0  0  0  0  0  0
  -88.2876   27.9940    0.7957 C   0  0  0  0  0  0  0  0  0  0  0  0
  -89.1165   28.1839   -0.1418 O   0  0  0  0  0  0  0  0  0  0  0  0
  -89.5593   26.6215    1.2611 H   0  0  0  0  0  0  0  0  0  0  0  0
 35 36  1  0  0  0
 36 37  1  0  0  0
 37 38  2  0  0  0
 37 26  1  0  0  0
 26 27  2  0  0  0
 27 28  1  0  0  0
 28 29  2  0  0  0
 29 25  1  0  0  0
 25  1  1  0  0  0
  1  2  2  0  0  0
  2  3  1  0  0  0
  3  4  2  0  0  0
  4  7  1  0  0  0
  7  8  1  0  0  0
  8  9  2  0  0  0
  8 11  1  0  0  0
 11 12  1  0  0  0
 12 13  1  0  0  0
 11 14  1  0  0  0
 14 15  2  0  0  0
 14 16  1  0  0  0
 16 18  1  0  0  0
 18 19  2  0  0  0
 19 20  1  0  0  0
 20 21  2  0  0  0
 21 22  1  0  0  0
 21 23  1  0  0  0
 23 24  2  0  0  0
  4  5  1  0  0  0
  5  6  2  0  0  0
 29 30  1  0  0  0
 30 31  2  0  0  0
 31 32  1  0  0  0
 32 33  2  0  0  0
 33 34  1  0  0  0
 34 26  1  0  0  0
 33 28  1  0  0  0
  6  1  1  0  0  0
 13 11  1  0  0  0
 24 18  1  0  0  0
 36 39  1  0  0  0
  7 10  1  0  0  0
 16 17  1  0  0  0
M  END
> <minimizedAffinity>
-7.95817

> <CNNscore>
0.1143346280

> <CNNaffinity>
6.1321511269

> <CNN_VS>
0.7011172175

> <CNNaffinity_variance>
0.1884640157

$$$$
[H]c1nc([H])c2sc(C(=O)N([H])C([H])([H])[H])c([H])c2c1Oc1c([H])c([H])c(N([H])C(=O)C2(C(=O)N([H])c3c([H])c([H])c(F)c([H])c3[H])C([H])([H])C2([H])[H])c([H])c1[H]


 39 43  0  0  0  0  0  0  0  0999 V2000
  -93.5456   29.6718   -4.1795 C   0  0  0  0  0  0  0  0  0  0  0  0
  -93.4602   30.3160   -2.9935 C   0  0  0  0  0  0  0  0  0  0  0  0
  -92.3639   31.0571   -2.5883 C   0  0  0  0  0  0  0  0  0  0  0  0
  -91.2975   31.1426   -3.4480 C   0  0  0  0  0  0  0  0  0  0  0  0
  -91.3093   30.5218   -4.6655 C   0  0  0  0  0  0  0  0  0  0  0  0
  -92.4524   29.7769   -5.0311 C   0  0  0  0  0  0  0  0  0  0  0  0
  -90.1217   31.8543   -3.0146 N   0  0  0  0  0  0  0  0  0  0  0  0
  -89.5364   32.9331   -3.6615 C   0  0  0  0  0  0  0  0  0  0  0  0
  -90.1372   33.3469   -4.7328 O   0  0  0  0  0  0  0  0  0  0  0  0
  -89.6872   31.5033   -2.1015 H   0  0  0  0  0  0  0  0  0  0  0  0
  -88.3094   33.6912   -3.3082 C   0  0  0  0  0  0  0  0  0  0  0  0
  -87.7747   34.6360   -4.3409 C   0  0  0  0  0  0  0  0  0  0  0  0
  -88.5355   35.1908   -3.2131 C   0  0  0  0  0  0  0  0  0  0  0  0
  -87.2861   33.0490   -2.4657 C   0  0  0  0  0  0  0  0  0  0  0  0
  -87.1622   31.7885   -2.5591 O   0  0  0  0  0  0  0  0  0  0  0  0
  -86.4481   33.7320   -1.5776 N   0  0  0  0  0  0  0  0  0  0  0  0
  -86.4909   34.7836   -1.4272 H   0  0  0  0  0  0  0  0  0  0  0  0
  -85.4613   33.0533   -0.8007 C   0  0  0  0  0  0  0  0  0  0  0  0
  -84.1180   33.2029   -0.9644 C   0  0  0  0  0  0  0  0  0  0  0  0
  -83.2152   32.4816   -0.2202 C   0  0  0  0  0  0  0  0  0  0  0  0
  -83.6149   31.5852    0.7168 C   0  0  0  0  0  0  0  0  0  0  0  0
  -82.7250   30.8790    1.4451 F   0  0  0  0  0  0  0  0  0  0  0  0
  -84.9948   31.4063    0.9113 C   0  0  0  0  0  0  0  0  0  0  0  0
  -85.8738   32.1345    0.1603 C   0  0  0  0  0  0  0  0  0  0  0  0
  -94.6310   28.9228   -4.5978 O   0  0  0  0  0  0  0  0  0  0  0  0
  -93.2332   25.5204   -2.3247 C   0  0  0  0  0  0  0  0  0  0  0  0
  -93.6640   26.6590   -2.9375 C   0  0  0  0  0  0  0  0  0  0  0  0
  -93.9705   26.5801   -4.2517 C   0  0  0  0  0  0  0  0  0  0  0  0
  -94.4268   27.6073   -5.0728 C   0  0  0  0  0  0  0  0  0  0  0  0
  -94.7003   27.3583   -6.4152 C   0  0  0  0  0  0  0  0  0  0  0  0
  -94.5385   26.1492   -6.9628 N   0  0  0  0  0  0  0  0  0  0  0  0
  -94.1028   25.1357   -6.2103 C   0  0  0  0  0  0  0  0  0  0  0  0
  -93.8180   25.3567   -4.8462 C   0  0  0  0  0  0  0  0  0  0  0  0
  -93.2609   24.3684   -3.5781 S   0  0  0  0  0  0  0  0  0  0  0  0
  -91.0267   27.0816    0.1820 C   0  0  0  0  0  0  0  0  0  0  0  0
  -91.9109   26.2153   -0.3459 N   0  0  0  0  0  0  0  0  0  0  0  0
  -92.8210   25.3237   -0.8891 C   0  0  0  0  0  0  0  0  0  0  0  0
  -93.3547   24.3409   -0.2964 O   0  0  0  0  0  0  0  0  0  0  0  0
  -91.9052   25.4818    0.8003 H   0  0  0  0  0  0  0  0  0  0  0  0
 35 36  1  0  0  0
 36 37  1  0  0  0
 37 38  2  0  0  0
 37 26  1  0  0  0
 26 27  2  0  0  0
 27 28  1  0  0  0
 28 29  2  0  0  0
 29 25  1  0  0  0
 25  1  1  0  0  0
  1  2  2  0  0  0
  2  3  1  0  0  0
  3  4  2  0  0  0
  4  7  1  0  0  0
  7  8  1  0  0  0
  8  9  2  0  0  0
  8 11  1  0  0  0
 11 12  1  0  0  0
 12 13  1  0  0  0
 11 14  1  0  0  0
 14 15  2  0  0  0
 14 16  1  0  0  0
 16 18  1  0  0  0
 18 19  2  0  0  0
 19 20  1  0  0  0
 20 21  2  0  0  0
 21 22  1  0  0  0
 21 23  1  0  0  0
 23 24  2  0  0  0
  4  5  1  0  0  0
  5  6  2  0  0  0
 29 30  1  0  0  0
 30 31  2  0  0  0
 31 32  1  0  0  0
 32 33  2  0  0  0
 33 34  1  0  0  0
 34 26  1  0  0  0
 33 28  1  0  0  0
  6  1  1  0  0  0
 13 11  1  0  0  0
 24 18  1  0  0  0
 36 39  1  0  0  0
  7 10  1  0  0  0
 16 17  1  0  0  0
M  END
> <minimizedAffinity>
-7.60802

> <CNNscore>
0.0980629921

> <CNNaffinity>
6.0680785179

> <CNN_VS>
0.5950539112

> <CNNaffinity_variance>
0.1059985906

$$$$
[H]c1nc([H])c2sc(C(=O)N([H])C([H])([H])[H])c([H])c2c1Oc1c([H])c([H])c(N([H])C(=O)C2(C(=O)N([H])c3c([H])c([H])c(F)c([H])c3[H])C([H])([H])C2([H])[H])c([H])c1[H]


 39 43  0  0  0  0  0  0  0  0999 V2000
  -93.5261   27.8154   -2.5456 C   0  0  0  0  0  0  0  0  0  0  0  0
  -92.2127   27.5429   -2.7173 C   0  0  0  0  0  0  0  0  0  0  0  0
  -91.2500   28.4980   -2.9936 C   0  0  0  0  0  0  0  0  0  0  0  0
  -91.6577   29.8044   -3.0981 C   0  0  0  0  0  0  0  0  0  0  0  0
  -92.9672   30.1597   -2.9351 C   0  0  0  0  0  0  0  0  0  0  0  0
  -93.9107   29.1463   -2.6551 C   0  0  0  0  0  0  0  0  0  0  0  0
  -90.6799   30.8025   -3.4513 N   0  0  0  0  0  0  0  0  0  0  0  0
  -89.9309   31.5607   -2.5632 C   0  0  0  0  0  0  0  0  0  0  0  0
  -90.1154   31.3086   -1.3052 O   0  0  0  0  0  0  0  0  0  0  0  0
  -90.5314   30.9433   -4.5019 H   0  0  0  0  0  0  0  0  0  0  0  0
  -88.9406   32.6318   -2.8408 C   0  0  0  0  0  0  0  0  0  0  0  0
  -89.0628   33.3454   -4.1526 C   0  0  0  0  0  0  0  0  0  0  0  0
  -89.5630   34.0142   -2.9439 C   0  0  0  0  0  0  0  0  0  0  0  0
  -87.5630   32.4833   -2.3413 C   0  0  0  0  0  0  0  0  0  0  0  0
  -86.6221   32.5902   -3.1875 O   0  0  0  0  0  0  0  0  0  0  0  0
  -87.2267   32.2350   -1.0061 N   0  0  0  0  0  0  0  0  0  0  0  0
  -87.9491   32.1194   -0.2345 H   0  0  0  0  0  0  0  0  0  0  0  0
  -85.8689   32.1194   -0.5806 C   0  0  0  0  0  0  0  0  0  0  0  0
  -85.3725   31.0679    0.1275 C   0  0  0  0  0  0  0  0  0  0  0  0
  -84.0665   31.0375    0.5549 C   0  0  0  0  0  0  0  0  0  0  0  0
  -83.2042   32.0517    0.2922 C   0  0  0  0  0  0  0  0  0  0  0  0
  -81.9227   32.0178    0.7139 F   0  0  0  0  0  0  0  0  0  0  0  0
  -83.6842   33.1526   -0.4369 C   0  0  0  0  0  0  0  0  0  0  0  0
  -84.9860   33.1609   -0.8519 C   0  0  0  0  0  0  0  0  0  0  0  0
  -94.5018   26.8727   -2.2744 O   0  0  0  0  0  0  0  0  0  0  0  0
  -93.2822   23.0140   -0.7512 C   0  0  0  0  0  0  0  0  0  0  0  0
  -93.6393   24.2765   -1.1203 C   0  0  0  0  0  0  0  0  0  0  0  0
  -94.0804   24.4531   -2.3858 C   0  0  0  0  0  0  0  0  0  0  0  0
  -94.4958   25.6445   -2.9739 C   0  0  0  0  0  0  0  0  0  0  0  0
  -94.9264   25.6560   -4.2980 C   0  0  0  0  0  0  0  0  0  0  0  0
  -94.9575   24.5484   -5.0466 N   0  0  0  0  0  0  0  0  0  0  0  0
  -94.5677   23.3843   -4.5213 C   0  0  0  0  0  0  0  0  0  0  0  0
  -94.1269   23.3406   -3.1816 C   0  0  0  0  0  0  0  0  0  0  0  0
  -93.5635   22.1013   -2.1608 S   0  0  0  0  0  0  0  0  0  0  0  0
  -91.4857   20.1203    0.6587 C   0  0  0  0  0  0  0  0  0  0  0  0
  -92.1116   21.3108    0.6184 N   0  0  0  0  0  0  0  0  0  0  0  0
  -92.7558   22.5362    0.5769 C   0  0  0  0  0  0  0  0  0  0  0  0
  -92.9538   23.3139    1.5557 O   0  0  0  0  0  0  0  0  0  0  0  0
  -92.0021   21.4354    1.9690 H   0  0  0  0  0  0  0  0  0  0  0  0
 35 36  1  0  0  0
 36 37  1  0  0  0
 37 38  2  0  0  0
 37 26  1  0  0  0
 26 27  2  0  0  0
 27 28  1  0  0  0
 28 29  2  0  0  0
 29 25  1  0  0  0
 25  1  1  0  0  0
  1  2  2  0  0  0
  2  3  1  0  0  0
  3  4  2  0  0  0
  4  7  1  0  0  0
  7  8  1  0  0  0
  8  9  2  0  0  0
  8 11  1  0  0  0
 11 12  1  0  0  0
 12 13  1  0  0  0
 11 14  1  0  0  0
 14 15  2  0  0  0
 14 16  1  0  0  0
 16 18  1  0  0  0
 18 19  2  0  0  0
 19 20  1  0  0  0
 20 21  2  0  0  0
 21 22  1  0  0  0
 21 23  1  0  0  0
 23 24  2  0  0  0
  4  5  1  0  0  0
  5  6  2  0  0  0
 29 30  1  0  0  0
 30 31  2  0  0  0
 31 32  1  0  0  0
 32 33  2  0  0  0
 33 34  1  0  0  0
 34 26  1  0  0  0
 33 28  1  0  0  0
  6  1  1  0  0  0
 13 11  1  0  0  0
 24 18  1  0  0  0
 36 39  1  0  0  0
  7 10  1  0  0  0
 16 17  1  0  0  0
M  END
> <minimizedAffinity>
-7.13366

> <CNNscore>
0.0912677720

> <CNNaffinity>
6.0523219109

> <CNN_VS>
0.5523819327

> <CNNaffinity_variance>
0.3333135843

$$$$
[H]c1nc([H])c2sc(C(=O)N([H])C([H])([H])[H])c([H])c2c1Oc1c([H])c([H])c(N([H])C(=O)C2(C(=O)N([H])c3c([H])c([H])c(F)c([H])c3[H])C([H])([H])C2([H])[H])c([H])c1[H]


 39 43  0  0  0  0  0  0  0  0999 V2000
  -93.0418   30.8886   -3.8215 C   0  0  0  0  0  0  0  0  0  0  0  0
  -92.2195   31.7981   -4.3921 C   0  0  0  0  0  0  0  0  0  0  0  0
  -90.8833   31.9512   -4.0654 C   0  0  0  0  0  0  0  0  0  0  0  0
  -90.3626   31.1246   -3.1014 C   0  0  0  0  0  0  0  0  0  0  0  0
  -91.1292   30.1787   -2.4807 C   0  0  0  0  0  0  0  0  0  0  0  0
  -92.4878   30.0637   -2.8499 C   0  0  0  0  0  0  0  0  0  0  0  0
  -88.9911   31.3150   -2.7017 N   0  0  0  0  0  0  0  0  0  0  0  0
  -88.5583   31.9679   -1.5567 C   0  0  0  0  0  0  0  0  0  0  0  0
  -89.4881   32.4088   -0.7685 O   0  0  0  0  0  0  0  0  0  0  0  0
  -88.2613   30.8949   -3.3624 H   0  0  0  0  0  0  0  0  0  0  0  0
  -87.1740   32.2431   -1.0950 C   0  0  0  0  0  0  0  0  0  0  0  0
  -86.2781   32.9836   -2.0406 C   0  0  0  0  0  0  0  0  0  0  0  0
  -86.8804   33.7242   -0.9239 C   0  0  0  0  0  0  0  0  0  0  0  0
  -86.4930   31.2568   -0.2390 C   0  0  0  0  0  0  0  0  0  0  0  0
  -87.2017   30.3246    0.2524 O   0  0  0  0  0  0  0  0  0  0  0  0
  -85.1275   31.2798    0.0645 N   0  0  0  0  0  0  0  0  0  0  0  0
  -84.4630   32.0288   -0.2931 H   0  0  0  0  0  0  0  0  0  0  0  0
  -84.5222   30.2824    0.8872 C   0  0  0  0  0  0  0  0  0  0  0  0
  -83.2198   30.2998    1.2834 C   0  0  0  0  0  0  0  0  0  0  0  0
  -82.6795   29.2824    2.0332 C   0  0  0  0  0  0  0  0  0  0  0  0
  -83.4154   28.2096    2.4189 C   0  0  0  0  0  0  0  0  0  0  0  0
  -82.8808   27.2128    3.1549 F   0  0  0  0  0  0  0  0  0  0  0  0
  -84.7637   28.1601    2.0268 C   0  0  0  0  0  0  0  0  0  0  0  0
  -85.2794   29.1830    1.2820 C   0  0  0  0  0  0  0  0  0  0  0  0
  -94.3801   30.7260   -4.1322 O   0  0  0  0  0  0  0  0  0  0  0  0
  -95.0496   27.2837   -6.6619 C   0  0  0  0  0  0  0  0  0  0  0  0
  -94.8094   28.2897   -5.7744 C   0  0  0  0  0  0  0  0  0  0  0  0
  -94.9722   29.5580   -6.2129 C   0  0  0  0  0  0  0  0  0  0  0  0
  -94.7854   30.7305   -5.4863 C   0  0  0  0  0  0  0  0  0  0  0  0
  -94.9984   31.9670   -6.0900 C   0  0  0  0  0  0  0  0  0  0  0  0
  -95.3815   32.0801   -7.3662 N   0  0  0  0  0  0  0  0  0  0  0  0
  -95.5722   30.9802   -8.0990 C   0  0  0  0  0  0  0  0  0  0  0  0
  -95.3652   29.7126   -7.5149 C   0  0  0  0  0  0  0  0  0  0  0  0
  -95.4938   28.1132   -8.0809 S   0  0  0  0  0  0  0  0  0  0  0  0
  -93.4916   24.9098   -4.3112 C   0  0  0  0  0  0  0  0  0  0  0  0
  -94.2057   25.3467   -5.3647 N   0  0  0  0  0  0  0  0  0  0  0  0
  -94.9408   25.7963   -6.4491 C   0  0  0  0  0  0  0  0  0  0  0  0
  -95.5434   25.0766   -7.2981 O   0  0  0  0  0  0  0  0  0  0  0  0
  -94.4092   24.0674   -5.7814 H   0  0  0  0  0  0  0  0  0  0  0  0
 35 36  1  0  0  0
 36 37  1  0  0  0
 37 38  2  0  0  0
 37 26  1  0  0  0
 26 27  2  0  0  0
 27 28  1  0  0  0
 28 29  2  0  0  0
 29 25  1  0  0  0
 25  1  1  0  0  0
  1  2  2  0  0  0
  2  3  1  0  0  0
  3  4  2  0  0  0
  4  7  1  0  0  0
  7  8  1  0  0  0
  8  9  2  0  0  0
  8 11  1  0  0  0
 11 12  1  0  0  0
 12 13  1  0  0  0
 11 14  1  0  0  0
 14 15  2  0  0  0
 14 16  1  0  0  0
 16 18  1  0  0  0
 18 19  2  0  0  0
 19 20  1  0  0  0
 20 21  2  0  0  0
 21 22  1  0  0  0
 21 23  1  0  0  0
 23 24  2  0  0  0
  4  5  1  0  0  0
  5  6  2  0  0  0
 29 30  1  0  0  0
 30 31  2  0  0  0
 31 32  1  0  0  0
 32 33  2  0  0  0
 33 34  1  0  0  0
 34 26  1  0  0  0
 33 28  1  0  0  0
  6  1  1  0  0  0
 13 11  1  0  0  0
 24 18  1  0  0  0
 36 39  1  0  0  0
  7 10  1  0  0  0
 16 17  1  0  0  0
M  END
> <minimizedAffinity>
-8.09400

> <CNNscore>
0.0698245019

> <CNNaffinity>
5.9041175842

> <CNN_VS>
0.4122520685

> <CNNaffinity_variance>
0.2404774129

$$$$
[H]c1nc([H])c2sc(C(=O)N([H])C([H])([H])[H])c([H])c2c1Oc1c([H])c([H])c(N([H])C(=O)C2(C(=O)N([H])c3c([H])c([H])c(F)c([H])c3[H])C([H])([H])C2([H])[H])c([H])c1[H]


 39 43  0  0  0  0  0  0  0  0999 V2000
  -88.9664   31.8754   -4.5473 C   0  0  0  0  0  0  0  0  0  0  0  0
  -87.9244   31.0419   -4.3272 C   0  0  0  0  0  0  0  0  0  0  0  0
  -87.9694   29.9472   -3.4815 C   0  0  0  0  0  0  0  0  0  0  0  0
  -89.1489   29.6936   -2.8272 C   0  0  0  0  0  0  0  0  0  0  0  0
  -90.2472   30.4885   -2.9996 C   0  0  0  0  0  0  0  0  0  0  0  0
  -90.1487   31.5940   -3.8733 C   0  0  0  0  0  0  0  0  0  0  0  0
  -89.1934   28.5978   -1.8922 N   0  0  0  0  0  0  0  0  0  0  0  0
  -89.8033   27.3697   -2.1034 C   0  0  0  0  0  0  0  0  0  0  0  0
  -90.3465   27.1981   -3.2676 O   0  0  0  0  0  0  0  0  0  0  0  0
  -88.6931   28.7716   -0.9621 H   0  0  0  0  0  0  0  0  0  0  0  0
  -89.9311   26.2105   -1.1841 C   0  0  0  0  0  0  0  0  0  0  0  0
  -90.9277   25.1556   -1.5568 C   0  0  0  0  0  0  0  0  0  0  0  0
  -89.5048   24.8945   -1.8128 C   0  0  0  0  0  0  0  0  0  0  0  0
  -89.7619   26.4203    0.2639 C   0  0  0  0  0  0  0  0  0  0  0  0
  -88.6211   26.8062    0.6670 O   0  0  0  0  0  0  0  0  0  0  0  0
  -90.7683   26.2246    1.2158 N   0  0  0  0  0  0  0  0  0  0  0  0
  -91.7476   25.8918    0.9693 H   0  0  0  0  0  0  0  0  0  0  0  0
  -90.5468   26.4634    2.6058 C   0  0  0  0  0  0  0  0  0  0  0  0
  -90.5957   27.6912    3.1918 C   0  0  0  0  0  0  0  0  0  0  0  0
  -90.3213   27.8654    4.5273 C   0  0  0  0  0  0  0  0  0  0  0  0
  -89.9894   26.8236    5.3310 C   0  0  0  0  0  0  0  0  0  0  0  0
  -89.7206   26.9991    6.6418 F   0  0  0  0  0  0  0  0  0  0  0  0
  -89.9297   25.5422    4.7580 C   0  0  0  0  0  0  0  0  0  0  0  0
  -90.2070   25.3929    3.4284 C   0  0  0  0  0  0  0  0  0  0  0  0
  -88.9367   32.9765   -5.3845 O   0  0  0  0  0  0  0  0  0  0  0  0
  -92.0449   35.8966   -4.6713 C   0  0  0  0  0  0  0  0  0  0  0  0
  -91.1531   34.9018   -4.9405 C   0  0  0  0  0  0  0  0  0  0  0  0
  -89.8548   35.1335   -4.6437 C   0  0  0  0  0  0  0  0  0  0  0  0
  -88.7810   34.2675   -4.8306 C   0  0  0  0  0  0  0  0  0  0  0  0
  -87.4957   34.6612   -4.4676 C   0  0  0  0  0  0  0  0  0  0  0  0
  -87.2417   35.8621   -3.9371 N   0  0  0  0  0  0  0  0  0  0  0  0
  -88.2432   36.7232   -3.7406 C   0  0  0  0  0  0  0  0  0  0  0  0
  -89.5570   36.3527   -4.0976 C   0  0  0  0  0  0  0  0  0  0  0  0
  -91.0692   37.1282   -4.0154 S   0  0  0  0  0  0  0  0  0  0  0  0
  -95.1699   36.0876   -2.7253 C   0  0  0  0  0  0  0  0  0  0  0  0
  -94.3634   36.0017   -3.7990 N   0  0  0  0  0  0  0  0  0  0  0  0
  -93.5332   35.9134   -4.9042 C   0  0  0  0  0  0  0  0  0  0  0  0
  -93.8984   35.8438   -6.1140 O   0  0  0  0  0  0  0  0  0  0  0  0
  -95.4401   35.8765   -4.6215 H   0  0  0  0  0  0  0  0  0  0  0  0
 35 36  1  0  0  0
 36 37  1  0  0  0
 37 38  2  0  0  0
 37 26  1  0  0  0
 26 27  2  0  0  0
 27 28  1  0  0  0
 28 29  2  0  0  0
 29 25  1  0  0  0
 25  1  1  0  0  0
  1  2  2  0  0  0
  2  3  1  0  0  0
  3  4  2  0  0  0
  4  7  1  0  0  0
  7  8  1  0  0  0
  8  9  2  0  0  0
  8 11  1  0  0  0
 11 12  1  0  0  0
 12 13  1  0  0  0
 11 14  1  0  0  0
 14 15  2  0  0  0
 14 16  1  0  0  0
 16 18  1  0  0  0
 18 19  2  0  0  0
 19 20  1  0  0  0
 20 21  2  0  0  0
 21 22  1  0  0  0
 21 23  1  0  0  0
 23 24  2  0  0  0
  4  5  1  0  0  0
  5  6  2  0  0  0
 29 30  1  0  0  0
 30 31  2  0  0  0
 31 32  1  0  0  0
 32 33  2  0  0  0
 33 34  1  0  0  0
 34 26  1  0  0  0
 33 28  1  0  0  0
  6  1  1  0  0  0
 13 11  1  0  0  0
 24 18  1  0  0  0
 36 39  1  0  0  0
  7 10  1  0  0  0
 16 17  1  0  0  0
M  END
> <minimizedAffinity>
-8.12255

> <CNNscore>
0.0673678219

> <CNNaffinity>
5.8769359589

> <CNN_VS>
0.3959163725

> <CNNaffinity_variance>
0.1476082504

$$$$
[H]c1nc([H])c2sc(C(=O)N([H])C([H])([H])[H])c([H])c2c1Oc1c([H])c([H])c(N([H])C(=O)C2(C(=O)N([H])c3c([H])c([H])c(F)c([H])c3[H])C([H])([H])C2([H])[H])c([H])c1[H]


 39 43  0  0  0  0  0  0  0  0999 V2000
  -93.5237   27.9872   -2.3677 C   0  0  0  0  0  0  0  0  0  0  0  0
  -92.3749   27.3806   -1.9920 C   0  0  0  0  0  0  0  0  0  0  0  0
  -91.2591   28.0513   -1.5223 C   0  0  0  0  0  0  0  0  0  0  0  0
  -91.3268   29.4192   -1.4321 C   0  0  0  0  0  0  0  0  0  0  0  0
  -92.4539   30.1041   -1.7902 C   0  0  0  0  0  0  0  0  0  0  0  0
  -93.5653   29.3724   -2.2643 C   0  0  0  0  0  0  0  0  0  0  0  0
  -90.1519   30.1382   -1.0086 N   0  0  0  0  0  0  0  0  0  0  0  0
  -89.2823   30.8376   -1.8329 C   0  0  0  0  0  0  0  0  0  0  0  0
  -89.5913   30.8653   -3.0913 O   0  0  0  0  0  0  0  0  0  0  0  0
  -89.9632   30.1228    0.0449 H   0  0  0  0  0  0  0  0  0  0  0  0
  -88.0348   31.5647   -1.4860 C   0  0  0  0  0  0  0  0  0  0  0  0
  -87.5643   32.6057   -2.4555 C   0  0  0  0  0  0  0  0  0  0  0  0
  -88.2530   33.0475   -1.2353 C   0  0  0  0  0  0  0  0  0  0  0  0
  -86.9619   30.8506   -0.7732 C   0  0  0  0  0  0  0  0  0  0  0  0
  -86.7987   29.6213   -1.0473 O   0  0  0  0  0  0  0  0  0  0  0  0
  -86.1173   31.4340    0.1774 N   0  0  0  0  0  0  0  0  0  0  0  0
  -86.1905   32.4518    0.4761 H   0  0  0  0  0  0  0  0  0  0  0  0
  -85.0818   30.6916    0.8212 C   0  0  0  0  0  0  0  0  0  0  0  0
  -83.7518   30.8708    0.5925 C   0  0  0  0  0  0  0  0  0  0  0  0
  -82.8019   30.0884    1.2046 C   0  0  0  0  0  0  0  0  0  0  0  0
  -83.1396   29.0987    2.0694 C   0  0  0  0  0  0  0  0  0  0  0  0
  -82.2037   28.3327    2.6681 F   0  0  0  0  0  0  0  0  0  0  0  0
  -84.5042   28.8868    2.3280 C   0  0  0  0  0  0  0  0  0  0  0  0
  -85.4307   29.6771    1.7084 C   0  0  0  0  0  0  0  0  0  0  0  0
  -94.6457   27.3328   -2.8442 O   0  0  0  0  0  0  0  0  0  0  0  0
  -94.1955   23.0396   -2.5937 C   0  0  0  0  0  0  0  0  0  0  0  0
  -94.3410   24.3940   -2.5493 C   0  0  0  0  0  0  0  0  0  0  0  0
  -94.3761   25.0546   -3.7282 C   0  0  0  0  0  0  0  0  0  0  0  0
  -94.5174   26.4260   -3.9208 C   0  0  0  0  0  0  0  0  0  0  0  0
  -94.5363   26.9512   -5.2102 C   0  0  0  0  0  0  0  0  0  0  0  0
  -94.4205   26.1790   -6.2957 N   0  0  0  0  0  0  0  0  0  0  0  0
  -94.2832   24.8581   -6.1557 C   0  0  0  0  0  0  0  0  0  0  0  0
  -94.2614   24.2961   -4.8617 C   0  0  0  0  0  0  0  0  0  0  0  0
  -94.1099   22.7109   -4.2621 S   0  0  0  0  0  0  0  0  0  0  0  0
  -95.6994   22.5187    0.7313 C   0  0  0  0  0  0  0  0  0  0  0  0
  -94.9202   22.2948   -0.3427 N   0  0  0  0  0  0  0  0  0  0  0  0
  -94.1182   22.0643   -1.4481 C   0  0  0  0  0  0  0  0  0  0  0  0
  -93.3104   21.1021   -1.6023 O   0  0  0  0  0  0  0  0  0  0  0  0
  -94.3431   21.2283    0.2747 H   0  0  0  0  0  0  0  0  0  0  0  0
 35 36  1  0  0  0
 36 37  1  0  0  0
 37 38  2  0  0  0
 37 26  1  0  0  0
 26 27  2  0  0  0
 27 28  1  0  0  0
 28 29  2  0  0  0
 29 25  1  0  0  0
 25  1  1  0  0  0
  1  2  2  0  0  0
  2  3  1  0  0  0
  3  4  2  0  0  0
  4  7  1  0  0  0
  7  8  1  0  0  0
  8  9  2  0  0  0
  8 11  1  0  0  0
 11 12  1  0  0  0
 12 13  1  0  0  0
 11 14  1  0  0  0
 14 15  2  0  0  0
 14 16  1  0  0  0
 16 18  1  0  0  0
 18 19  2  0  0  0
 19 20  1  0  0  0
 20 21  2  0  0  0
 21 22  1  0  0  0
 21 23  1  0  0  0
 23 24  2  0  0  0
  4  5  1  0  0  0
  5  6  2  0  0  0
 29 30  1  0  0  0
 30 31  2  0  0  0
 31 32  1  0  0  0
 32 33  2  0  0  0
 33 34  1  0  0  0
 34 26  1  0  0  0
 33 28  1  0  0  0
  6  1  1  0  0  0
 13 11  1  0  0  0
 24 18  1  0  0  0
 36 39  1  0  0  0
  7 10  1  0  0  0
 16 17  1  0  0  0
M  END
> <minimizedAffinity>
-7.62771

> <CNNscore>
0.0648779571

> <CNNaffinity>
6.1430521011

> <CNN_VS>
0.3985486627

> <CNNaffinity_variance>
0.4346273839

$$$$
[H]c1nc([H])c2sc(C(=O)N([H])C([H])([H])[H])c([H])c2c1Oc1c([H])c([H])c(N([H])C(=O)C2(C(=O)N([H])c3c([H])c([H])c(F)c([H])c3[H])C([H])([H])C2([H])[H])c([H])c1[H]


 39 43  0  0  0  0  0  0  0  0999 V2000
  -87.6348   31.3990   -0.8699 C   0  0  0  0  0  0  0  0  0  0  0  0
  -87.3512   30.8353   -2.0660 C   0  0  0  0  0  0  0  0  0  0  0  0
  -88.2781   30.1753   -2.8539 C   0  0  0  0  0  0  0  0  0  0  0  0
  -89.5667   30.0905   -2.3890 C   0  0  0  0  0  0  0  0  0  0  0  0
  -89.9318   30.6374   -1.1910 C   0  0  0  0  0  0  0  0  0  0  0  0
  -88.9474   31.2998   -0.4245 C   0  0  0  0  0  0  0  0  0  0  0  0
  -90.5289   29.3494   -3.1648 N   0  0  0  0  0  0  0  0  0  0  0  0
  -91.6451   29.8759   -3.7986 C   0  0  0  0  0  0  0  0  0  0  0  0
  -91.8001   31.1591   -3.7028 O   0  0  0  0  0  0  0  0  0  0  0  0
  -90.3338   28.3005   -3.2515 H   0  0  0  0  0  0  0  0  0  0  0  0
  -92.7023   29.1813   -4.5764 C   0  0  0  0  0  0  0  0  0  0  0  0
  -94.0429   29.8471   -4.6441 C   0  0  0  0  0  0  0  0  0  0  0  0
  -93.1500   29.9540   -5.8059 C   0  0  0  0  0  0  0  0  0  0  0  0
  -92.7398   27.7089   -4.5817 C   0  0  0  0  0  0  0  0  0  0  0  0
  -92.1704   27.1155   -5.5494 O   0  0  0  0  0  0  0  0  0  0  0  0
  -93.3560   26.9285   -3.5975 N   0  0  0  0  0  0  0  0  0  0  0  0
  -93.8654   27.3408   -2.7603 H   0  0  0  0  0  0  0  0  0  0  0  0
  -93.3419   25.5019   -3.6497 C   0  0  0  0  0  0  0  0  0  0  0  0
  -94.2988   24.7456   -4.2546 C   0  0  0  0  0  0  0  0  0  0  0  0
  -94.2582   23.3720   -4.2265 C   0  0  0  0  0  0  0  0  0  0  0  0
  -93.2626   22.6986   -3.5968 C   0  0  0  0  0  0  0  0  0  0  0  0
  -93.2267   21.3498   -3.5715 F   0  0  0  0  0  0  0  0  0  0  0  0
  -92.2585   23.4489   -2.9620 C   0  0  0  0  0  0  0  0  0  0  0  0
  -92.3191   24.8133   -3.0033 C   0  0  0  0  0  0  0  0  0  0  0  0
  -86.7197   32.0573   -0.0677 O   0  0  0  0  0  0  0  0  0  0  0  0
  -86.6711   28.0747    1.6156 C   0  0  0  0  0  0  0  0  0  0  0  0
  -86.8080   29.3159    1.0695 C   0  0  0  0  0  0  0  0  0  0  0  0
  -85.6923   30.0698    0.9514 C   0  0  0  0  0  0  0  0  0  0  0  0
  -85.5968   31.3557    0.4268 C   0  0  0  0  0  0  0  0  0  0  0  0
  -84.3625   31.9981    0.3748 C   0  0  0  0  0  0  0  0  0  0  0  0
  -83.2402   31.4220    0.8181 N   0  0  0  0  0  0  0  0  0  0  0  0
  -83.2874   30.1890    1.3288 C   0  0  0  0  0  0  0  0  0  0  0  0
  -84.5235   29.5118    1.3941 C   0  0  0  0  0  0  0  0  0  0  0  0
  -85.0051   27.9787    1.9533 S   0  0  0  0  0  0  0  0  0  0  0  0
  -89.5960   27.5575    3.7989 C   0  0  0  0  0  0  0  0  0  0  0  0
  -88.6781   27.3013    2.8488 N   0  0  0  0  0  0  0  0  0  0  0  0
  -87.7335   27.0375    1.8708 C   0  0  0  0  0  0  0  0  0  0  0  0
  -87.6656   25.9968    1.1535 O   0  0  0  0  0  0  0  0  0  0  0  0
  -89.2011   26.0606    2.6514 H   0  0  0  0  0  0  0  0  0  0  0  0
 35 36  1  0  0  0
 36 37  1  0  0  0
 37 38  2  0  0  0
 37 26  1  0  0  0
 26 27  2  0  0  0
 27 28  1  0  0  0
 28 29  2  0  0  0
 29 25  1  0  0  0
 25  1  1  0  0  0
  1  2  2  0  0  0
  2  3  1  0  0  0
  3  4  2  0  0  0
  4  7  1  0  0  0
  7  8  1  0  0  0
  8  9  2  0  0  0
  8 11  1  0  0  0
 11 12  1  0  0  0
 12 13  1  0  0  0
 11 14  1  0  0  0
 14 15  2  0  0  0
 14 16  1  0  0  0
 16 18  1  0  0  0
 18 19  2  0  0  0
 19 20  1  0  0  0
 20 21  2  0  0  0
 21 22  1  0  0  0
 21 23  1  0  0  0
 23 24  2  0  0  0
  4  5  1  0  0  0
  5  6  2  0  0  0
 29 30  1  0  0  0
 30 31  2  0  0  0
 31 32  1  0  0  0
 32 33  2  0  0  0
 33 34  1  0  0  0
 34 26  1  0  0  0
 33 28  1  0  0  0
  6  1  1  0  0  0
 13 11  1  0  0  0
 24 18  1  0  0  0
 36 39  1  0  0  0
  7 10  1  0  0  0
 16 17  1  0  0  0
M  END
> <minimizedAffinity>
-7.88976

> <CNNscore>
0.0640028715

> <CNNaffinity>
6.1255617142

> <CNN_VS>
0.3920535445

> <CNNaffinity_variance>
0.1826411337

$$$$
[H]c1nc([H])c2sc(C(=O)N([H])C([H])([H])[H])c([H])c2c1Oc1c([H])c([H])c(N([H])C(=O)C2(C(=O)N([H])c3c([H])c([H])c(F)c([H])c3[H])C([H])([H])C2([H])[H])c([H])c1[H]


 39 43  0  0  0  0  0  0  0  0999 V2000
  -92.5404   29.5962   -3.9019 C   0  0  0  0  0  0  0  0  0  0  0  0
  -92.0176   29.0644   -2.7737 C   0  0  0  0  0  0  0  0  0  0  0  0
  -90.7795   29.4026   -2.2558 C   0  0  0  0  0  0  0  0  0  0  0  0
  -90.0383   30.3389   -2.9323 C   0  0  0  0  0  0  0  0  0  0  0  0
  -90.4993   30.9237   -4.0782 C   0  0  0  0  0  0  0  0  0  0  0  0
  -91.7693   30.5429   -4.5655 C   0  0  0  0  0  0  0  0  0  0  0  0
  -88.7193   30.6537   -2.4441 N   0  0  0  0  0  0  0  0  0  0  0  0
  -88.4024   31.6557   -1.5385 C   0  0  0  0  0  0  0  0  0  0  0  0
  -89.4018   32.3371   -1.0728 O   0  0  0  0  0  0  0  0  0  0  0  0
  -87.9330   30.0348   -2.8241 H   0  0  0  0  0  0  0  0  0  0  0  0
  -87.0746   32.0713   -1.0193 C   0  0  0  0  0  0  0  0  0  0  0  0
  -86.3167   33.0814   -1.8257 C   0  0  0  0  0  0  0  0  0  0  0  0
  -87.0177   33.5355   -0.6171 C   0  0  0  0  0  0  0  0  0  0  0  0
  -86.2376   31.0844   -0.3159 C   0  0  0  0  0  0  0  0  0  0  0  0
  -86.3564   29.8683   -0.6618 O   0  0  0  0  0  0  0  0  0  0  0  0
  -85.3273   31.3975    0.6993 N   0  0  0  0  0  0  0  0  0  0  0  0
  -85.1725   32.3859    1.0594 H   0  0  0  0  0  0  0  0  0  0  0  0
  -84.5299   30.3958    1.3308 C   0  0  0  0  0  0  0  0  0  0  0  0
  -83.1777   30.2989    1.2065 C   0  0  0  0  0  0  0  0  0  0  0  0
  -82.4695   29.2797    1.7971 C   0  0  0  0  0  0  0  0  0  0  0  0
  -83.0801   28.3189    2.5357 C   0  0  0  0  0  0  0  0  0  0  0  0
  -82.3809   27.3199    3.1137 F   0  0  0  0  0  0  0  0  0  0  0  0
  -84.4754   28.3892    2.6842 C   0  0  0  0  0  0  0  0  0  0  0  0
  -85.1586   29.4116    2.0884 C   0  0  0  0  0  0  0  0  0  0  0  0
  -93.7731   29.2655   -4.4360 O   0  0  0  0  0  0  0  0  0  0  0  0
  -95.5600   25.8275   -2.5166 C   0  0  0  0  0  0  0  0  0  0  0  0
  -95.0162   26.9729   -3.0165 C   0  0  0  0  0  0  0  0  0  0  0  0
  -94.5552   26.9395   -4.2868 C   0  0  0  0  0  0  0  0  0  0  0  0
  -93.9668   27.9825   -4.9965 C   0  0  0  0  0  0  0  0  0  0  0  0
  -93.5442   27.7829   -6.3082 C   0  0  0  0  0  0  0  0  0  0  0  0
  -93.6804   26.6066   -6.9293 N   0  0  0  0  0  0  0  0  0  0  0  0
  -94.2399   25.5796   -6.2847 C   0  0  0  0  0  0  0  0  0  0  0  0
  -94.6789   25.7513   -4.9548 C   0  0  0  0  0  0  0  0  0  0  0  0
  -95.4211   24.7318   -3.8124 S   0  0  0  0  0  0  0  0  0  0  0  0
  -95.0351   23.5946    0.3691 C   0  0  0  0  0  0  0  0  0  0  0  0
  -95.5781   24.5732   -0.3781 N   0  0  0  0  0  0  0  0  0  0  0  0
  -96.1369   25.5805   -1.1471 C   0  0  0  0  0  0  0  0  0  0  0  0
  -97.1004   26.3315   -0.8157 O   0  0  0  0  0  0  0  0  0  0  0  0
  -96.5271   24.7973    0.5710 H   0  0  0  0  0  0  0  0  0  0  0  0
 35 36  1  0  0  0
 36 37  1  0  0  0
 37 38  2  0  0  0
 37 26  1  0  0  0
 26 27  2  0  0  0
 27 28  1  0  0  0
 28 29  2  0  0  0
 29 25  1  0  0  0
 25  1  1  0  0  0
  1  2  2  0  0  0
  2  3  1  0  0  0
  3  4  2  0  0  0
  4  7  1  0  0  0
  7  8  1  0  0  0
  8  9  2  0  0  0
  8 11  1  0  0  0
 11 12  1  0  0  0
 12 13  1  0  0  0
 11 14  1  0  0  0
 14 15  2  0  0  0
 14 16  1  0  0  0
 16 18  1  0  0  0
 18 19  2  0  0  0
 19 20  1  0  0  0
 20 21  2  0  0  0
 21 22  1  0  0  0
 21 23  1  0  0  0
 23 24  2  0  0  0
  4  5  1  0  0  0
  5  6  2  0  0  0
 29 30  1  0  0  0
 30 31  2  0  0  0
 31 32  1  0  0  0
 32 33  2  0  0  0
 33 34  1  0  0  0
 34 26  1  0  0  0
 33 28  1  0  0  0
  6  1  1  0  0  0
 13 11  1  0  0  0
 24 18  1  0  0  0
 36 39  1  0  0  0
  7 10  1  0  0  0
 16 17  1  0  0  0
M  END
> <minimizedAffinity>
-8.01608

> <CNNscore>
0.0562884323

> <CNNaffinity>
6.0911355019

> <CNN_VS>
0.3428604603

> <CNNaffinity_variance>
0.4695842266

$$$$
[H]c1nc(N([H])c2c([H])c([H])c(N3C([H])([H])C([H])([H])C([H])(N(C([H])([H])[H])C([H])([H])[H])C([H])([H])C3([H])[H])c([H])c2OC([H])([H])[H])nc(N([H])c2c([H])c([H])c([H])c([H])c2S(=O)(=O)C([H])(C([H])([H])[H])C([H])([H])[H])c1Cl


 40 43  0  0  0  0  0  0  0  0999 V2000
  -85.5209   33.0862   -1.9605 C   0  0  0  0  0  0  0  0  0  0  0  0
  -84.3057   33.4214   -1.5407 N   0  0  0  0  0  0  0  0  0  0  0  0
  -83.7797   32.9814   -0.3908 C   0  0  0  0  0  0  0  0  0  0  0  0
  -84.4885   32.1438    0.4267 C   0  0  0  0  0  0  0  0  0  0  0  0
  -83.8473   31.5314    1.9343 Cl  0  0  0  0  0  0  0  0  0  0  0  0
  -85.7886   31.7530    0.0314 C   0  0  0  0  0  0  0  0  0  0  0  0
  -86.1938   32.2500   -1.1162 N   0  0  0  0  0  0  0  0  0  0  0  0
  -86.1579   33.5030   -3.1606 N   0  0  0  0  0  0  0  0  0  0  0  0
  -85.6114   34.2065   -3.7758 H   0  0  0  0  0  0  0  0  0  0  0  0
  -88.4921   33.9957   -3.4315 C   0  0  0  0  0  0  0  0  0  0  0  0
  -89.7128   33.6299   -3.9072 C   0  0  0  0  0  0  0  0  0  0  0  0
  -89.9418   32.4629   -4.5868 C   0  0  0  0  0  0  0  0  0  0  0  0
  -88.8701   31.6320   -4.7883 C   0  0  0  0  0  0  0  0  0  0  0  0
  -87.5992   31.9507   -4.3263 C   0  0  0  0  0  0  0  0  0  0  0  0
  -87.3958   33.1239   -3.6492 C   0  0  0  0  0  0  0  0  0  0  0  0
  -91.2338   32.0803   -5.0894 N   0  0  0  0  0  0  0  0  0  0  0  0
  -91.6370   30.7234   -4.8123 C   0  0  0  0  0  0  0  0  0  0  0  0
  -93.0378   30.3815   -5.1671 C   0  0  0  0  0  0  0  0  0  0  0  0
  -93.9011   31.5869   -5.3774 C   0  0  0  0  0  0  0  0  0  0  0  0
  -93.2545   32.4576   -6.4349 C   0  0  0  0  0  0  0  0  0  0  0  0
  -92.0109   33.0356   -5.8088 C   0  0  0  0  0  0  0  0  0  0  0  0
  -95.2485   31.2021   -5.7207 N   0  0  0  0  0  0  0  0  0  0  0  0
  -95.4055   30.9103   -7.1140 C   0  0  0  0  0  0  0  0  0  0  0  0
  -95.7726   30.1653   -4.8627 C   0  0  0  0  0  0  0  0  0  0  0  0
  -88.3525   36.4013   -3.4162 C   0  0  0  0  0  0  0  0  0  0  0  0
  -88.2739   35.1756   -2.7475 O   0  0  0  0  0  0  0  0  0  0  0  0
  -86.5486   30.9220    0.8835 N   0  0  0  0  0  0  0  0  0  0  0  0
  -87.1754   31.4264    1.5435 H   0  0  0  0  0  0  0  0  0  0  0  0
  -86.5022   29.5316    0.9295 C   0  0  0  0  0  0  0  0  0  0  0  0
  -85.4514   28.8149    1.5026 C   0  0  0  0  0  0  0  0  0  0  0  0
  -85.4927   27.4355    1.6404 C   0  0  0  0  0  0  0  0  0  0  0  0
  -86.5771   26.7204    1.2156 C   0  0  0  0  0  0  0  0  0  0  0  0
  -87.6074   27.4228    0.6527 C   0  0  0  0  0  0  0  0  0  0  0  0
  -87.6152   28.8144    0.4881 C   0  0  0  0  0  0  0  0  0  0  0  0
  -88.9382   29.5091   -0.3467 S   0  0  0  0  0  0  0  0  0  0  0  0
  -90.2307   28.8819    0.2256 O   0  0  0  0  0  0  0  0  0  0  0  0
  -89.1480   30.9818   -0.0925 O   0  0  0  0  0  0  0  0  0  0  0  0
  -89.0179   29.1771   -2.0766 C   0  0  0  0  0  0  0  0  0  0  0  0
  -87.6405   28.7726   -2.6112 C   0  0  0  0  0  0  0  0  0  0  0  0
  -89.9667   28.1303   -2.4905 C   0  0  0  0  0  0  0  0  0  0  0  0
 25 26  1  0  0  0
 26 10  1  0  0  0
 10 11  2  0  0  0
 11 12  1  0  0  0
 12 13  2  0  0  0
 13 14  1  0  0  0
 14 15  2  0  0  0
 15  8  1  0  0  0
  8  1  1  0  0  0
  1  2  2  0  0  0
  2  3  1  0  0  0
  3  4  2  0  0  0
  4  5  1  0  0  0
  4  6  1  0  0  0
  6 27  1  0  0  0
 27 29  1  0  0  0
 29 30  2  0  0  0
 30 31  1  0  0  0
 31 32  2  0  0  0
 32 33  1  0  0  0
 33 34  2  0  0  0
 34 35  1  0  0  0
 35 36  2  0  0  0
 35 37  2  0  0  0
 35 38  1  0  0  0
 38 39  1  0  0  0
 38 40  1  0  0  0
  6  7  2  0  0  0
 12 16  1  0  0  0
 16 17  1  0  0  0
 17 18  1  0  0  0
 18 19  1  0  0  0
 19 20  1  0  0  0
 20 21  1  0  0  0
 19 22  1  0  0  0
 22 23  1  0  0  0
 22 24  1  0  0  0
 15 10  1  0  0  0
  7  1  1  0  0  0
 21 16  1  0  0  0
 34 29  1  0  0  0
  8  9  1  0  0  0
 27 28  1  0  0  0
M  END
> <minimizedAffinity>
-7.98920

> <CNNscore>
0.5985919833

> <CNNaffinity>
7.5793256760

> <CNN_VS>
4.5369234085

> <CNNaffinity_variance>
0.1818461418

$$$$
[H]c1nc(N([H])c2c([H])c([H])c(N3C([H])([H])C([H])([H])C([H])(N(C([H])([H])[H])C([H])([H])[H])C([H])([H])C3([H])[H])c([H])c2OC([H])([H])[H])nc(N([H])c2c([H])c([H])c([H])c([H])c2S(=O)(=O)C([H])(C([H])([H])[H])C([H])([H])[H])c1Cl


 40 43  0  0  0  0  0  0  0  0999 V2000
  -85.6317   33.2078   -1.8558 C   0  0  0  0  0  0  0  0  0  0  0  0
  -84.5144   33.3677   -1.1547 N   0  0  0  0  0  0  0  0  0  0  0  0
  -84.2560   32.6988   -0.0240 C   0  0  0  0  0  0  0  0  0  0  0  0
  -85.1549   31.7956    0.4748 C   0  0  0  0  0  0  0  0  0  0  0  0
  -84.8651   30.8877    1.9413 Cl  0  0  0  0  0  0  0  0  0  0  0  0
  -86.3626   31.5839   -0.2293 C   0  0  0  0  0  0  0  0  0  0  0  0
  -86.5008   32.2986   -1.3240 N   0  0  0  0  0  0  0  0  0  0  0  0
  -85.9892   33.8713   -3.0605 N   0  0  0  0  0  0  0  0  0  0  0  0
  -85.1787   34.1073   -3.7385 H   0  0  0  0  0  0  0  0  0  0  0  0
  -87.9817   33.3602   -4.2989 C   0  0  0  0  0  0  0  0  0  0  0  0
  -89.2199   33.7338   -4.7203 C   0  0  0  0  0  0  0  0  0  0  0  0
  -89.7989   34.9329   -4.3996 C   0  0  0  0  0  0  0  0  0  0  0  0
  -89.0756   35.7892   -3.6102 C   0  0  0  0  0  0  0  0  0  0  0  0
  -87.8061   35.4642   -3.1489 C   0  0  0  0  0  0  0  0  0  0  0  0
  -87.2486   34.2585   -3.4836 C   0  0  0  0  0  0  0  0  0  0  0  0
  -91.1090   35.3237   -4.8461 N   0  0  0  0  0  0  0  0  0  0  0  0
  -91.6452   34.5681   -5.9516 C   0  0  0  0  0  0  0  0  0  0  0  0
  -93.0631   34.8449   -6.2947 C   0  0  0  0  0  0  0  0  0  0  0  0
  -93.8034   35.5549   -5.2036 C   0  0  0  0  0  0  0  0  0  0  0  0
  -93.0523   36.8267   -4.8675 C   0  0  0  0  0  0  0  0  0  0  0  0
  -91.7749   36.4006   -4.1898 C   0  0  0  0  0  0  0  0  0  0  0  0
  -95.1725   35.8014   -5.5857 N   0  0  0  0  0  0  0  0  0  0  0  0
  -95.8523   36.6802   -4.6821 C   0  0  0  0  0  0  0  0  0  0  0  0
  -95.3075   36.1963   -6.9683 C   0  0  0  0  0  0  0  0  0  0  0  0
  -88.0704   30.9523   -4.3312 C   0  0  0  0  0  0  0  0  0  0  0  0
  -87.4086   32.1477   -4.6292 O   0  0  0  0  0  0  0  0  0  0  0  0
  -87.3183   30.6856    0.2940 N   0  0  0  0  0  0  0  0  0  0  0  0
  -87.0851   30.2923    1.2287 H   0  0  0  0  0  0  0  0  0  0  0  0
  -88.4904   30.2755   -0.3350 C   0  0  0  0  0  0  0  0  0  0  0  0
  -89.4542   31.1602   -0.8195 C   0  0  0  0  0  0  0  0  0  0  0  0
  -90.5509   30.7242   -1.5479 C   0  0  0  0  0  0  0  0  0  0  0  0
  -90.7287   29.3970   -1.8212 C   0  0  0  0  0  0  0  0  0  0  0  0
  -89.7842   28.5290   -1.3453 C   0  0  0  0  0  0  0  0  0  0  0  0
  -88.6603   28.9165   -0.6035 C   0  0  0  0  0  0  0  0  0  0  0  0
  -87.6493   27.6804    0.0127 S   0  0  0  0  0  0  0  0  0  0  0  0
  -87.4381   26.6456   -1.1170 O   0  0  0  0  0  0  0  0  0  0  0  0
  -86.2384   28.1120    0.3301 O   0  0  0  0  0  0  0  0  0  0  0  0
  -88.3092   26.7407    1.3509 C   0  0  0  0  0  0  0  0  0  0  0  0
  -89.0599   27.6501    2.3287 C   0  0  0  0  0  0  0  0  0  0  0  0
  -89.2271   25.6498    0.9836 C   0  0  0  0  0  0  0  0  0  0  0  0
 25 26  1  0  0  0
 26 10  1  0  0  0
 10 11  2  0  0  0
 11 12  1  0  0  0
 12 13  2  0  0  0
 13 14  1  0  0  0
 14 15  2  0  0  0
 15  8  1  0  0  0
  8  1  1  0  0  0
  1  2  2  0  0  0
  2  3  1  0  0  0
  3  4  2  0  0  0
  4  5  1  0  0  0
  4  6  1  0  0  0
  6 27  1  0  0  0
 27 29  1  0  0  0
 29 30  2  0  0  0
 30 31  1  0  0  0
 31 32  2  0  0  0
 32 33  1  0  0  0
 33 34  2  0  0  0
 34 35  1  0  0  0
 35 36  2  0  0  0
 35 37  2  0  0  0
 35 38  1  0  0  0
 38 39  1  0  0  0
 38 40  1  0  0  0
  6  7  2  0  0  0
 12 16  1  0  0  0
 16 17  1  0  0  0
 17 18  1  0  0  0
 18 19  1  0  0  0
 19 20  1  0  0  0
 20 21  1  0  0  0
 19 22  1  0  0  0
 22 23  1  0  0  0
 22 24  1  0  0  0
 15 10  1  0  0  0
  7  1  1  0  0  0
 21 16  1  0  0  0
 34 29  1  0  0  0
  8  9  1  0  0  0
 27 28  1  0  0  0
M  END
> <minimizedAffinity>
-7.35451

> <CNNscore>
0.5802288651

> <CNNaffinity>
7.5118179321

> <CNN_VS>
4.3585734367

> <CNNaffinity_variance>
0.0772893280

$$$$
[H]c1nc(N([H])c2c([H])c([H])c(N3C([H])([H])C([H])([H])C([H])(N(C([H])([H])[H])C([H])([H])[H])C([H])([H])C3([H])[H])c([H])c2OC([H])([H])[H])nc(N([H])c2c([H])c([H])c([H])c([H])c2S(=O)(=O)C([H])(C([H])([H])[H])C([H])([H])[H])c1Cl


 40 43  0  0  0  0  0  0  0  0999 V2000
  -85.7511   33.0894   -2.0503 C   0  0  0  0  0  0  0  0  0  0  0  0
  -84.6374   33.4843   -1.4427 N   0  0  0  0  0  0  0  0  0  0  0  0
  -84.2629   33.0401   -0.2365 C   0  0  0  0  0  0  0  0  0  0  0  0
  -85.0307   32.1348    0.4442 C   0  0  0  0  0  0  0  0  0  0  0  0
  -84.5852   31.5140    2.0175 Cl  0  0  0  0  0  0  0  0  0  0  0  0
  -86.2281   31.6784   -0.1533 C   0  0  0  0  0  0  0  0  0  0  0  0
  -86.4875   32.1868   -1.3376 N   0  0  0  0  0  0  0  0  0  0  0  0
  -86.2259   33.5052   -3.3235 N   0  0  0  0  0  0  0  0  0  0  0  0
  -85.6931   33.1215   -4.1843 H   0  0  0  0  0  0  0  0  0  0  0  0
  -88.3379   33.8368   -4.4164 C   0  0  0  0  0  0  0  0  0  0  0  0
  -89.3860   34.6551   -4.7030 C   0  0  0  0  0  0  0  0  0  0  0  0
  -89.4842   35.9452   -4.2533 C   0  0  0  0  0  0  0  0  0  0  0  0
  -88.4608   36.4189   -3.4736 C   0  0  0  0  0  0  0  0  0  0  0  0
  -87.3640   35.6312   -3.1469 C   0  0  0  0  0  0  0  0  0  0  0  0
  -87.2890   34.3438   -3.6090 C   0  0  0  0  0  0  0  0  0  0  0  0
  -90.5947   36.8069   -4.5574 N   0  0  0  0  0  0  0  0  0  0  0  0
  -90.3605   37.7914   -5.5853 C   0  0  0  0  0  0  0  0  0  0  0  0
  -91.5528   38.5571   -6.0288 C   0  0  0  0  0  0  0  0  0  0  0  0
  -92.8452   37.9145   -5.6296 C   0  0  0  0  0  0  0  0  0  0  0  0
  -92.8356   37.7176   -4.1277 C   0  0  0  0  0  0  0  0  0  0  0  0
  -91.8194   36.6405   -3.8457 C   0  0  0  0  0  0  0  0  0  0  0  0
  -93.9705   38.6960   -6.0814 N   0  0  0  0  0  0  0  0  0  0  0  0
  -94.4357   39.6233   -5.0941 C   0  0  0  0  0  0  0  0  0  0  0  0
  -93.7489   39.3065   -7.3714 C   0  0  0  0  0  0  0  0  0  0  0  0
  -89.4003   31.7475   -4.9759 C   0  0  0  0  0  0  0  0  0  0  0  0
  -88.2505   32.5372   -4.8759 O   0  0  0  0  0  0  0  0  0  0  0  0
  -87.0520   30.7755    0.5539 N   0  0  0  0  0  0  0  0  0  0  0  0
  -87.8267   31.2165    1.0905 H   0  0  0  0  0  0  0  0  0  0  0  0
  -86.8943   29.3937    0.6126 C   0  0  0  0  0  0  0  0  0  0  0  0
  -85.8815   28.7645    1.3369 C   0  0  0  0  0  0  0  0  0  0  0  0
  -85.8246   27.3856    1.4736 C   0  0  0  0  0  0  0  0  0  0  0  0
  -86.7701   26.5841    0.8978 C   0  0  0  0  0  0  0  0  0  0  0  0
  -87.7630   27.2008    0.1866 C   0  0  0  0  0  0  0  0  0  0  0  0
  -87.8654   28.5879    0.0162 C   0  0  0  0  0  0  0  0  0  0  0  0
  -89.1062   29.1741   -1.0067 S   0  0  0  0  0  0  0  0  0  0  0  0
  -89.9012   30.2364   -0.2123 O   0  0  0  0  0  0  0  0  0  0  0  0
  -88.6261   29.9534   -2.2066 O   0  0  0  0  0  0  0  0  0  0  0  0
  -90.3207   27.9943   -1.4989 C   0  0  0  0  0  0  0  0  0  0  0  0
  -91.4091   27.8637   -0.4289 C   0  0  0  0  0  0  0  0  0  0  0  0
  -91.0008   28.2619   -2.7769 C   0  0  0  0  0  0  0  0  0  0  0  0
 25 26  1  0  0  0
 26 10  1  0  0  0
 10 11  2  0  0  0
 11 12  1  0  0  0
 12 13  2  0  0  0
 13 14  1  0  0  0
 14 15  2  0  0  0
 15  8  1  0  0  0
  8  1  1  0  0  0
  1  2  2  0  0  0
  2  3  1  0  0  0
  3  4  2  0  0  0
  4  5  1  0  0  0
  4  6  1  0  0  0
  6 27  1  0  0  0
 27 29  1  0  0  0
 29 30  2  0  0  0
 30 31  1  0  0  0
 31 32  2  0  0  0
 32 33  1  0  0  0
 33 34  2  0  0  0
 34 35  1  0  0  0
 35 36  2  0  0  0
 35 37  2  0  0  0
 35 38  1  0  0  0
 38 39  1  0  0  0
 38 40  1  0  0  0
  6  7  2  0  0  0
 12 16  1  0  0  0
 16 17  1  0  0  0
 17 18  1  0  0  0
 18 19  1  0  0  0
 19 20  1  0  0  0
 20 21  1  0  0  0
 19 22  1  0  0  0
 22 23  1  0  0  0
 22 24  1  0  0  0
 15 10  1  0  0  0
  7  1  1  0  0  0
 21 16  1  0  0  0
 34 29  1  0  0  0
  8  9  1  0  0  0
 27 28  1  0  0  0
M  END
> <minimizedAffinity>
-6.94639

> <CNNscore>
0.5727508664

> <CNNaffinity>
7.3965024948

> <CNN_VS>
4.2363533974

> <CNNaffinity_variance>
0.0881835371

$$$$
[H]c1nc(N([H])c2c([H])c([H])c(N3C([H])([H])C([H])([H])C([H])(N(C([H])([H])[H])C([H])([H])[H])C([H])([H])C3([H])[H])c([H])c2OC([H])([H])[H])nc(N([H])c2c([H])c([H])c([H])c([H])c2S(=O)(=O)C([H])(C([H])([H])[H])C([H])([H])[H])c1Cl


 40 43  0  0  0  0  0  0  0  0999 V2000
  -85.8042   29.3596    0.7499 C   0  0  0  0  0  0  0  0  0  0  0  0
  -84.7637   30.1354    1.0340 N   0  0  0  0  0  0  0  0  0  0  0  0
  -84.7180   31.4397    0.7353 C   0  0  0  0  0  0  0  0  0  0  0  0
  -85.7691   32.0500    0.1067 C   0  0  0  0  0  0  0  0  0  0  0  0
  -85.7671   33.7514   -0.2986 Cl  0  0  0  0  0  0  0  0  0  0  0  0
  -86.9046   31.2737   -0.2209 C   0  0  0  0  0  0  0  0  0  0  0  0
  -86.8305   30.0071    0.1234 N   0  0  0  0  0  0  0  0  0  0  0  0
  -85.9398   27.9726    1.0278 N   0  0  0  0  0  0  0  0  0  0  0  0
  -85.0314   27.4426    1.2849 H   0  0  0  0  0  0  0  0  0  0  0  0
  -87.5843   26.7711   -0.2437 C   0  0  0  0  0  0  0  0  0  0  0  0
  -88.7162   26.0171   -0.2679 C   0  0  0  0  0  0  0  0  0  0  0  0
  -89.4071   25.6526    0.8572 C   0  0  0  0  0  0  0  0  0  0  0  0
  -88.9155   26.0807    2.0633 C   0  0  0  0  0  0  0  0  0  0  0  0
  -87.7642   26.8532    2.1523 C   0  0  0  0  0  0  0  0  0  0  0  0
  -87.0909   27.2047    1.0124 C   0  0  0  0  0  0  0  0  0  0  0  0
  -90.6029   24.8541    0.8275 N   0  0  0  0  0  0  0  0  0  0  0  0
  -91.6928   25.3871    0.0475 C   0  0  0  0  0  0  0  0  0  0  0  0
  -92.8573   24.4841   -0.1352 C   0  0  0  0  0  0  0  0  0  0  0  0
  -92.5448   23.0528    0.1754 C   0  0  0  0  0  0  0  0  0  0  0  0
  -91.9982   22.9797    1.5862 C   0  0  0  0  0  0  0  0  0  0  0  0
  -90.6361   23.6245    1.5493 C   0  0  0  0  0  0  0  0  0  0  0  0
  -93.7063   22.2186   -0.0155 N   0  0  0  0  0  0  0  0  0  0  0  0
  -93.4695   20.8488    0.3285 C   0  0  0  0  0  0  0  0  0  0  0  0
  -94.8944   22.7600    0.6019 C   0  0  0  0  0  0  0  0  0  0  0  0
  -87.4989   27.9600   -2.3380 C   0  0  0  0  0  0  0  0  0  0  0  0
  -86.8962   27.1321   -1.3857 O   0  0  0  0  0  0  0  0  0  0  0  0
  -87.9805   31.8794   -0.9062 N   0  0  0  0  0  0  0  0  0  0  0  0
  -88.6649   32.3743   -0.2985 H   0  0  0  0  0  0  0  0  0  0  0  0
  -88.2056   31.8399   -2.2793 C   0  0  0  0  0  0  0  0  0  0  0  0
  -87.2808   32.2853   -3.2242 C   0  0  0  0  0  0  0  0  0  0  0  0
  -87.4854   32.1206   -4.5859 C   0  0  0  0  0  0  0  0  0  0  0  0
  -88.6128   31.5082   -5.0569 C   0  0  0  0  0  0  0  0  0  0  0  0
  -89.5204   31.0722   -4.1306 C   0  0  0  0  0  0  0  0  0  0  0  0
  -89.3635   31.2154   -2.7454 C   0  0  0  0  0  0  0  0  0  0  0  0
  -90.6583   30.7178   -1.7427 S   0  0  0  0  0  0  0  0  0  0  0  0
  -90.5971   31.5637   -0.4495 O   0  0  0  0  0  0  0  0  0  0  0  0
  -92.0340   31.0341   -2.2766 O   0  0  0  0  0  0  0  0  0  0  0  0
  -90.5983   29.0483   -1.1784 C   0  0  0  0  0  0  0  0  0  0  0  0
  -91.0952   28.9505    0.2673 C   0  0  0  0  0  0  0  0  0  0  0  0
  -91.3675   28.0717   -1.9670 C   0  0  0  0  0  0  0  0  0  0  0  0
 25 26  1  0  0  0
 26 10  1  0  0  0
 10 11  2  0  0  0
 11 12  1  0  0  0
 12 13  2  0  0  0
 13 14  1  0  0  0
 14 15  2  0  0  0
 15  8  1  0  0  0
  8  1  1  0  0  0
  1  2  2  0  0  0
  2  3  1  0  0  0
  3  4  2  0  0  0
  4  5  1  0  0  0
  4  6  1  0  0  0
  6 27  1  0  0  0
 27 29  1  0  0  0
 29 30  2  0  0  0
 30 31  1  0  0  0
 31 32  2  0  0  0
 32 33  1  0  0  0
 33 34  2  0  0  0
 34 35  1  0  0  0
 35 36  2  0  0  0
 35 37  2  0  0  0
 35 38  1  0  0  0
 38 39  1  0  0  0
 38 40  1  0  0  0
  6  7  2  0  0  0
 12 16  1  0  0  0
 16 17  1  0  0  0
 17 18  1  0  0  0
 18 19  1  0  0  0
 19 20  1  0  0  0
 20 21  1  0  0  0
 19 22  1  0  0  0
 22 23  1  0  0  0
 22 24  1  0  0  0
 15 10  1  0  0  0
  7  1  1  0  0  0
 21 16  1  0  0  0
 34 29  1  0  0  0
  8  9  1  0  0  0
 27 28  1  0  0  0
M  END
> <minimizedAffinity>
-6.85069

> <CNNscore>
0.0701768771

> <CNNaffinity>
6.7406640053

> <CNN_VS>
0.4730387628

> <CNNaffinity_variance>
0.2012304813

$$$$
[H]c1nc(N([H])c2c([H])c([H])c(N3C([H])([H])C([H])([H])C([H])(N(C([H])([H])[H])C([H])([H])[H])C([H])([H])C3([H])[H])c([H])c2OC([H])([H])[H])nc(N([H])c2c([H])c([H])c([H])c([H])c2S(=O)(=O)C([H])(C([H])([H])[H])C([H])([H])[H])c1Cl


 40 43  0  0  0  0  0  0  0  0999 V2000
  -85.7809   28.7459    1.8864 C   0  0  0  0  0  0  0  0  0  0  0  0
  -84.5033   29.0077    2.1405 N   0  0  0  0  0  0  0  0  0  0  0  0
  -83.8292   30.0067    1.5573 C   0  0  0  0  0  0  0  0  0  0  0  0
  -84.4416   30.8259    0.6483 C   0  0  0  0  0  0  0  0  0  0  0  0
  -83.6125   32.1510   -0.1363 Cl  0  0  0  0  0  0  0  0  0  0  0  0
  -85.8016   30.5948    0.3379 C   0  0  0  0  0  0  0  0  0  0  0  0
  -86.3537   29.5858    0.9747 N   0  0  0  0  0  0  0  0  0  0  0  0
  -86.5729   27.7120    2.4549 N   0  0  0  0  0  0  0  0  0  0  0  0
  -86.4205   27.5133    3.5082 H   0  0  0  0  0  0  0  0  0  0  0  0
  -88.8138   26.8510    2.4105 C   0  0  0  0  0  0  0  0  0  0  0  0
  -89.7515   26.0729    1.8059 C   0  0  0  0  0  0  0  0  0  0  0  0
  -89.5152   25.3500    0.6667 C   0  0  0  0  0  0  0  0  0  0  0  0
  -88.2596   25.4279    0.1216 C   0  0  0  0  0  0  0  0  0  0  0  0
  -87.2601   26.2054    0.6931 C   0  0  0  0  0  0  0  0  0  0  0  0
  -87.5213   26.9193    1.8327 C   0  0  0  0  0  0  0  0  0  0  0  0
  -90.5098   24.5293    0.0297 N   0  0  0  0  0  0  0  0  0  0  0  0
  -91.4347   25.2224   -0.8332 C   0  0  0  0  0  0  0  0  0  0  0  0
  -92.3423   24.3599   -1.6314 C   0  0  0  0  0  0  0  0  0  0  0  0
  -91.8834   22.9364   -1.7071 C   0  0  0  0  0  0  0  0  0  0  0  0
  -91.7161   22.4139   -0.2952 C   0  0  0  0  0  0  0  0  0  0  0  0
  -90.5201   23.1260    0.2836 C   0  0  0  0  0  0  0  0  0  0  0  0
  -92.7976   22.1412   -2.4902 N   0  0  0  0  0  0  0  0  0  0  0  0
  -93.7303   21.4117   -1.6848 C   0  0  0  0  0  0  0  0  0  0  0  0
  -93.4304   22.8924   -3.5491 C   0  0  0  0  0  0  0  0  0  0  0  0
  -90.3749   27.7273    4.0236 C   0  0  0  0  0  0  0  0  0  0  0  0
  -89.0645   27.5756    3.5593 O   0  0  0  0  0  0  0  0  0  0  0  0
  -86.4365   31.4057   -0.6283 N   0  0  0  0  0  0  0  0  0  0  0  0
  -86.1810   32.4137   -0.5915 H   0  0  0  0  0  0  0  0  0  0  0  0
  -87.3683   30.9819   -1.5715 C   0  0  0  0  0  0  0  0  0  0  0  0
  -87.8919   29.6893   -1.6096 C   0  0  0  0  0  0  0  0  0  0  0  0
  -88.9071   29.3340   -2.4850 C   0  0  0  0  0  0  0  0  0  0  0  0
  -89.4381   30.2479   -3.3514 C   0  0  0  0  0  0  0  0  0  0  0  0
  -88.9242   31.5154   -3.3150 C   0  0  0  0  0  0  0  0  0  0  0  0
  -87.8985   31.9255   -2.4528 C   0  0  0  0  0  0  0  0  0  0  0  0
  -87.2989   33.5187   -2.6311 S   0  0  0  0  0  0  0  0  0  0  0  0
  -87.2870   34.1711   -1.2291 O   0  0  0  0  0  0  0  0  0  0  0  0
  -85.8513   33.6105   -3.0479 O   0  0  0  0  0  0  0  0  0  0  0  0
  -88.2804   34.6059   -3.6128 C   0  0  0  0  0  0  0  0  0  0  0  0
  -88.0243   36.0644   -3.2206 C   0  0  0  0  0  0  0  0  0  0  0  0
  -88.0903   34.5102   -5.0695 C   0  0  0  0  0  0  0  0  0  0  0  0
 25 26  1  0  0  0
 26 10  1  0  0  0
 10 11  2  0  0  0
 11 12  1  0  0  0
 12 13  2  0  0  0
 13 14  1  0  0  0
 14 15  2  0  0  0
 15  8  1  0  0  0
  8  1  1  0  0  0
  1  2  2  0  0  0
  2  3  1  0  0  0
  3  4  2  0  0  0
  4  5  1  0  0  0
  4  6  1  0  0  0
  6 27  1  0  0  0
 27 29  1  0  0  0
 29 30  2  0  0  0
 30 31  1  0  0  0
 31 32  2  0  0  0
 32 33  1  0  0  0
 33 34  2  0  0  0
 34 35  1  0  0  0
 35 36  2  0  0  0
 35 37  2  0  0  0
 35 38  1  0  0  0
 38 39  1  0  0  0
 38 40  1  0  0  0
  6  7  2  0  0  0
 12 16  1  0  0  0
 16 17  1  0  0  0
 17 18  1  0  0  0
 18 19  1  0  0  0
 19 20  1  0  0  0
 20 21  1  0  0  0
 19 22  1  0  0  0
 22 23  1  0  0  0
 22 24  1  0  0  0
 15 10  1  0  0  0
  7  1  1  0  0  0
 21 16  1  0  0  0
 34 29  1  0  0  0
  8  9  1  0  0  0
 27 28  1  0  0  0
M  END
> <minimizedAffinity>
-7.51389

> <CNNscore>
0.0632366389

> <CNNaffinity>
6.9375152588

> <CNN_VS>
0.4387051463

> <CNNaffinity_variance>
0.1002026647

$$$$
[H]c1nc(N([H])c2c([H])c([H])c(N3C([H])([H])C([H])([H])C([H])(N(C([H])([H])[H])C([H])([H])[H])C([H])([H])C3([H])[H])c([H])c2OC([H])([H])[H])nc(N([H])c2c([H])c([H])c([H])c([H])c2S(=O)(=O)C([H])(C([H])([H])[H])C([H])([H])[H])c1Cl


 40 43  0  0  0  0  0  0  0  0999 V2000
  -88.1366   29.3616   -2.7220 C   0  0  0  0  0  0  0  0  0  0  0  0
  -88.6611   30.3199   -3.4782 N   0  0  0  0  0  0  0  0  0  0  0  0
  -88.5554   31.6229   -3.1891 C   0  0  0  0  0  0  0  0  0  0  0  0
  -87.8843   32.0386   -2.0715 C   0  0  0  0  0  0  0  0  0  0  0  0
  -87.7073   33.7270   -1.6507 Cl  0  0  0  0  0  0  0  0  0  0  0  0
  -87.3049   31.0627   -1.2282 C   0  0  0  0  0  0  0  0  0  0  0  0
  -87.4762   29.8188   -1.6176 N   0  0  0  0  0  0  0  0  0  0  0  0
  -88.1987   27.9603   -2.9496 N   0  0  0  0  0  0  0  0  0  0  0  0
  -87.8107   27.6093   -3.8975 H   0  0  0  0  0  0  0  0  0  0  0  0
  -89.9268   26.3679   -2.4567 C   0  0  0  0  0  0  0  0  0  0  0  0
  -90.4221   25.4021   -1.6369 C   0  0  0  0  0  0  0  0  0  0  0  0
  -89.7947   24.9851   -0.4930 C   0  0  0  0  0  0  0  0  0  0  0  0
  -88.6042   25.5857   -0.1742 C   0  0  0  0  0  0  0  0  0  0  0  0
  -88.0478   26.5779   -0.9717 C   0  0  0  0  0  0  0  0  0  0  0  0
  -88.6947   26.9776   -2.1110 C   0  0  0  0  0  0  0  0  0  0  0  0
  -90.3212   23.9626    0.3706 N   0  0  0  0  0  0  0  0  0  0  0  0
  -91.0003   22.8743   -0.2889 C   0  0  0  0  0  0  0  0  0  0  0  0
  -91.3822   21.7317    0.5792 C   0  0  0  0  0  0  0  0  0  0  0  0
  -90.6573   21.7220    1.8895 C   0  0  0  0  0  0  0  0  0  0  0  0
  -90.8982   23.0499    2.5773 C   0  0  0  0  0  0  0  0  0  0  0  0
  -90.1457   24.0850    1.7806 C   0  0  0  0  0  0  0  0  0  0  0  0
  -91.0639   20.5962    2.6949 N   0  0  0  0  0  0  0  0  0  0  0  0
  -91.7419   19.5871    1.9381 C   0  0  0  0  0  0  0  0  0  0  0  0
  -89.9916   20.0700    3.5069 C   0  0  0  0  0  0  0  0  0  0  0  0
  -91.8202   27.3999   -3.5321 C   0  0  0  0  0  0  0  0  0  0  0  0
  -90.5691   26.7797   -3.6080 O   0  0  0  0  0  0  0  0  0  0  0  0
  -86.6443   31.4734   -0.0496 N   0  0  0  0  0  0  0  0  0  0  0  0
  -87.2729   31.7454    0.7337 H   0  0  0  0  0  0  0  0  0  0  0  0
  -85.2671   31.5696    0.1286 C   0  0  0  0  0  0  0  0  0  0  0  0
  -84.4697   32.5079   -0.5273 C   0  0  0  0  0  0  0  0  0  0  0  0
  -83.1218   32.6569   -0.2369 C   0  0  0  0  0  0  0  0  0  0  0  0
  -82.5193   31.8818    0.7139 C   0  0  0  0  0  0  0  0  0  0  0  0
  -83.3008   30.9609    1.3567 C   0  0  0  0  0  0  0  0  0  0  0  0
  -84.6649   30.7686    1.1000 C   0  0  0  0  0  0  0  0  0  0  0  0
  -85.4547   29.4876    1.9154 S   0  0  0  0  0  0  0  0  0  0  0  0
  -85.4069   29.7999    3.4293 O   0  0  0  0  0  0  0  0  0  0  0  0
  -86.9363   29.3817    1.6490 O   0  0  0  0  0  0  0  0  0  0  0  0
  -84.6999   27.9006    1.7708 C   0  0  0  0  0  0  0  0  0  0  0  0
  -83.5313   27.7687    2.7524 C   0  0  0  0  0  0  0  0  0  0  0  0
  -85.5823   26.7429    1.9911 C   0  0  0  0  0  0  0  0  0  0  0  0
 25 26  1  0  0  0
 26 10  1  0  0  0
 10 11  2  0  0  0
 11 12  1  0  0  0
 12 13  2  0  0  0
 13 14  1  0  0  0
 14 15  2  0  0  0
 15  8  1  0  0  0
  8  1  1  0  0  0
  1  2  2  0  0  0
  2  3  1  0  0  0
  3  4  2  0  0  0
  4  5  1  0  0  0
  4  6  1  0  0  0
  6 27  1  0  0  0
 27 29  1  0  0  0
 29 30  2  0  0  0
 30 31  1  0  0  0
 31 32  2  0  0  0
 32 33  1  0  0  0
 33 34  2  0  0  0
 34 35  1  0  0  0
 35 36  2  0  0  0
 35 37  2  0  0  0
 35 38  1  0  0  0
 38 39  1  0  0  0
 38 40  1  0  0  0
  6  7  2  0  0  0
 12 16  1  0  0  0
 16 17  1  0  0  0
 17 18  1  0  0  0
 18 19  1  0  0  0
 19 20  1  0  0  0
 20 21  1  0  0  0
 19 22  1  0  0  0
 22 23  1  0  0  0
 22 24  1  0  0  0
 15 10  1  0  0  0
  7  1  1  0  0  0
 21 16  1  0  0  0
 34 29  1  0  0  0
  8  9  1  0  0  0
 27 28  1  0  0  0
M  END
> <minimizedAffinity>
-8.96831

> <CNNscore>
0.0532580130

> <CNNaffinity>
6.6731667519

> <CNN_VS>
0.3553996086

> <CNNaffinity_variance>
0.6567218900

$$$$
[H]c1nc(N([H])c2c([H])c([H])c(N3C([H])([H])C([H])([H])C([H])(N(C([H])([H])[H])C([H])([H])[H])C([H])([H])C3([H])[H])c([H])c2OC([H])([H])[H])nc(N([H])c2c([H])c([H])c([H])c([H])c2S(=O)(=O)C([H])(C([H])([H])[H])C([H])([H])[H])c1Cl


 40 43  0  0  0  0  0  0  0  0999 V2000
  -89.1747   31.0651   -3.3052 C   0  0  0  0  0  0  0  0  0  0  0  0
  -89.0737   32.1354   -4.0860 N   0  0  0  0  0  0  0  0  0  0  0  0
  -88.3254   33.2015   -3.7759 C   0  0  0  0  0  0  0  0  0  0  0  0
  -87.6112   33.2387   -2.6094 C   0  0  0  0  0  0  0  0  0  0  0  0
  -86.6106   34.6006   -2.1588 Cl  0  0  0  0  0  0  0  0  0  0  0  0
  -87.6804   32.1272   -1.7381 C   0  0  0  0  0  0  0  0  0  0  0  0
  -88.4472   31.1430   -2.1521 N   0  0  0  0  0  0  0  0  0  0  0  0
  -89.9410   29.8941   -3.5519 N   0  0  0  0  0  0  0  0  0  0  0  0
  -90.6316   29.9378   -4.3845 H   0  0  0  0  0  0  0  0  0  0  0  0
  -91.1590   28.0683   -2.5784 C   0  0  0  0  0  0  0  0  0  0  0  0
  -91.1468   26.8904   -1.8981 C   0  0  0  0  0  0  0  0  0  0  0  0
  -90.0004   26.2751   -1.4702 C   0  0  0  0  0  0  0  0  0  0  0  0
  -88.8109   26.8957   -1.7522 C   0  0  0  0  0  0  0  0  0  0  0  0
  -88.7588   28.0997   -2.4433 C   0  0  0  0  0  0  0  0  0  0  0  0
  -89.9195   28.6953   -2.8609 C   0  0  0  0  0  0  0  0  0  0  0  0
  -89.9917   25.0289   -0.7523 N   0  0  0  0  0  0  0  0  0  0  0  0
  -90.1761   25.1269    0.6749 C   0  0  0  0  0  0  0  0  0  0  0  0
  -90.3506   23.8388    1.3927 C   0  0  0  0  0  0  0  0  0  0  0  0
  -90.7006   22.7022    0.4826 C   0  0  0  0  0  0  0  0  0  0  0  0
  -89.6342   22.6038   -0.5887 C   0  0  0  0  0  0  0  0  0  0  0  0
  -89.8060   23.8124   -1.4732 C   0  0  0  0  0  0  0  0  0  0  0  0
  -90.8574   21.4760    1.2262 N   0  0  0  0  0  0  0  0  0  0  0  0
  -90.6636   21.6510    2.6343 C   0  0  0  0  0  0  0  0  0  0  0  0
  -92.0798   20.7769    0.9057 C   0  0  0  0  0  0  0  0  0  0  0  0
  -93.2525   29.1490   -2.0726 C   0  0  0  0  0  0  0  0  0  0  0  0
  -92.3222   28.6788   -3.0048 O   0  0  0  0  0  0  0  0  0  0  0  0
  -86.9818   32.1672   -0.5114 N   0  0  0  0  0  0  0  0  0  0  0  0
  -87.5753   32.3379    0.3261 H   0  0  0  0  0  0  0  0  0  0  0  0
  -85.6063   32.0329   -0.3453 C   0  0  0  0  0  0  0  0  0  0  0  0
  -84.6978   33.0646   -0.5829 C   0  0  0  0  0  0  0  0  0  0  0  0
  -83.3480   32.9356   -0.2920 C   0  0  0  0  0  0  0  0  0  0  0  0
  -82.8534   31.7802    0.2449 C   0  0  0  0  0  0  0  0  0  0  0  0
  -83.7440   30.7678    0.4771 C   0  0  0  0  0  0  0  0  0  0  0  0
  -85.1154   30.8456    0.1999 C   0  0  0  0  0  0  0  0  0  0  0  0
  -86.0571   29.4372    0.4433 S   0  0  0  0  0  0  0  0  0  0  0  0
  -87.5373   29.8765    0.5312 O   0  0  0  0  0  0  0  0  0  0  0  0
  -86.0698   28.4722   -0.7169 O   0  0  0  0  0  0  0  0  0  0  0  0
  -85.7674   28.5674    1.9495 C   0  0  0  0  0  0  0  0  0  0  0  0
  -86.6612   27.3263    2.0351 C   0  0  0  0  0  0  0  0  0  0  0  0
  -84.3840   28.1206    2.1818 C   0  0  0  0  0  0  0  0  0  0  0  0
 25 26  1  0  0  0
 26 10  1  0  0  0
 10 11  2  0  0  0
 11 12  1  0  0  0
 12 13  2  0  0  0
 13 14  1  0  0  0
 14 15  2  0  0  0
 15  8  1  0  0  0
  8  1  1  0  0  0
  1  2  2  0  0  0
  2  3  1  0  0  0
  3  4  2  0  0  0
  4  5  1  0  0  0
  4  6  1  0  0  0
  6 27  1  0  0  0
 27 29  1  0  0  0
 29 30  2  0  0  0
 30 31  1  0  0  0
 31 32  2  0  0  0
 32 33  1  0  0  0
 33 34  2  0  0  0
 34 35  1  0  0  0
 35 36  2  0  0  0
 35 37  2  0  0  0
 35 38  1  0  0  0
 38 39  1  0  0  0
 38 40  1  0  0  0
  6  7  2  0  0  0
 12 16  1  0  0  0
 16 17  1  0  0  0
 17 18  1  0  0  0
 18 19  1  0  0  0
 19 20  1  0  0  0
 20 21  1  0  0  0
 19 22  1  0  0  0
 22 23  1  0  0  0
 22 24  1  0  0  0
 15 10  1  0  0  0
  7  1  1  0  0  0
 21 16  1  0  0  0
 34 29  1  0  0  0
  8  9  1  0  0  0
 27 28  1  0  0  0
M  END
> <minimizedAffinity>
-7.85432

> <CNNscore>
0.0404594541

> <CNNaffinity>
6.6286001205

> <CNN_VS>
0.2681895494

> <CNNaffinity_variance>
0.5809882283

$$$$
[H]c1nc(N([H])c2c([H])c([H])c(N3C([H])([H])C([H])([H])C([H])(N(C([H])([H])[H])C([H])([H])[H])C([H])([H])C3([H])[H])c([H])c2OC([H])([H])[H])nc(N([H])c2c([H])c([H])c([H])c([H])c2S(=O)(=O)C([H])(C([H])([H])[H])C([H])([H])[H])c1Cl


 40 43  0  0  0  0  0  0  0  0999 V2000
  -89.6420   30.9840   -3.0216 C   0  0  0  0  0  0  0  0  0  0  0  0
  -89.0632   31.7602   -3.9315 N   0  0  0  0  0  0  0  0  0  0  0  0
  -87.9673   32.4885   -3.6843 C   0  0  0  0  0  0  0  0  0  0  0  0
  -87.3772   32.4662   -2.4499 C   0  0  0  0  0  0  0  0  0  0  0  0
  -85.9400   33.3896   -2.0745 Cl  0  0  0  0  0  0  0  0  0  0  0  0
  -87.9495   31.6578   -1.4409 C   0  0  0  0  0  0  0  0  0  0  0  0
  -89.0222   30.9906   -1.8047 N   0  0  0  0  0  0  0  0  0  0  0  0
  -90.8011   30.1801   -3.1937 N   0  0  0  0  0  0  0  0  0  0  0  0
  -91.6686   30.6713   -3.6162 H   0  0  0  0  0  0  0  0  0  0  0  0
  -92.0899   28.4706   -2.1068 C   0  0  0  0  0  0  0  0  0  0  0  0
  -92.2598   27.1560   -1.8015 C   0  0  0  0  0  0  0  0  0  0  0  0
  -91.4038   26.1675   -2.2092 C   0  0  0  0  0  0  0  0  0  0  0  0
  -90.3235   26.5434   -2.9649 C   0  0  0  0  0  0  0  0  0  0  0  0
  -90.0964   27.8701   -3.3090 C   0  0  0  0  0  0  0  0  0  0  0  0
  -90.9672   28.8405   -2.8890 C   0  0  0  0  0  0  0  0  0  0  0  0
  -91.5876   24.7783   -1.8854 N   0  0  0  0  0  0  0  0  0  0  0  0
  -90.3977   24.0641   -1.4921 C   0  0  0  0  0  0  0  0  0  0  0  0
  -90.6115   22.6857   -0.9831 C   0  0  0  0  0  0  0  0  0  0  0  0
  -92.0323   22.4174   -0.5934 C   0  0  0  0  0  0  0  0  0  0  0  0
  -92.9178   22.7152   -1.7858 C   0  0  0  0  0  0  0  0  0  0  0  0
  -92.8932   24.2110   -1.9717 C   0  0  0  0  0  0  0  0  0  0  0  0
  -92.1875   21.0677   -0.1082 N   0  0  0  0  0  0  0  0  0  0  0  0
  -91.1824   20.6999    0.8434 C   0  0  0  0  0  0  0  0  0  0  0  0
  -93.5286   20.7852    0.3473 C   0  0  0  0  0  0  0  0  0  0  0  0
  -94.2678   29.4990   -2.1846 C   0  0  0  0  0  0  0  0  0  0  0  0
  -92.9605   29.4585   -1.6897 O   0  0  0  0  0  0  0  0  0  0  0  0
  -87.3763   31.6556   -0.1503 N   0  0  0  0  0  0  0  0  0  0  0  0
  -87.8949   32.2104    0.5610 H   0  0  0  0  0  0  0  0  0  0  0  0
  -86.1965   31.0181    0.2229 C   0  0  0  0  0  0  0  0  0  0  0  0
  -84.9485   31.6416    0.2143 C   0  0  0  0  0  0  0  0  0  0  0  0
  -83.8124   31.0170    0.7065 C   0  0  0  0  0  0  0  0  0  0  0  0
  -83.8751   29.7539    1.2246 C   0  0  0  0  0  0  0  0  0  0  0  0
  -85.0986   29.1417    1.2324 C   0  0  0  0  0  0  0  0  0  0  0  0
  -86.2756   29.7266    0.7461 C   0  0  0  0  0  0  0  0  0  0  0  0
  -87.6918   28.7655    0.7261 S   0  0  0  0  0  0  0  0  0  0  0  0
  -87.6557   27.8574    1.9774 O   0  0  0  0  0  0  0  0  0  0  0  0
  -88.9807   29.5284    0.9116 O   0  0  0  0  0  0  0  0  0  0  0  0
  -87.8428   27.6438   -0.6260 C   0  0  0  0  0  0  0  0  0  0  0  0
  -86.9057   28.0483   -1.7684 C   0  0  0  0  0  0  0  0  0  0  0  0
  -87.5713   26.2286   -0.3248 C   0  0  0  0  0  0  0  0  0  0  0  0
 25 26  1  0  0  0
 26 10  1  0  0  0
 10 11  2  0  0  0
 11 12  1  0  0  0
 12 13  2  0  0  0
 13 14  1  0  0  0
 14 15  2  0  0  0
 15  8  1  0  0  0
  8  1  1  0  0  0
  1  2  2  0  0  0
  2  3  1  0  0  0
  3  4  2  0  0  0
  4  5  1  0  0  0
  4  6  1  0  0  0
  6 27  1  0  0  0
 27 29  1  0  0  0
 29 30  2  0  0  0
 30 31  1  0  0  0
 31 32  2  0  0  0
 32 33  1  0  0  0
 33 34  2  0  0  0
 34 35  1  0  0  0
 35 36  2  0  0  0
 35 37  2  0  0  0
 35 38  1  0  0  0
 38 39  1  0  0  0
 38 40  1  0  0  0
  6  7  2  0  0  0
 12 16  1  0  0  0
 16 17  1  0  0  0
 17 18  1  0  0  0
 18 19  1  0  0  0
 19 20  1  0  0  0
 20 21  1  0  0  0
 19 22  1  0  0  0
 22 23  1  0  0  0
 22 24  1  0  0  0
 15 10  1  0  0  0
  7  1  1  0  0  0
 21 16  1  0  0  0
 34 29  1  0  0  0
  8  9  1  0  0  0
 27 28  1  0  0  0
M  END
> <minimizedAffinity>
-6.99673

> <CNNscore>
0.0381204970

> <CNNaffinity>
6.5561790466

> <CNN_VS>
0.2499248087

> <CNNaffinity_variance>
0.3570785224

$$$$
[H]c1nc(N([H])c2c([H])c([H])c(N3C([H])([H])C([H])([H])C([H])(N(C([H])([H])[H])C([H])([H])[H])C([H])([H])C3([H])[H])c([H])c2OC([H])([H])[H])nc(N([H])c2c([H])c([H])c([H])c([H])c2S(=O)(=O)C([H])(C([H])([H])[H])C([H])([H])[H])c1Cl


 40 43  0  0  0  0  0  0  0  0999 V2000
  -86.8119   27.0697    1.6935 C   0  0  0  0  0  0  0  0  0  0  0  0
  -85.7101   27.2742    2.4075 N   0  0  0  0  0  0  0  0  0  0  0  0
  -84.8086   28.2185    2.1108 C   0  0  0  0  0  0  0  0  0  0  0  0
  -84.9852   29.0384    1.0296 C   0  0  0  0  0  0  0  0  0  0  0  0
  -83.8452   30.2939    0.6015 Cl  0  0  0  0  0  0  0  0  0  0  0  0
  -86.1401   28.8669    0.2321 C   0  0  0  0  0  0  0  0  0  0  0  0
  -86.9495   27.9082    0.6244 N   0  0  0  0  0  0  0  0  0  0  0  0
  -87.8191   26.0961    1.9324 N   0  0  0  0  0  0  0  0  0  0  0  0
  -87.8280   25.6448    2.9165 H   0  0  0  0  0  0  0  0  0  0  0  0
  -90.1368   25.6170    1.5283 C   0  0  0  0  0  0  0  0  0  0  0  0
  -91.1048   25.1741    0.6815 C   0  0  0  0  0  0  0  0  0  0  0  0
  -90.8568   24.7536   -0.5982 C   0  0  0  0  0  0  0  0  0  0  0  0
  -89.5561   24.7883   -1.0305 C   0  0  0  0  0  0  0  0  0  0  0  0
  -88.5240   25.2302   -0.2122 C   0  0  0  0  0  0  0  0  0  0  0  0
  -88.7979   25.6457    1.0640 C   0  0  0  0  0  0  0  0  0  0  0  0
  -91.8833   24.2873   -1.4910 N   0  0  0  0  0  0  0  0  0  0  0  0
  -93.1905   24.8663   -1.2994 C   0  0  0  0  0  0  0  0  0  0  0  0
  -94.2038   24.5267   -2.3303 C   0  0  0  0  0  0  0  0  0  0  0  0
  -93.6019   23.9769   -3.5865 C   0  0  0  0  0  0  0  0  0  0  0  0
  -92.7527   22.7766   -3.2224 C   0  0  0  0  0  0  0  0  0  0  0  0
  -91.5559   23.3114   -2.4781 C   0  0  0  0  0  0  0  0  0  0  0  0
  -94.6253   23.6621   -4.5534 N   0  0  0  0  0  0  0  0  0  0  0  0
  -95.9117   23.4631   -3.9565 C   0  0  0  0  0  0  0  0  0  0  0  0
  -94.6530   24.5860   -5.6631 C   0  0  0  0  0  0  0  0  0  0  0  0
  -90.7590   25.1121    3.8009 C   0  0  0  0  0  0  0  0  0  0  0  0
  -90.3998   26.0387    2.8170 O   0  0  0  0  0  0  0  0  0  0  0  0
  -86.3164   29.6778   -0.9105 N   0  0  0  0  0  0  0  0  0  0  0  0
  -85.7487   29.4004   -1.7372 H   0  0  0  0  0  0  0  0  0  0  0  0
  -87.1371   30.7983   -1.0034 C   0  0  0  0  0  0  0  0  0  0  0  0
  -86.7505   32.0723   -0.5866 C   0  0  0  0  0  0  0  0  0  0  0  0
  -87.5447   33.1882   -0.8040 C   0  0  0  0  0  0  0  0  0  0  0  0
  -88.7482   33.0791   -1.4425 C   0  0  0  0  0  0  0  0  0  0  0  0
  -89.1280   31.8296   -1.8505 C   0  0  0  0  0  0  0  0  0  0  0  0
  -88.3652   30.6706   -1.6541 C   0  0  0  0  0  0  0  0  0  0  0  0
  -89.0543   29.1759   -2.1238 S   0  0  0  0  0  0  0  0  0  0  0  0
  -89.8990   29.4316   -3.3938 O   0  0  0  0  0  0  0  0  0  0  0  0
  -88.0637   28.1383   -2.5923 O   0  0  0  0  0  0  0  0  0  0  0  0
  -90.1875   28.4566   -0.9804 C   0  0  0  0  0  0  0  0  0  0  0  0
  -90.2168   29.2579    0.3249 C   0  0  0  0  0  0  0  0  0  0  0  0
  -91.5798   28.3318   -1.4423 C   0  0  0  0  0  0  0  0  0  0  0  0
 25 26  1  0  0  0
 26 10  1  0  0  0
 10 11  2  0  0  0
 11 12  1  0  0  0
 12 13  2  0  0  0
 13 14  1  0  0  0
 14 15  2  0  0  0
 15  8  1  0  0  0
  8  1  1  0  0  0
  1  2  2  0  0  0
  2  3  1  0  0  0
  3  4  2  0  0  0
  4  5  1  0  0  0
  4  6  1  0  0  0
  6 27  1  0  0  0
 27 29  1  0  0  0
 29 30  2  0  0  0
 30 31  1  0  0  0
 31 32  2  0  0  0
 32 33  1  0  0  0
 33 34  2  0  0  0
 34 35  1  0  0  0
 35 36  2  0  0  0
 35 37  2  0  0  0
 35 38  1  0  0  0
 38 39  1  0  0  0
 38 40  1  0  0  0
  6  7  2  0  0  0
 12 16  1  0  0  0
 16 17  1  0  0  0
 17 18  1  0  0  0
 18 19  1  0  0  0
 19 20  1  0  0  0
 20 21  1  0  0  0
 19 22  1  0  0  0
 22 23  1  0  0  0
 22 24  1  0  0  0
 15 10  1  0  0  0
  7  1  1  0  0  0
 21 16  1  0  0  0
 34 29  1  0  0  0
  8  9  1  0  0  0
 27 28  1  0  0  0
M  END
> <minimizedAffinity>
-7.69427

> <CNNscore>
0.0282250755

> <CNNaffinity>
6.5479826927

> <CNN_VS>
0.1848172992

> <CNNaffinity_variance>
0.3155752420

$$$$
[H]OP(=O)(O[H])C(F)(F)c1c([H])c([H])c(-c2c([H])c([H])c(-c3c(C([H])([H])c4c([H])c([H])c(-c5c([H])c([H])c([H])c([H])c5[H])c([H])c4[H])sc4c([H])c([H])c([H])c([H])c34)c([H])c2[H])c([H])c1[H]


 43 48  0  0  0  0  0  0  0  0999 V2000
  -91.5252   26.8925   -0.8461 C   0  0  0  0  0  0  0  0  0  0  0  0
  -91.4703   26.6650    0.4908 C   0  0  0  0  0  0  0  0  0  0  0  0
  -92.0008   25.0568    0.6592 S   0  0  0  0  0  0  0  0  0  0  0  0
  -92.2851   24.6951   -0.9837 C   0  0  0  0  0  0  0  0  0  0  0  0
  -92.7672   23.5554   -1.6647 C   0  0  0  0  0  0  0  0  0  0  0  0
  -92.9302   23.5442   -3.0310 C   0  0  0  0  0  0  0  0  0  0  0  0
  -92.5976   24.6995   -3.6911 C   0  0  0  0  0  0  0  0  0  0  0  0
  -92.1377   25.7947   -3.0404 C   0  0  0  0  0  0  0  0  0  0  0  0
  -91.9564   25.8480   -1.6284 C   0  0  0  0  0  0  0  0  0  0  0  0
  -90.5529   30.6535   -2.5464 C   0  0  0  0  0  0  0  0  0  0  0  0
  -89.5229   29.7706   -2.2657 C   0  0  0  0  0  0  0  0  0  0  0  0
  -89.8881   28.5540   -1.7147 C   0  0  0  0  0  0  0  0  0  0  0  0
  -91.1947   28.2180   -1.4510 C   0  0  0  0  0  0  0  0  0  0  0  0
  -92.1935   29.1088   -1.7398 C   0  0  0  0  0  0  0  0  0  0  0  0
  -91.8780   30.3180   -2.2851 C   0  0  0  0  0  0  0  0  0  0  0  0
  -89.6481   34.5886   -3.8826 C   0  0  0  0  0  0  0  0  0  0  0  0
  -90.6966   33.8866   -4.4174 C   0  0  0  0  0  0  0  0  0  0  0  0
  -90.9703   32.6092   -3.9834 C   0  0  0  0  0  0  0  0  0  0  0  0
  -90.2177   31.9894   -3.0117 C   0  0  0  0  0  0  0  0  0  0  0  0
  -89.1557   32.7235   -2.4845 C   0  0  0  0  0  0  0  0  0  0  0  0
  -88.8808   33.9837   -2.9046 C   0  0  0  0  0  0  0  0  0  0  0  0
  -89.2897   35.9532   -4.3063 C   0  0  0  0  0  0  0  0  0  0  0  0
  -89.9562   36.8615   -3.5123 F   0  0  0  0  0  0  0  0  0  0  0  0
  -87.9236   36.1726   -4.1845 F   0  0  0  0  0  0  0  0  0  0  0  0
  -88.9144   37.6007   -6.6501 O   0  0  0  0  0  0  0  0  0  0  0  0
  -89.7241   36.2756   -6.0285 P   0  0  0  0  0  0  0  0  0  0  0  0
  -91.3914   36.5454   -6.1797 O   0  0  0  0  0  0  0  0  0  0  0  0
  -89.3115   35.0555   -6.8405 O   0  0  0  0  0  0  0  0  0  0  0  0
  -88.1303   37.8400   -6.0968 H   0  0  0  0  0  0  0  0  0  0  0  0
  -91.5528   37.0979   -6.9905 H   0  0  0  0  0  0  0  0  0  0  0  0
  -91.0469   27.6111    1.6084 C   0  0  0  0  0  0  0  0  0  0  0  0
  -90.4740   26.7013    2.6600 C   0  0  0  0  0  0  0  0  0  0  0  0
  -89.4190   25.8546    2.2426 C   0  0  0  0  0  0  0  0  0  0  0  0
  -88.8084   25.0156    3.1215 C   0  0  0  0  0  0  0  0  0  0  0  0
  -89.1974   24.9628    4.4430 C   0  0  0  0  0  0  0  0  0  0  0  0
  -90.2089   25.7642    4.8646 C   0  0  0  0  0  0  0  0  0  0  0  0
  -90.8420   26.6322    3.9625 C   0  0  0  0  0  0  0  0  0  0  0  0
  -88.4961   24.0969    5.3744 C   0  0  0  0  0  0  0  0  0  0  0  0
  -88.3991   22.7401    5.1576 C   0  0  0  0  0  0  0  0  0  0  0  0
  -87.7860   21.9023    6.0706 C   0  0  0  0  0  0  0  0  0  0  0  0
  -87.2519   22.4226    7.2351 C   0  0  0  0  0  0  0  0  0  0  0  0
  -87.3464   23.7786    7.4473 C   0  0  0  0  0  0  0  0  0  0  0  0
  -87.9510   24.6197    6.5520 C   0  0  0  0  0  0  0  0  0  0  0  0
 25 26  1  0  0  0
 26 27  1  0  0  0
 26 28  2  0  0  0
 26 22  1  0  0  0
 22 23  1  0  0  0
 22 24  1  0  0  0
 22 16  1  0  0  0
 16 17  2  0  0  0
 17 18  1  0  0  0
 18 19  2  0  0  0
 19 20  1  0  0  0
 20 21  2  0  0  0
 19 10  1  0  0  0
 10 11  2  0  0  0
 11 12  1  0  0  0
 12 13  2  0  0  0
 13 14  1  0  0  0
 14 15  2  0  0  0
 13  1  1  0  0  0
  1  2  2  0  0  0
  2 31  1  0  0  0
 31 32  1  0  0  0
 32 33  2  0  0  0
 33 34  1  0  0  0
 34 35  2  0  0  0
 35 36  1  0  0  0
 36 37  2  0  0  0
 35 38  1  0  0  0
 38 39  2  0  0  0
 39 40  1  0  0  0
 40 41  2  0  0  0
 41 42  1  0  0  0
 42 43  2  0  0  0
  2  3  1  0  0  0
  3  4  1  0  0  0
  4  5  2  0  0  0
  5  6  1  0  0  0
  6  7  2  0  0  0
  7  8  1  0  0  0
  8  9  2  0  0  0
 21 16  1  0  0  0
 15 10  1  0  0  0
  9  1  1  0  0  0
 37 32  1  0  0  0
 43 38  1  0  0  0
  9  4  1  0  0  0
 25 29  1  0  0  0
 27 30  1  0  0  0
M  END
> <minimizedAffinity>
-7.50523

> <CNNscore>
0.2778491676

> <CNNaffinity>
6.1390943527

> <CNN_VS>
1.7057422400

> <CNNaffinity_variance>
0.4231150150

$$$$
[H]OP(=O)(O[H])C(F)(F)c1c([H])c([H])c(-c2c([H])c([H])c(-c3c(C([H])([H])c4c([H])c([H])c(-c5c([H])c([H])c([H])c([H])c5[H])c([H])c4[H])sc4c([H])c([H])c([H])c([H])c34)c([H])c2[H])c([H])c1[H]


 43 48  0  0  0  0  0  0  0  0999 V2000
  -86.9443   30.7516   -0.9869 C   0  0  0  0  0  0  0  0  0  0  0  0
  -86.9035   31.7495   -1.9059 C   0  0  0  0  0  0  0  0  0  0  0  0
  -85.7321   32.8242   -1.2984 S   0  0  0  0  0  0  0  0  0  0  0  0
  -85.3082   31.9824    0.1237 C   0  0  0  0  0  0  0  0  0  0  0  0
  -84.4137   32.2444    1.1851 C   0  0  0  0  0  0  0  0  0  0  0  0
  -84.2860   31.3850    2.2522 C   0  0  0  0  0  0  0  0  0  0  0  0
  -85.0741   30.2628    2.2251 C   0  0  0  0  0  0  0  0  0  0  0  0
  -85.9345   30.0105    1.2100 C   0  0  0  0  0  0  0  0  0  0  0  0
  -86.0979   30.8743    0.0890 C   0  0  0  0  0  0  0  0  0  0  0  0
  -89.6473   27.4946   -1.2441 C   0  0  0  0  0  0  0  0  0  0  0  0
  -89.9898   28.5743   -0.4466 C   0  0  0  0  0  0  0  0  0  0  0  0
  -89.0786   29.6156   -0.3959 C   0  0  0  0  0  0  0  0  0  0  0  0
  -87.8920   29.6013   -1.0897 C   0  0  0  0  0  0  0  0  0  0  0  0
  -87.5790   28.5221   -1.8720 C   0  0  0  0  0  0  0  0  0  0  0  0
  -88.4493   27.4755   -1.9518 C   0  0  0  0  0  0  0  0  0  0  0  0
  -92.2217   24.1093   -1.2780 C   0  0  0  0  0  0  0  0  0  0  0  0
  -92.6510   25.3159   -0.7902 C   0  0  0  0  0  0  0  0  0  0  0  0
  -91.8027   26.4000   -0.7747 C   0  0  0  0  0  0  0  0  0  0  0  0
  -90.5090   26.3236   -1.2384 C   0  0  0  0  0  0  0  0  0  0  0  0
  -90.0954   25.0850   -1.7278 C   0  0  0  0  0  0  0  0  0  0  0  0
  -90.9258   24.0125   -1.7493 C   0  0  0  0  0  0  0  0  0  0  0  0
  -93.0695   22.9051   -1.3146 C   0  0  0  0  0  0  0  0  0  0  0  0
  -94.3900   23.2863   -1.4170 F   0  0  0  0  0  0  0  0  0  0  0  0
  -92.7516   22.1020   -2.4024 F   0  0  0  0  0  0  0  0  0  0  0  0
  -91.9736   22.6444    1.3461 O   0  0  0  0  0  0  0  0  0  0  0  0
  -92.8836   21.8871    0.1645 P   0  0  0  0  0  0  0  0  0  0  0  0
  -92.1430   20.4108   -0.2201 O   0  0  0  0  0  0  0  0  0  0  0  0
  -94.2757   21.6465    0.7323 O   0  0  0  0  0  0  0  0  0  0  0  0
  -91.9073   23.6181    1.1856 H   0  0  0  0  0  0  0  0  0  0  0  0
  -91.6914   20.0592    0.5931 H   0  0  0  0  0  0  0  0  0  0  0  0
  -87.7123   31.9064   -3.1884 C   0  0  0  0  0  0  0  0  0  0  0  0
  -88.0682   33.3672   -3.2196 C   0  0  0  0  0  0  0  0  0  0  0  0
  -87.0675   34.2412   -3.7083 C   0  0  0  0  0  0  0  0  0  0  0  0
  -87.2969   35.5778   -3.8088 C   0  0  0  0  0  0  0  0  0  0  0  0
  -88.5078   36.1222   -3.4379 C   0  0  0  0  0  0  0  0  0  0  0  0
  -89.4811   35.3030   -2.9639 C   0  0  0  0  0  0  0  0  0  0  0  0
  -89.2503   33.9233   -2.8588 C   0  0  0  0  0  0  0  0  0  0  0  0
  -88.7475   37.5451   -3.6029 C   0  0  0  0  0  0  0  0  0  0  0  0
  -89.8883   38.0133   -4.2165 C   0  0  0  0  0  0  0  0  0  0  0  0
  -90.0937   39.3636   -4.4312 C   0  0  0  0  0  0  0  0  0  0  0  0
  -89.1406   40.2800   -4.0265 C   0  0  0  0  0  0  0  0  0  0  0  0
  -88.0041   39.8101   -3.4100 C   0  0  0  0  0  0  0  0  0  0  0  0
  -87.7876   38.4759   -3.1914 C   0  0  0  0  0  0  0  0  0  0  0  0
 25 26  1  0  0  0
 26 27  1  0  0  0
 26 28  2  0  0  0
 26 22  1  0  0  0
 22 23  1  0  0  0
 22 24  1  0  0  0
 22 16  1  0  0  0
 16 17  2  0  0  0
 17 18  1  0  0  0
 18 19  2  0  0  0
 19 20  1  0  0  0
 20 21  2  0  0  0
 19 10  1  0  0  0
 10 11  2  0  0  0
 11 12  1  0  0  0
 12 13  2  0  0  0
 13 14  1  0  0  0
 14 15  2  0  0  0
 13  1  1  0  0  0
  1  2  2  0  0  0
  2 31  1  0  0  0
 31 32  1  0  0  0
 32 33  2  0  0  0
 33 34  1  0  0  0
 34 35  2  0  0  0
 35 36  1  0  0  0
 36 37  2  0  0  0
 35 38  1  0  0  0
 38 39  2  0  0  0
 39 40  1  0  0  0
 40 41  2  0  0  0
 41 42  1  0  0  0
 42 43  2  0  0  0
  2  3  1  0  0  0
  3  4  1  0  0  0
  4  5  2  0  0  0
  5  6  1  0  0  0
  6  7  2  0  0  0
  7  8  1  0  0  0
  8  9  2  0  0  0
 21 16  1  0  0  0
 15 10  1  0  0  0
  9  1  1  0  0  0
 37 32  1  0  0  0
 43 38  1  0  0  0
  9  4  1  0  0  0
 25 29  1  0  0  0
 27 30  1  0  0  0
M  END
> <minimizedAffinity>
-9.50972

> <CNNscore>
0.2747720480

> <CNNaffinity>
6.6289520264

> <CNN_VS>
1.8214507103

> <CNNaffinity_variance>
0.1743577570

$$$$
[H]OP(=O)(O[H])C(F)(F)c1c([H])c([H])c(-c2c([H])c([H])c(-c3c(C([H])([H])c4c([H])c([H])c(-c5c([H])c([H])c([H])c([H])c5[H])c([H])c4[H])sc4c([H])c([H])c([H])c([H])c34)c([H])c2[H])c([H])c1[H]


 43 48  0  0  0  0  0  0  0  0999 V2000
  -88.5716   32.8890   -3.4301 C   0  0  0  0  0  0  0  0  0  0  0  0
  -88.3173   33.9790   -4.1979 C   0  0  0  0  0  0  0  0  0  0  0  0
  -86.9790   34.7126   -3.4449 S   0  0  0  0  0  0  0  0  0  0  0  0
  -86.7607   33.6146   -2.1575 C   0  0  0  0  0  0  0  0  0  0  0  0
  -85.8610   33.5486   -1.0706 C   0  0  0  0  0  0  0  0  0  0  0  0
  -85.9274   32.5402   -0.1368 C   0  0  0  0  0  0  0  0  0  0  0  0
  -86.9139   31.6056   -0.3223 C   0  0  0  0  0  0  0  0  0  0  0  0
  -87.7796   31.6678   -1.3621 C   0  0  0  0  0  0  0  0  0  0  0  0
  -87.7460   32.6950   -2.3486 C   0  0  0  0  0  0  0  0  0  0  0  0
  -91.8357   30.2780   -4.1438 C   0  0  0  0  0  0  0  0  0  0  0  0
  -91.9396   31.1968   -3.1123 C   0  0  0  0  0  0  0  0  0  0  0  0
  -90.8512   32.0305   -2.9187 C   0  0  0  0  0  0  0  0  0  0  0  0
  -89.7181   31.9683   -3.6945 C   0  0  0  0  0  0  0  0  0  0  0  0
  -89.6424   31.0516   -4.7086 C   0  0  0  0  0  0  0  0  0  0  0  0
  -90.6928   30.2123   -4.9351 C   0  0  0  0  0  0  0  0  0  0  0  0
  -94.8826   27.3518   -4.6367 C   0  0  0  0  0  0  0  0  0  0  0  0
  -93.8642   27.4686   -5.5464 C   0  0  0  0  0  0  0  0  0  0  0  0
  -92.8914   28.4284   -5.3801 C   0  0  0  0  0  0  0  0  0  0  0  0
  -92.8968   29.2988   -4.3138 C   0  0  0  0  0  0  0  0  0  0  0  0
  -93.9440   29.1610   -3.4032 C   0  0  0  0  0  0  0  0  0  0  0  0
  -94.9050   28.2163   -3.5581 C   0  0  0  0  0  0  0  0  0  0  0  0
  -95.9628   26.3574   -4.7568 C   0  0  0  0  0  0  0  0  0  0  0  0
  -95.5917   25.2066   -4.0953 F   0  0  0  0  0  0  0  0  0  0  0  0
  -97.1435   26.8312   -4.1992 F   0  0  0  0  0  0  0  0  0  0  0  0
  -96.3336   27.2808   -7.4693 O   0  0  0  0  0  0  0  0  0  0  0  0
  -96.3227   25.9361   -6.4747 P   0  0  0  0  0  0  0  0  0  0  0  0
  -97.8295   25.1673   -6.5943 O   0  0  0  0  0  0  0  0  0  0  0  0
  -95.2173   25.0079   -6.9594 O   0  0  0  0  0  0  0  0  0  0  0  0
  -95.8795   28.0503   -7.0452 H   0  0  0  0  0  0  0  0  0  0  0  0
  -98.1876   25.3084   -7.5111 H   0  0  0  0  0  0  0  0  0  0  0  0
  -89.0474   34.4662   -5.4441 C   0  0  0  0  0  0  0  0  0  0  0  0
  -90.1991   35.2677   -4.9030 C   0  0  0  0  0  0  0  0  0  0  0  0
  -91.4930   34.7694   -5.1891 C   0  0  0  0  0  0  0  0  0  0  0  0
  -92.6028   35.3998   -4.7203 C   0  0  0  0  0  0  0  0  0  0  0  0
  -92.5030   36.5418   -3.9545 C   0  0  0  0  0  0  0  0  0  0  0  0
  -91.2722   37.0389   -3.6700 C   0  0  0  0  0  0  0  0  0  0  0  0
  -90.1237   36.3923   -4.1503 C   0  0  0  0  0  0  0  0  0  0  0  0
  -93.7002   37.1680   -3.4217 C   0  0  0  0  0  0  0  0  0  0  0  0
  -93.7759   38.5314   -3.2406 C   0  0  0  0  0  0  0  0  0  0  0  0
  -94.8892   39.1269   -2.6772 C   0  0  0  0  0  0  0  0  0  0  0  0
  -95.9617   38.3496   -2.2801 C   0  0  0  0  0  0  0  0  0  0  0  0
  -95.8852   36.9887   -2.4659 C   0  0  0  0  0  0  0  0  0  0  0  0
  -94.7890   36.3857   -3.0221 C   0  0  0  0  0  0  0  0  0  0  0  0
 25 26  1  0  0  0
 26 27  1  0  0  0
 26 28  2  0  0  0
 26 22  1  0  0  0
 22 23  1  0  0  0
 22 24  1  0  0  0
 22 16  1  0  0  0
 16 17  2  0  0  0
 17 18  1  0  0  0
 18 19  2  0  0  0
 19 20  1  0  0  0
 20 21  2  0  0  0
 19 10  1  0  0  0
 10 11  2  0  0  0
 11 12  1  0  0  0
 12 13  2  0  0  0
 13 14  1  0  0  0
 14 15  2  0  0  0
 13  1  1  0  0  0
  1  2  2  0  0  0
  2 31  1  0  0  0
 31 32  1  0  0  0
 32 33  2  0  0  0
 33 34  1  0  0  0
 34 35  2  0  0  0
 35 36  1  0  0  0
 36 37  2  0  0  0
 35 38  1  0  0  0
 38 39  2  0  0  0
 39 40  1  0  0  0
 40 41  2  0  0  0
 41 42  1  0  0  0
 42 43  2  0  0  0
  2  3  1  0  0  0
  3  4  1  0  0  0
  4  5  2  0  0  0
  5  6  1  0  0  0
  6  7  2  0  0  0
  7  8  1  0  0  0
  8  9  2  0  0  0
 21 16  1  0  0  0
 15 10  1  0  0  0
  9  1  1  0  0  0
 37 32  1  0  0  0
 43 38  1  0  0  0
  9  4  1  0  0  0
 25 29  1  0  0  0
 27 30  1  0  0  0
M  END
> <minimizedAffinity>
-5.97077

> <CNNscore>
0.2310012877

> <CNNaffinity>
6.2544965744

> <CNN_VS>
1.4447968006

> <CNNaffinity_variance>
0.9314219356

$$$$
[H]OP(=O)(O[H])C(F)(F)c1c([H])c([H])c(-c2c([H])c([H])c(-c3c(C([H])([H])c4c([H])c([H])c(-c5c([H])c([H])c([H])c([H])c5[H])c([H])c4[H])sc4c([H])c([H])c([H])c([H])c34)c([H])c2[H])c([H])c1[H]


 43 48  0  0  0  0  0  0  0  0999 V2000
  -87.6453   30.4626   -0.1975 C   0  0  0  0  0  0  0  0  0  0  0  0
  -88.4073   31.5836   -0.2664 C   0  0  0  0  0  0  0  0  0  0  0  0
  -87.2742   32.8480   -0.3827 S   0  0  0  0  0  0  0  0  0  0  0  0
  -85.8392   31.9261   -0.3430 C   0  0  0  0  0  0  0  0  0  0  0  0
  -84.4655   32.2539   -0.3685 C   0  0  0  0  0  0  0  0  0  0  0  0
  -83.4895   31.2870   -0.2926 C   0  0  0  0  0  0  0  0  0  0  0  0
  -83.9263   29.9907   -0.1920 C   0  0  0  0  0  0  0  0  0  0  0  0
  -85.2428   29.6737   -0.1645 C   0  0  0  0  0  0  0  0  0  0  0  0
  -86.2836   30.6437   -0.2389 C   0  0  0  0  0  0  0  0  0  0  0  0
  -89.3035   26.5947    0.3232 C   0  0  0  0  0  0  0  0  0  0  0  0
  -89.2923   27.4586    1.4060 C   0  0  0  0  0  0  0  0  0  0  0  0
  -88.7444   28.7114    1.1884 C   0  0  0  0  0  0  0  0  0  0  0  0
  -88.2327   29.0995   -0.0270 C   0  0  0  0  0  0  0  0  0  0  0  0
  -88.2578   28.2263   -1.0813 C   0  0  0  0  0  0  0  0  0  0  0  0
  -88.7903   26.9828   -0.9108 C   0  0  0  0  0  0  0  0  0  0  0  0
  -90.7030   22.6245    0.9297 C   0  0  0  0  0  0  0  0  0  0  0  0
  -90.8427   23.5774    1.9047 C   0  0  0  0  0  0  0  0  0  0  0  0
  -90.3741   24.8554    1.6988 C   0  0  0  0  0  0  0  0  0  0  0  0
  -89.7550   25.2279    0.5273 C   0  0  0  0  0  0  0  0  0  0  0  0
  -89.6234   24.2403   -0.4485 C   0  0  0  0  0  0  0  0  0  0  0  0
  -90.0847   22.9794   -0.2547 C   0  0  0  0  0  0  0  0  0  0  0  0
  -91.1690   21.2357    1.0849 C   0  0  0  0  0  0  0  0  0  0  0  0
  -90.2904   20.3908    0.4414 F   0  0  0  0  0  0  0  0  0  0  0  0
  -91.2329   20.8759    2.4250 F   0  0  0  0  0  0  0  0  0  0  0  0
  -92.8178   21.0451   -1.2801 O   0  0  0  0  0  0  0  0  0  0  0  0
  -92.8158   20.9805    0.3913 P   0  0  0  0  0  0  0  0  0  0  0  0
  -93.8941   22.1519    0.9754 O   0  0  0  0  0  0  0  0  0  0  0  0
  -93.2753   19.5887    0.8035 O   0  0  0  0  0  0  0  0  0  0  0  0
  -91.9068   20.9352   -1.6492 H   0  0  0  0  0  0  0  0  0  0  0  0
  -94.6330   22.2606    0.3190 H   0  0  0  0  0  0  0  0  0  0  0  0
  -89.9257   31.7147   -0.2382 C   0  0  0  0  0  0  0  0  0  0  0  0
  -90.3883   30.8523   -1.3800 C   0  0  0  0  0  0  0  0  0  0  0  0
  -91.3286   29.8443   -1.0573 C   0  0  0  0  0  0  0  0  0  0  0  0
  -91.8363   29.0297   -2.0204 C   0  0  0  0  0  0  0  0  0  0  0  0
  -91.4515   29.1589   -3.3379 C   0  0  0  0  0  0  0  0  0  0  0  0
  -90.5489   30.1171   -3.6697 C   0  0  0  0  0  0  0  0  0  0  0  0
  -90.0222   30.9608   -2.6804 C   0  0  0  0  0  0  0  0  0  0  0  0
  -92.0463   28.3118   -4.3566 C   0  0  0  0  0  0  0  0  0  0  0  0
  -92.2331   26.9632   -4.1478 C   0  0  0  0  0  0  0  0  0  0  0  0
  -92.7422   26.1406   -5.1357 C   0  0  0  0  0  0  0  0  0  0  0  0
  -93.0770   26.6683   -6.3691 C   0  0  0  0  0  0  0  0  0  0  0  0
  -92.8934   28.0163   -6.5737 C   0  0  0  0  0  0  0  0  0  0  0  0
  -92.3900   28.8423   -5.6047 C   0  0  0  0  0  0  0  0  0  0  0  0
 25 26  1  0  0  0
 26 27  1  0  0  0
 26 28  2  0  0  0
 26 22  1  0  0  0
 22 23  1  0  0  0
 22 24  1  0  0  0
 22 16  1  0  0  0
 16 17  2  0  0  0
 17 18  1  0  0  0
 18 19  2  0  0  0
 19 20  1  0  0  0
 20 21  2  0  0  0
 19 10  1  0  0  0
 10 11  2  0  0  0
 11 12  1  0  0  0
 12 13  2  0  0  0
 13 14  1  0  0  0
 14 15  2  0  0  0
 13  1  1  0  0  0
  1  2  2  0  0  0
  2 31  1  0  0  0
 31 32  1  0  0  0
 32 33  2  0  0  0
 33 34  1  0  0  0
 34 35  2  0  0  0
 35 36  1  0  0  0
 36 37  2  0  0  0
 35 38  1  0  0  0
 38 39  2  0  0  0
 39 40  1  0  0  0
 40 41  2  0  0  0
 41 42  1  0  0  0
 42 43  2  0  0  0
  2  3  1  0  0  0
  3  4  1  0  0  0
  4  5  2  0  0  0
  5  6  1  0  0  0
  6  7  2  0  0  0
  7  8  1  0  0  0
  8  9  2  0  0  0
 21 16  1  0  0  0
 15 10  1  0  0  0
  9  1  1  0  0  0
 37 32  1  0  0  0
 43 38  1  0  0  0
  9  4  1  0  0  0
 25 29  1  0  0  0
 27 30  1  0  0  0
M  END
> <minimizedAffinity>
-7.70216

> <CNNscore>
0.2176338583

> <CNNaffinity>
6.2759637833

> <CNN_VS>
1.3658622503

> <CNNaffinity_variance>
0.6484743357

$$$$
[H]OP(=O)(O[H])C(F)(F)c1c([H])c([H])c(-c2c([H])c([H])c(-c3c(C([H])([H])c4c([H])c([H])c(-c5c([H])c([H])c([H])c([H])c5[H])c([H])c4[H])sc4c([H])c([H])c([H])c([H])c34)c([H])c2[H])c([H])c1[H]


 43 48  0  0  0  0  0  0  0  0999 V2000
  -86.9992   31.0735   -1.6489 C   0  0  0  0  0  0  0  0  0  0  0  0
  -87.0972   29.7984   -1.1945 C   0  0  0  0  0  0  0  0  0  0  0  0
  -85.7577   29.6237   -0.1593 S   0  0  0  0  0  0  0  0  0  0  0  0
  -85.0896   31.1853   -0.3200 C   0  0  0  0  0  0  0  0  0  0  0  0
  -83.9436   31.8178    0.2108 C   0  0  0  0  0  0  0  0  0  0  0  0
  -83.6157   33.1135   -0.1162 C   0  0  0  0  0  0  0  0  0  0  0  0
  -84.4638   33.7535   -0.9836 C   0  0  0  0  0  0  0  0  0  0  0  0
  -85.5619   33.1486   -1.4962 C   0  0  0  0  0  0  0  0  0  0  0  0
  -85.9354   31.8095   -1.1849 C   0  0  0  0  0  0  0  0  0  0  0  0
  -89.6771   32.7067   -4.5024 C   0  0  0  0  0  0  0  0  0  0  0  0
  -88.5790   31.9966   -4.9595 C   0  0  0  0  0  0  0  0  0  0  0  0
  -87.7345   31.4791   -3.9920 C   0  0  0  0  0  0  0  0  0  0  0  0
  -87.9527   31.6481   -2.6454 C   0  0  0  0  0  0  0  0  0  0  0  0
  -89.0469   32.3530   -2.2208 C   0  0  0  0  0  0  0  0  0  0  0  0
  -89.9056   32.8783   -3.1404 C   0  0  0  0  0  0  0  0  0  0  0  0
  -92.2097   34.6956   -7.2809 C   0  0  0  0  0  0  0  0  0  0  0  0
  -92.7237   33.8189   -6.3614 C   0  0  0  0  0  0  0  0  0  0  0  0
  -91.8903   33.1734   -5.4760 C   0  0  0  0  0  0  0  0  0  0  0  0
  -90.5286   33.3740   -5.4738 C   0  0  0  0  0  0  0  0  0  0  0  0
  -90.0298   34.2691   -6.4196 C   0  0  0  0  0  0  0  0  0  0  0  0
  -90.8443   34.9114   -7.2939 C   0  0  0  0  0  0  0  0  0  0  0  0
  -93.0389   35.4121   -8.2654 C   0  0  0  0  0  0  0  0  0  0  0  0
  -92.3232   35.5617   -9.4338 F   0  0  0  0  0  0  0  0  0  0  0  0
  -94.2046   34.7100   -8.5434 F   0  0  0  0  0  0  0  0  0  0  0  0
  -94.6918   37.7467   -8.6724 O   0  0  0  0  0  0  0  0  0  0  0  0
  -93.5342   37.0488   -7.6872 P   0  0  0  0  0  0  0  0  0  0  0  0
  -92.1932   38.0845   -7.6171 O   0  0  0  0  0  0  0  0  0  0  0  0
  -94.1429   36.8798   -6.3019 O   0  0  0  0  0  0  0  0  0  0  0  0
  -95.1315   37.0743   -9.2492 H   0  0  0  0  0  0  0  0  0  0  0  0
  -92.5105   39.0231   -7.7015 H   0  0  0  0  0  0  0  0  0  0  0  0
  -88.1443   28.7405   -1.5231 C   0  0  0  0  0  0  0  0  0  0  0  0
  -88.5306   28.1798   -0.1822 C   0  0  0  0  0  0  0  0  0  0  0  0
  -87.7349   27.1121    0.2985 C   0  0  0  0  0  0  0  0  0  0  0  0
  -87.9779   26.5533    1.5141 C   0  0  0  0  0  0  0  0  0  0  0  0
  -89.0048   27.0072    2.3140 C   0  0  0  0  0  0  0  0  0  0  0  0
  -89.7824   28.0284    1.8719 C   0  0  0  0  0  0  0  0  0  0  0  0
  -89.5359   28.6093    0.6189 C   0  0  0  0  0  0  0  0  0  0  0  0
  -89.2124   26.4295    3.6302 C   0  0  0  0  0  0  0  0  0  0  0  0
  -89.7338   27.1736    4.6654 C   0  0  0  0  0  0  0  0  0  0  0  0
  -89.8768   26.6473    5.9359 C   0  0  0  0  0  0  0  0  0  0  0  0
  -89.4918   25.3439    6.1909 C   0  0  0  0  0  0  0  0  0  0  0  0
  -88.9753   24.6016    5.1543 C   0  0  0  0  0  0  0  0  0  0  0  0
  -88.8278   25.1100    3.8916 C   0  0  0  0  0  0  0  0  0  0  0  0
 25 26  1  0  0  0
 26 27  1  0  0  0
 26 28  2  0  0  0
 26 22  1  0  0  0
 22 23  1  0  0  0
 22 24  1  0  0  0
 22 16  1  0  0  0
 16 17  2  0  0  0
 17 18  1  0  0  0
 18 19  2  0  0  0
 19 20  1  0  0  0
 20 21  2  0  0  0
 19 10  1  0  0  0
 10 11  2  0  0  0
 11 12  1  0  0  0
 12 13  2  0  0  0
 13 14  1  0  0  0
 14 15  2  0  0  0
 13  1  1  0  0  0
  1  2  2  0  0  0
  2 31  1  0  0  0
 31 32  1  0  0  0
 32 33  2  0  0  0
 33 34  1  0  0  0
 34 35  2  0  0  0
 35 36  1  0  0  0
 36 37  2  0  0  0
 35 38  1  0  0  0
 38 39  2  0  0  0
 39 40  1  0  0  0
 40 41  2  0  0  0
 41 42  1  0  0  0
 42 43  2  0  0  0
  2  3  1  0  0  0
  3  4  1  0  0  0
  4  5  2  0  0  0
  5  6  1  0  0  0
  6  7  2  0  0  0
  7  8  1  0  0  0
  8  9  2  0  0  0
 21 16  1  0  0  0
 15 10  1  0  0  0
  9  1  1  0  0  0
 37 32  1  0  0  0
 43 38  1  0  0  0
  9  4  1  0  0  0
 25 29  1  0  0  0
 27 30  1  0  0  0
M  END
> <minimizedAffinity>
-7.36514

> <CNNscore>
0.2022543997

> <CNNaffinity>
6.5551719666

> <CNN_VS>
1.3258123398

> <CNNaffinity_variance>
0.3091531098

$$$$
[H]OP(=O)(O[H])C(F)(F)c1c([H])c([H])c(-c2c([H])c([H])c(-c3c(C([H])([H])c4c([H])c([H])c(-c5c([H])c([H])c([H])c([H])c5[H])c([H])c4[H])sc4c([H])c([H])c([H])c([H])c34)c([H])c2[H])c([H])c1[H]


 43 48  0  0  0  0  0  0  0  0999 V2000
  -86.9499   30.7786   -0.4510 C   0  0  0  0  0  0  0  0  0  0  0  0
  -87.4155   31.9909   -0.8454 C   0  0  0  0  0  0  0  0  0  0  0  0
  -86.1429   33.0611   -0.4828 S   0  0  0  0  0  0  0  0  0  0  0  0
  -85.0302   31.9434    0.1679 C   0  0  0  0  0  0  0  0  0  0  0  0
  -83.7365   32.0617    0.7226 C   0  0  0  0  0  0  0  0  0  0  0  0
  -83.0569   30.9702    1.2124 C   0  0  0  0  0  0  0  0  0  0  0  0
  -83.7057   29.7646    1.1302 C   0  0  0  0  0  0  0  0  0  0  0  0
  -84.9471   29.6486    0.6013 C   0  0  0  0  0  0  0  0  0  0  0  0
  -85.6849   30.7528    0.0855 C   0  0  0  0  0  0  0  0  0  0  0  0
  -89.2899   27.2527   -0.7215 C   0  0  0  0  0  0  0  0  0  0  0  0
  -88.5229   27.6205   -1.8148 C   0  0  0  0  0  0  0  0  0  0  0  0
  -87.7729   28.7765   -1.6796 C   0  0  0  0  0  0  0  0  0  0  0  0
  -87.7735   29.5348   -0.5330 C   0  0  0  0  0  0  0  0  0  0  0  0
  -88.5396   29.1474    0.5335 C   0  0  0  0  0  0  0  0  0  0  0  0
  -89.2922   28.0141    0.4434 C   0  0  0  0  0  0  0  0  0  0  0  0
  -91.9665   23.9757   -1.1539 C   0  0  0  0  0  0  0  0  0  0  0  0
  -92.3929   25.1697   -0.6335 C   0  0  0  0  0  0  0  0  0  0  0  0
  -91.5123   26.2179   -0.4885 C   0  0  0  0  0  0  0  0  0  0  0  0
  -90.1884   26.1171   -0.8514 C   0  0  0  0  0  0  0  0  0  0  0  0
  -89.7786   24.8919   -1.3766 C   0  0  0  0  0  0  0  0  0  0  0  0
  -90.6404   23.8549   -1.5254 C   0  0  0  0  0  0  0  0  0  0  0  0
  -92.8488   22.8088   -1.3268 C   0  0  0  0  0  0  0  0  0  0  0  0
  -92.1622   21.6679   -0.9710 F   0  0  0  0  0  0  0  0  0  0  0  0
  -93.9810   22.9148   -0.5292 F   0  0  0  0  0  0  0  0  0  0  0  0
  -93.2185   24.0230   -3.9224 O   0  0  0  0  0  0  0  0  0  0  0  0
  -93.4187   22.6229   -3.0294 P   0  0  0  0  0  0  0  0  0  0  0  0
  -95.0591   22.1943   -3.0630 O   0  0  0  0  0  0  0  0  0  0  0  0
  -92.5757   21.5332   -3.6777 O   0  0  0  0  0  0  0  0  0  0  0  0
  -92.5805   24.6423   -3.4892 H   0  0  0  0  0  0  0  0  0  0  0  0
  -95.4472   22.4860   -3.9308 H   0  0  0  0  0  0  0  0  0  0  0  0
  -88.7630   32.3467   -1.4628 C   0  0  0  0  0  0  0  0  0  0  0  0
  -88.4133   33.2743   -2.5937 C   0  0  0  0  0  0  0  0  0  0  0  0
  -88.8690   34.6087   -2.4677 C   0  0  0  0  0  0  0  0  0  0  0  0
  -88.5805   35.5372   -3.4182 C   0  0  0  0  0  0  0  0  0  0  0  0
  -87.8378   35.2088   -4.5322 C   0  0  0  0  0  0  0  0  0  0  0  0
  -87.3925   33.9342   -4.6750 C   0  0  0  0  0  0  0  0  0  0  0  0
  -87.6866   32.9723   -3.6971 C   0  0  0  0  0  0  0  0  0  0  0  0
  -87.4983   36.2295   -5.5079 C   0  0  0  0  0  0  0  0  0  0  0  0
  -88.0999   36.2654   -6.7464 C   0  0  0  0  0  0  0  0  0  0  0  0
  -87.7373   37.1971   -7.7015 C   0  0  0  0  0  0  0  0  0  0  0  0
  -86.7483   38.1225   -7.4231 C   0  0  0  0  0  0  0  0  0  0  0  0
  -86.1520   38.0872   -6.1838 C   0  0  0  0  0  0  0  0  0  0  0  0
  -86.5009   37.1701   -5.2289 C   0  0  0  0  0  0  0  0  0  0  0  0
 25 26  1  0  0  0
 26 27  1  0  0  0
 26 28  2  0  0  0
 26 22  1  0  0  0
 22 23  1  0  0  0
 22 24  1  0  0  0
 22 16  1  0  0  0
 16 17  2  0  0  0
 17 18  1  0  0  0
 18 19  2  0  0  0
 19 20  1  0  0  0
 20 21  2  0  0  0
 19 10  1  0  0  0
 10 11  2  0  0  0
 11 12  1  0  0  0
 12 13  2  0  0  0
 13 14  1  0  0  0
 14 15  2  0  0  0
 13  1  1  0  0  0
  1  2  2  0  0  0
  2 31  1  0  0  0
 31 32  1  0  0  0
 32 33  2  0  0  0
 33 34  1  0  0  0
 34 35  2  0  0  0
 35 36  1  0  0  0
 36 37  2  0  0  0
 35 38  1  0  0  0
 38 39  2  0  0  0
 39 40  1  0  0  0
 40 41  2  0  0  0
 41 42  1  0  0  0
 42 43  2  0  0  0
  2  3  1  0  0  0
  3  4  1  0  0  0
  4  5  2  0  0  0
  5  6  1  0  0  0
  6  7  2  0  0  0
  7  8  1  0  0  0
  8  9  2  0  0  0
 21 16  1  0  0  0
 15 10  1  0  0  0
  9  1  1  0  0  0
 37 32  1  0  0  0
 43 38  1  0  0  0
  9  4  1  0  0  0
 25 29  1  0  0  0
 27 30  1  0  0  0
M  END
> <minimizedAffinity>
-9.87599

> <CNNscore>
0.1771319807

> <CNNaffinity>
6.2889919281

> <CNN_VS>
1.1139816046

> <CNNaffinity_variance>
0.3812750280

$$$$
[H]OP(=O)(O[H])C(F)(F)c1c([H])c([H])c(-c2c([H])c([H])c(-c3c(C([H])([H])c4c([H])c([H])c(-c5c([H])c([H])c([H])c([H])c5[H])c([H])c4[H])sc4c([H])c([H])c([H])c([H])c34)c([H])c2[H])c([H])c1[H]


 43 48  0  0  0  0  0  0  0  0999 V2000
  -86.3532   31.5912   -1.1334 C   0  0  0  0  0  0  0  0  0  0  0  0
  -86.6773   30.2820   -0.9818 C   0  0  0  0  0  0  0  0  0  0  0  0
  -85.3357   29.6140   -0.1754 S   0  0  0  0  0  0  0  0  0  0  0  0
  -84.3771   31.0189   -0.0412 C   0  0  0  0  0  0  0  0  0  0  0  0
  -83.0942   31.2802    0.4890 C   0  0  0  0  0  0  0  0  0  0  0  0
  -82.5329   32.5355    0.4392 C   0  0  0  0  0  0  0  0  0  0  0  0
  -83.2890   33.5152   -0.1521 C   0  0  0  0  0  0  0  0  0  0  0  0
  -84.5183   33.2669   -0.6637 C   0  0  0  0  0  0  0  0  0  0  0  0
  -85.1340   31.9825   -0.6340 C   0  0  0  0  0  0  0  0  0  0  0  0
  -88.8225   34.3613   -3.1851 C   0  0  0  0  0  0  0  0  0  0  0  0
  -87.5233   34.1802   -3.6304 C   0  0  0  0  0  0  0  0  0  0  0  0
  -86.7554   33.2637   -2.9322 C   0  0  0  0  0  0  0  0  0  0  0  0
  -87.2340   32.5602   -1.8526 C   0  0  0  0  0  0  0  0  0  0  0  0
  -88.5227   32.7573   -1.4344 C   0  0  0  0  0  0  0  0  0  0  0  0
  -89.3141   33.6496   -2.0950 C   0  0  0  0  0  0  0  0  0  0  0  0
  -91.2565   37.3730   -4.9443 C   0  0  0  0  0  0  0  0  0  0  0  0
  -91.6188   36.0524   -5.0005 C   0  0  0  0  0  0  0  0  0  0  0  0
  -90.8150   35.0874   -4.4369 C   0  0  0  0  0  0  0  0  0  0  0  0
  -89.6328   35.3978   -3.8040 C   0  0  0  0  0  0  0  0  0  0  0  0
  -89.2853   36.7476   -3.7615 C   0  0  0  0  0  0  0  0  0  0  0  0
  -90.0730   37.7052   -4.3119 C   0  0  0  0  0  0  0  0  0  0  0  0
  -92.0603   38.4570   -5.5351 C   0  0  0  0  0  0  0  0  0  0  0  0
  -91.2220   39.4802   -5.9224 F   0  0  0  0  0  0  0  0  0  0  0  0
  -92.7623   38.0105   -6.6474 F   0  0  0  0  0  0  0  0  0  0  0  0
  -94.2572   40.2783   -5.0827 O   0  0  0  0  0  0  0  0  0  0  0  0
  -93.2747   39.1229   -4.3774 P   0  0  0  0  0  0  0  0  0  0  0  0
  -92.4997   39.8205   -3.0401 O   0  0  0  0  0  0  0  0  0  0  0  0
  -94.1613   37.9687   -3.9302 O   0  0  0  0  0  0  0  0  0  0  0  0
  -94.2227   40.2312   -6.0701 H   0  0  0  0  0  0  0  0  0  0  0  0
  -93.1012   40.5069   -2.6453 H   0  0  0  0  0  0  0  0  0  0  0  0
  -87.9364   29.5475   -1.4275 C   0  0  0  0  0  0  0  0  0  0  0  0
  -88.3944   28.8238   -0.1913 C   0  0  0  0  0  0  0  0  0  0  0  0
  -87.5100   27.8434    0.3195 C   0  0  0  0  0  0  0  0  0  0  0  0
  -87.8123   27.1530    1.4512 C   0  0  0  0  0  0  0  0  0  0  0  0
  -88.9870   27.3848    2.1344 C   0  0  0  0  0  0  0  0  0  0  0  0
  -89.8512   28.3187    1.6611 C   0  0  0  0  0  0  0  0  0  0  0  0
  -89.5443   29.0346    0.4944 C   0  0  0  0  0  0  0  0  0  0  0  0
  -89.2641   26.6721    3.3691 C   0  0  0  0  0  0  0  0  0  0  0  0
  -89.7747   27.3205    4.4718 C   0  0  0  0  0  0  0  0  0  0  0  0
  -89.9833   26.6605    5.6687 C   0  0  0  0  0  0  0  0  0  0  0  0
  -89.6768   25.3166    5.7787 C   0  0  0  0  0  0  0  0  0  0  0  0
  -89.1709   24.6703    4.6746 C   0  0  0  0  0  0  0  0  0  0  0  0
  -88.9591   25.3116    3.4835 C   0  0  0  0  0  0  0  0  0  0  0  0
 25 26  1  0  0  0
 26 27  1  0  0  0
 26 28  2  0  0  0
 26 22  1  0  0  0
 22 23  1  0  0  0
 22 24  1  0  0  0
 22 16  1  0  0  0
 16 17  2  0  0  0
 17 18  1  0  0  0
 18 19  2  0  0  0
 19 20  1  0  0  0
 20 21  2  0  0  0
 19 10  1  0  0  0
 10 11  2  0  0  0
 11 12  1  0  0  0
 12 13  2  0  0  0
 13 14  1  0  0  0
 14 15  2  0  0  0
 13  1  1  0  0  0
  1  2  2  0  0  0
  2 31  1  0  0  0
 31 32  1  0  0  0
 32 33  2  0  0  0
 33 34  1  0  0  0
 34 35  2  0  0  0
 35 36  1  0  0  0
 36 37  2  0  0  0
 35 38  1  0  0  0
 38 39  2  0  0  0
 39 40  1  0  0  0
 40 41  2  0  0  0
 41 42  1  0  0  0
 42 43  2  0  0  0
  2  3  1  0  0  0
  3  4  1  0  0  0
  4  5  2  0  0  0
  5  6  1  0  0  0
  6  7  2  0  0  0
  7  8  1  0  0  0
  8  9  2  0  0  0
 21 16  1  0  0  0
 15 10  1  0  0  0
  9  1  1  0  0  0
 37 32  1  0  0  0
 43 38  1  0  0  0
  9  4  1  0  0  0
 25 29  1  0  0  0
 27 30  1  0  0  0
M  END
> <minimizedAffinity>
-8.49169

> <CNNscore>
0.1754603982

> <CNNaffinity>
6.6655435562

> <CNN_VS>
1.1695389748

> <CNNaffinity_variance>
0.1852167249

$$$$
[H]OP(=O)(O[H])C(F)(F)c1c([H])c([H])c(-c2c([H])c([H])c(-c3c(C([H])([H])c4c([H])c([H])c(-c5c([H])c([H])c([H])c([H])c5[H])c([H])c4[H])sc4c([H])c([H])c([H])c([H])c34)c([H])c2[H])c([H])c1[H]


 43 48  0  0  0  0  0  0  0  0999 V2000
  -86.4328   31.0572   -0.4021 C   0  0  0  0  0  0  0  0  0  0  0  0
  -87.0995   32.1759   -0.7843 C   0  0  0  0  0  0  0  0  0  0  0  0
  -85.9298   33.4082   -0.6878 S   0  0  0  0  0  0  0  0  0  0  0  0
  -84.6016   32.4762   -0.1606 C   0  0  0  0  0  0  0  0  0  0  0  0
  -83.2640   32.7823    0.1747 C   0  0  0  0  0  0  0  0  0  0  0  0
  -82.3880   31.8148    0.6104 C   0  0  0  0  0  0  0  0  0  0  0  0
  -82.8868   30.5402    0.6990 C   0  0  0  0  0  0  0  0  0  0  0  0
  -84.1696   30.2444    0.3807 C   0  0  0  0  0  0  0  0  0  0  0  0
  -85.1080   31.2159   -0.0721 C   0  0  0  0  0  0  0  0  0  0  0  0
  -88.3314   27.2775   -0.1022 C   0  0  0  0  0  0  0  0  0  0  0  0
  -87.8318   27.6686   -1.3336 C   0  0  0  0  0  0  0  0  0  0  0  0
  -87.2174   28.9084   -1.3830 C   0  0  0  0  0  0  0  0  0  0  0  0
  -87.0982   29.7248   -0.2835 C   0  0  0  0  0  0  0  0  0  0  0  0
  -87.5996   29.3130    0.9221 C   0  0  0  0  0  0  0  0  0  0  0  0
  -88.2109   28.0978    1.0154 C   0  0  0  0  0  0  0  0  0  0  0  0
  -90.4893   23.6186    0.1106 C   0  0  0  0  0  0  0  0  0  0  0  0
  -89.9933   24.0756   -1.0824 C   0  0  0  0  0  0  0  0  0  0  0  0
  -89.3070   25.2677   -1.1380 C   0  0  0  0  0  0  0  0  0  0  0  0
  -89.0920   26.0412   -0.0200 C   0  0  0  0  0  0  0  0  0  0  0  0
  -89.6078   25.5557    1.1813 C   0  0  0  0  0  0  0  0  0  0  0  0
  -90.2828   24.3808    1.2453 C   0  0  0  0  0  0  0  0  0  0  0  0
  -91.2427   22.3596    0.2430 C   0  0  0  0  0  0  0  0  0  0  0  0
  -92.2655   22.5395    1.1492 F   0  0  0  0  0  0  0  0  0  0  0  0
  -91.7883   21.9724   -0.9742 F   0  0  0  0  0  0  0  0  0  0  0  0
  -88.6102   21.1741    0.3552 O   0  0  0  0  0  0  0  0  0  0  0  0
  -90.2083   20.9953    0.8151 P   0  0  0  0  0  0  0  0  0  0  0  0
  -90.7810   19.5201    0.2055 O   0  0  0  0  0  0  0  0  0  0  0  0
  -90.2567   20.9914    2.3369 O   0  0  0  0  0  0  0  0  0  0  0  0
  -88.4104   22.1056    0.0894 H   0  0  0  0  0  0  0  0  0  0  0  0
  -90.0261   18.8737    0.1737 H   0  0  0  0  0  0  0  0  0  0  0  0
  -88.5582   32.3287   -1.1993 C   0  0  0  0  0  0  0  0  0  0  0  0
  -88.4927   33.1027   -2.4870 C   0  0  0  0  0  0  0  0  0  0  0  0
  -89.2185   34.3178   -2.5203 C   0  0  0  0  0  0  0  0  0  0  0  0
  -89.2010   35.1108   -3.6247 C   0  0  0  0  0  0  0  0  0  0  0  0
  -88.4785   34.7568   -4.7441 C   0  0  0  0  0  0  0  0  0  0  0  0
  -87.7771   33.5945   -4.7353 C   0  0  0  0  0  0  0  0  0  0  0  0
  -87.7909   32.7727   -3.5985 C   0  0  0  0  0  0  0  0  0  0  0  0
  -88.4331   35.6449   -5.8924 C   0  0  0  0  0  0  0  0  0  0  0  0
  -87.2963   36.3582   -6.2023 C   0  0  0  0  0  0  0  0  0  0  0  0
  -87.2660   37.2510   -7.2575 C   0  0  0  0  0  0  0  0  0  0  0  0
  -88.3959   37.4449   -8.0307 C   0  0  0  0  0  0  0  0  0  0  0  0
  -89.5288   36.7282   -7.7217 C   0  0  0  0  0  0  0  0  0  0  0  0
  -89.5729   35.8412   -6.6796 C   0  0  0  0  0  0  0  0  0  0  0  0
 25 26  1  0  0  0
 26 27  1  0  0  0
 26 28  2  0  0  0
 26 22  1  0  0  0
 22 23  1  0  0  0
 22 24  1  0  0  0
 22 16  1  0  0  0
 16 17  2  0  0  0
 17 18  1  0  0  0
 18 19  2  0  0  0
 19 20  1  0  0  0
 20 21  2  0  0  0
 19 10  1  0  0  0
 10 11  2  0  0  0
 11 12  1  0  0  0
 12 13  2  0  0  0
 13 14  1  0  0  0
 14 15  2  0  0  0
 13  1  1  0  0  0
  1  2  2  0  0  0
  2 31  1  0  0  0
 31 32  1  0  0  0
 32 33  2  0  0  0
 33 34  1  0  0  0
 34 35  2  0  0  0
 35 36  1  0  0  0
 36 37  2  0  0  0
 35 38  1  0  0  0
 38 39  2  0  0  0
 39 40  1  0  0  0
 40 41  2  0  0  0
 41 42  1  0  0  0
 42 43  2  0  0  0
  2  3  1  0  0  0
  3  4  1  0  0  0
  4  5  2  0  0  0
  5  6  1  0  0  0
  6  7  2  0  0  0
  7  8  1  0  0  0
  8  9  2  0  0  0
 21 16  1  0  0  0
 15 10  1  0  0  0
  9  1  1  0  0  0
 37 32  1  0  0  0
 43 38  1  0  0  0
  9  4  1  0  0  0
 25 29  1  0  0  0
 27 30  1  0  0  0
M  END
> <minimizedAffinity>
-11.44834

> <CNNscore>
0.1594006121

> <CNNaffinity>
6.3849773407

> <CNN_VS>
1.0177693367

> <CNNaffinity_variance>
0.4069248736

$$$$
[H]OP(=O)(O[H])C(F)(F)c1c([H])c([H])c(-c2c([H])c([H])c(-c3c(C([H])([H])c4c([H])c([H])c(-c5c([H])c([H])c([H])c([H])c5[H])c([H])c4[H])sc4c([H])c([H])c([H])c([H])c34)c([H])c2[H])c([H])c1[H]


 43 48  0  0  0  0  0  0  0  0999 V2000
  -86.6264   30.9192   -0.3998 C   0  0  0  0  0  0  0  0  0  0  0  0
  -87.2575   32.0378   -0.8387 C   0  0  0  0  0  0  0  0  0  0  0  0
  -86.0560   33.2415   -0.7786 S   0  0  0  0  0  0  0  0  0  0  0  0
  -84.7605   32.2980   -0.1937 C   0  0  0  0  0  0  0  0  0  0  0  0
  -83.4195   32.5824    0.1469 C   0  0  0  0  0  0  0  0  0  0  0  0
  -82.5758   31.6115    0.6357 C   0  0  0  0  0  0  0  0  0  0  0  0
  -83.1102   30.3557    0.7716 C   0  0  0  0  0  0  0  0  0  0  0  0
  -84.3964   30.0807    0.4484 C   0  0  0  0  0  0  0  0  0  0  0  0
  -85.3022   31.0566   -0.0585 C   0  0  0  0  0  0  0  0  0  0  0  0
  -88.6100   27.2059    0.1076 C   0  0  0  0  0  0  0  0  0  0  0  0
  -88.4357   28.0174    1.2167 C   0  0  0  0  0  0  0  0  0  0  0  0
  -87.7861   29.2212    1.0027 C   0  0  0  0  0  0  0  0  0  0  0  0
  -87.3294   29.6114   -0.2338 C   0  0  0  0  0  0  0  0  0  0  0  0
  -87.5163   28.7908   -1.3136 C   0  0  0  0  0  0  0  0  0  0  0  0
  -88.1531   27.5967   -1.1474 C   0  0  0  0  0  0  0  0  0  0  0  0
  -90.3398   23.3628    0.6797 C   0  0  0  0  0  0  0  0  0  0  0  0
  -90.2816   24.2690    1.7061 C   0  0  0  0  0  0  0  0  0  0  0  0
  -89.7080   25.5049    1.5094 C   0  0  0  0  0  0  0  0  0  0  0  0
  -89.1760   25.8801    0.2967 C   0  0  0  0  0  0  0  0  0  0  0  0
  -89.2458   24.9402   -0.7312 C   0  0  0  0  0  0  0  0  0  0  0  0
  -89.8117   23.7212   -0.5466 C   0  0  0  0  0  0  0  0  0  0  0  0
  -90.9274   22.0192    0.8207 C   0  0  0  0  0  0  0  0  0  0  0  0
  -90.1566   21.1146    0.1226 F   0  0  0  0  0  0  0  0  0  0  0  0
  -90.9738   21.6306    2.1534 F   0  0  0  0  0  0  0  0  0  0  0  0
  -92.6700   21.4769   -1.4193 O   0  0  0  0  0  0  0  0  0  0  0  0
  -92.6160   21.9365    0.1881 P   0  0  0  0  0  0  0  0  0  0  0  0
  -93.3822   23.4414    0.3425 O   0  0  0  0  0  0  0  0  0  0  0  0
  -93.3570   20.8819    0.9986 O   0  0  0  0  0  0  0  0  0  0  0  0
  -91.8217   21.0567   -1.7059 H   0  0  0  0  0  0  0  0  0  0  0  0
  -94.1039   23.5032   -0.3387 H   0  0  0  0  0  0  0  0  0  0  0  0
  -88.7061   32.2115   -1.2801 C   0  0  0  0  0  0  0  0  0  0  0  0
  -88.6083   33.0185   -2.5453 C   0  0  0  0  0  0  0  0  0  0  0  0
  -89.2088   34.3002   -2.5139 C   0  0  0  0  0  0  0  0  0  0  0  0
  -89.1505   35.1246   -3.5936 C   0  0  0  0  0  0  0  0  0  0  0  0
  -88.5072   34.7387   -4.7502 C   0  0  0  0  0  0  0  0  0  0  0  0
  -87.9265   33.5128   -4.8036 C   0  0  0  0  0  0  0  0  0  0  0  0
  -87.9829   32.6583   -3.6925 C   0  0  0  0  0  0  0  0  0  0  0  0
  -88.4131   35.6564   -5.8719 C   0  0  0  0  0  0  0  0  0  0  0  0
  -87.2534   36.3519   -6.1336 C   0  0  0  0  0  0  0  0  0  0  0  0
  -87.1767   37.2722   -7.1626 C   0  0  0  0  0  0  0  0  0  0  0  0
  -88.2820   37.5125   -7.9580 C   0  0  0  0  0  0  0  0  0  0  0  0
  -89.4378   36.8134   -7.6972 C   0  0  0  0  0  0  0  0  0  0  0  0
  -89.5279   35.8997   -6.6815 C   0  0  0  0  0  0  0  0  0  0  0  0
 25 26  1  0  0  0
 26 27  1  0  0  0
 26 28  2  0  0  0
 26 22  1  0  0  0
 22 23  1  0  0  0
 22 24  1  0  0  0
 22 16  1  0  0  0
 16 17  2  0  0  0
 17 18  1  0  0  0
 18 19  2  0  0  0
 19 20  1  0  0  0
 20 21  2  0  0  0
 19 10  1  0  0  0
 10 11  2  0  0  0
 11 12  1  0  0  0
 12 13  2  0  0  0
 13 14  1  0  0  0
 14 15  2  0  0  0
 13  1  1  0  0  0
  1  2  2  0  0  0
  2 31  1  0  0  0
 31 32  1  0  0  0
 32 33  2  0  0  0
 33 34  1  0  0  0
 34 35  2  0  0  0
 35 36  1  0  0  0
 36 37  2  0  0  0
 35 38  1  0  0  0
 38 39  2  0  0  0
 39 40  1  0  0  0
 40 41  2  0  0  0
 41 42  1  0  0  0
 42 43  2  0  0  0
  2  3  1  0  0  0
  3  4  1  0  0  0
  4  5  2  0  0  0
  5  6  1  0  0  0
  6  7  2  0  0  0
  7  8  1  0  0  0
  8  9  2  0  0  0
 21 16  1  0  0  0
 15 10  1  0  0  0
  9  1  1  0  0  0
 37 32  1  0  0  0
 43 38  1  0  0  0
  9  4  1  0  0  0
 25 29  1  0  0  0
 27 30  1  0  0  0
M  END
> <minimizedAffinity>
-10.68139

> <CNNscore>
0.1539699584

> <CNNaffinity>
6.4110460281

> <CNN_VS>
0.9871084690

> <CNNaffinity_variance>
0.3406828046

$$$$
[H]OC(=O)[C@@]([H])(N([H])C(=O)[C@@]([H])(N([H])C(=O)[C@@]([H])(N([H])C(=O)C([H])([H])N([H])C(=O)[C@@]1([H])N(C(=O)[C@@]([H])(N([H])[H])C([H])([H])c2c([H])n([H])c3c([H])c([H])c([H])c([H])c23)C([H])([H])C([H])([H])C1([H])[H])C([H])([H])c1c([H])n([H])c2c([H])c([H])c([H])c([H])c12)C([H])([H])C([H])(C([H])([H])[H])C([H])([H])[H])C([H])([H])c1c([H])c([H])c([H])c([H])c1[H]


 68 73  0  0  0  0  0  0  0  0999 V2000
  -86.8541   27.8656    0.6954 C   0  0  0  0  0  0  0  0  0  0  0  0
  -87.9006   28.1782   -0.2436 N   0  0  0  0  0  0  0  0  0  0  0  0
  -88.3305   27.2177   -1.1767 C   0  0  0  0  0  0  0  0  0  0  0  0
  -87.7372   26.0679   -1.1180 O   0  0  0  0  0  0  0  0  0  0  0  0
  -88.3377   29.1129   -0.2291 H   0  0  0  0  0  0  0  0  0  0  0  0
  -89.3380   27.3243   -2.1998 C   0  0  0  0  0  0  0  0  0  0  0  0
  -89.9314   28.6291   -2.4133 N   0  0  0  0  0  0  0  0  0  0  0  0
  -91.0310   28.6630   -3.2916 C   0  0  0  0  0  0  0  0  0  0  0  0
  -91.3695   27.4985   -3.7762 O   0  0  0  0  0  0  0  0  0  0  0  0
  -89.5386   29.4161   -1.8991 H   0  0  0  0  0  0  0  0  0  0  0  0
  -91.7934   29.7982   -3.6930 C   0  0  0  0  0  0  0  0  0  0  0  0
  -92.8301   29.4702   -4.7766 C   0  0  0  0  0  0  0  0  0  0  0  0
  -93.4035   30.8586   -5.0174 C   0  0  0  0  0  0  0  0  0  0  0  0
  -92.4654   31.8394   -4.3231 C   0  0  0  0  0  0  0  0  0  0  0  0
  -91.2387   30.9910   -4.2164 N   0  0  0  0  0  0  0  0  0  0  0  0
  -89.9809   31.4561   -4.6106 C   0  0  0  0  0  0  0  0  0  0  0  0
  -88.9914   30.6478   -4.5614 O   0  0  0  0  0  0  0  0  0  0  0  0
  -89.6433   32.8201   -5.0872 C   0  0  0  0  0  0  0  0  0  0  0  0
  -90.4661   33.3007   -6.1478 N   0  0  0  0  0  0  0  0  0  0  0  0
  -90.9661   32.5661   -6.6771 H   0  0  0  0  0  0  0  0  0  0  0  0
  -89.9575   33.8968   -6.8395 H   0  0  0  0  0  0  0  0  0  0  0  0
  -89.6412   33.7847   -3.9077 C   0  0  0  0  0  0  0  0  0  0  0  0
  -88.6731   34.8872   -4.0041 C   0  0  0  0  0  0  0  0  0  0  0  0
  -87.2805   34.7464   -4.1076 C   0  0  0  0  0  0  0  0  0  0  0  0
  -86.7001   35.9584   -4.2040 N   0  0  0  0  0  0  0  0  0  0  0  0
  -87.6524   36.9137   -4.1698 C   0  0  0  0  0  0  0  0  0  0  0  0
  -87.6199   38.2797   -4.2279 C   0  0  0  0  0  0  0  0  0  0  0  0
  -88.7733   39.0109   -4.1641 C   0  0  0  0  0  0  0  0  0  0  0  0
  -90.0189   38.3769   -4.0359 C   0  0  0  0  0  0  0  0  0  0  0  0
  -90.0372   36.9901   -3.9780 C   0  0  0  0  0  0  0  0  0  0  0  0
  -88.8619   36.2639   -4.0470 C   0  0  0  0  0  0  0  0  0  0  0  0
  -85.6656   36.1797   -4.2947 H   0  0  0  0  0  0  0  0  0  0  0  0
  -88.5641   26.4516    1.8395 N   0  0  0  0  0  0  0  0  0  0  0  0
  -87.2381   26.8334    1.6927 C   0  0  0  0  0  0  0  0  0  0  0  0
  -86.3143   26.3478    2.3641 O   0  0  0  0  0  0  0  0  0  0  0  0
  -89.2514   27.0052    1.1927 H   0  0  0  0  0  0  0  0  0  0  0  0
  -89.2062   25.4874    2.6668 C   0  0  0  0  0  0  0  0  0  0  0  0
  -90.0608   24.6354    1.7800 C   0  0  0  0  0  0  0  0  0  0  0  0
  -91.2589   24.3454    2.0695 O   0  0  0  0  0  0  0  0  0  0  0  0
  -89.5094   24.1162    0.5619 N   0  0  0  0  0  0  0  0  0  0  0  0
  -88.5460   24.3653    0.2899 H   0  0  0  0  0  0  0  0  0  0  0  0
  -90.3311   23.2320   -0.2766 C   0  0  0  0  0  0  0  0  0  0  0  0
  -89.8514   21.8831   -0.0496 C   0  0  0  0  0  0  0  0  0  0  0  0
  -88.5104   21.5457    0.0507 O   0  0  0  0  0  0  0  0  0  0  0  0
  -90.7046   20.9312    0.0607 O   0  0  0  0  0  0  0  0  0  0  0  0
  -88.1883   20.6212   -0.3045 H   0  0  0  0  0  0  0  0  0  0  0  0
  -90.3233   23.6367   -1.7071 C   0  0  0  0  0  0  0  0  0  0  0  0
  -91.6483   24.1550   -2.1174 C   0  0  0  0  0  0  0  0  0  0  0  0
  -92.2488   25.1259   -1.3175 C   0  0  0  0  0  0  0  0  0  0  0  0
  -93.4742   25.6735   -1.6300 C   0  0  0  0  0  0  0  0  0  0  0  0
  -94.1476   25.2522   -2.7807 C   0  0  0  0  0  0  0  0  0  0  0  0
  -93.5519   24.3037   -3.5576 C   0  0  0  0  0  0  0  0  0  0  0  0
  -92.3324   23.7664   -3.2369 C   0  0  0  0  0  0  0  0  0  0  0  0
  -90.1896   26.0711    3.6676 C   0  0  0  0  0  0  0  0  0  0  0  0
  -89.9431   27.5655    5.6543 C   0  0  0  0  0  0  0  0  0  0  0  0
  -89.8804   27.4542    4.1429 C   0  0  0  0  0  0  0  0  0  0  0  0
  -90.9645   28.3668    3.5603 C   0  0  0  0  0  0  0  0  0  0  0  0
  -86.5741   29.1016    1.5735 C   0  0  0  0  0  0  0  0  0  0  0  0
  -85.1931   29.5983    1.4537 C   0  0  0  0  0  0  0  0  0  0  0  0
  -84.1012   28.9340    2.0279 C   0  0  0  0  0  0  0  0  0  0  0  0
  -82.9753   29.6089    1.7574 N   0  0  0  0  0  0  0  0  0  0  0  0
  -83.2713   30.6972    1.0237 C   0  0  0  0  0  0  0  0  0  0  0  0
  -82.4958   31.6965    0.4880 C   0  0  0  0  0  0  0  0  0  0  0  0
  -83.0922   32.6938   -0.2386 C   0  0  0  0  0  0  0  0  0  0  0  0
  -84.4482   32.6762   -0.4174 C   0  0  0  0  0  0  0  0  0  0  0  0
  -85.2500   31.6844    0.1092 C   0  0  0  0  0  0  0  0  0  0  0  0
  -84.6593   30.6954    0.8304 C   0  0  0  0  0  0  0  0  0  0  0  0
  -81.9886   29.3593    2.0603 H   0  0  0  0  0  0  0  0  0  0  0  0
 55 56  1  0  0  0
 56 57  1  0  0  0
 56 54  1  0  0  0
 54 37  1  0  0  0
 37 33  1  0  0  0
 33 34  1  0  0  0
 34 35  2  0  0  0
 34  1  1  0  0  0
  1 58  1  0  0  0
 58 59  1  0  0  0
 59 60  2  0  0  0
 60 61  1  0  0  0
 61 62  1  0  0  0
 62 63  2  0  0  0
 63 64  1  0  0  0
 64 65  2  0  0  0
 65 66  1  0  0  0
 66 67  2  0  0  0
  1  2  1  0  0  0
  2  3  1  0  0  0
  3  4  2  0  0  0
  3  6  1  0  0  0
  6  7  1  0  0  0
  7  8  1  0  0  0
  8  9  2  0  0  0
  8 11  1  0  0  0
 11 12  1  0  0  0
 12 13  1  0  0  0
 13 14  1  0  0  0
 14 15  1  0  0  0
 15 16  1  0  0  0
 16 17  2  0  0  0
 16 18  1  0  0  0
 18 19  1  0  0  0
 18 22  1  0  0  0
 22 23  1  0  0  0
 23 24  2  0  0  0
 24 25  1  0  0  0
 25 26  1  0  0  0
 26 27  2  0  0  0
 27 28  1  0  0  0
 28 29  2  0  0  0
 29 30  1  0  0  0
 30 31  2  0  0  0
 37 38  1  0  0  0
 38 39  2  0  0  0
 38 40  1  0  0  0
 40 42  1  0  0  0
 42 47  1  0  0  0
 47 48  1  0  0  0
 48 49  2  0  0  0
 49 50  1  0  0  0
 50 51  2  0  0  0
 51 52  1  0  0  0
 52 53  2  0  0  0
 42 43  1  0  0  0
 43 44  1  0  0  0
 43 45  2  0  0  0
 67 59  1  0  0  0
 15 11  1  0  0  0
 31 23  1  0  0  0
 53 48  1  0  0  0
 67 62  1  0  0  0
 31 26  1  0  0  0
 33 36  1  0  0  0
 61 68  1  0  0  0
  2  5  1  0  0  0
  7 10  1  0  0  0
 19 20  1  0  0  0
 19 21  1  0  0  0
 25 32  1  0  0  0
 40 41  1  0  0  0
 44 46  1  0  0  0
M  END
> <minimizedAffinity>
-10.58647

> <CNNscore>
0.2405532300

> <CNNaffinity>
7.6537871361

> <CNN_VS>
1.8411432505

> <CNNaffinity_variance>
1.5292894840

$$$$
[H]OC(=O)[C@@]([H])(N([H])C(=O)[C@@]([H])(N([H])C(=O)[C@@]([H])(N([H])C(=O)C([H])([H])N([H])C(=O)[C@@]1([H])N(C(=O)[C@@]([H])(N([H])[H])C([H])([H])c2c([H])n([H])c3c([H])c([H])c([H])c([H])c23)C([H])([H])C([H])([H])C1([H])[H])C([H])([H])c1c([H])n([H])c2c([H])c([H])c([H])c([H])c12)C([H])([H])C([H])(C([H])([H])[H])C([H])([H])[H])C([H])([H])c1c([H])c([H])c([H])c([H])c1[H]


 68 73  0  0  0  0  0  0  0  0999 V2000
  -89.6317   31.6517   -2.1697 C   0  0  0  0  0  0  0  0  0  0  0  0
  -90.9466   31.7728   -2.7450 N   0  0  0  0  0  0  0  0  0  0  0  0
  -91.2553   31.1311   -3.9578 C   0  0  0  0  0  0  0  0  0  0  0  0
  -90.2986   30.4394   -4.4905 O   0  0  0  0  0  0  0  0  0  0  0  0
  -91.6661   32.3331   -2.2620 H   0  0  0  0  0  0  0  0  0  0  0  0
  -92.4862   31.1320   -4.7049 C   0  0  0  0  0  0  0  0  0  0  0  0
  -93.5221   30.2129   -4.2781 N   0  0  0  0  0  0  0  0  0  0  0  0
  -93.6971   29.0730   -5.0854 C   0  0  0  0  0  0  0  0  0  0  0  0
  -92.8793   29.0016   -6.1012 O   0  0  0  0  0  0  0  0  0  0  0  0
  -94.0256   30.4345   -3.4204 H   0  0  0  0  0  0  0  0  0  0  0  0
  -94.6407   28.0187   -4.9150 C   0  0  0  0  0  0  0  0  0  0  0  0
  -95.9587   28.4909   -4.2854 C   0  0  0  0  0  0  0  0  0  0  0  0
  -96.6905   27.1609   -4.1846 C   0  0  0  0  0  0  0  0  0  0  0  0
  -95.6525   26.0760   -4.4487 C   0  0  0  0  0  0  0  0  0  0  0  0
  -94.4005   26.8427   -4.1643 N   0  0  0  0  0  0  0  0  0  0  0  0
  -93.3996   26.3408   -3.3276 C   0  0  0  0  0  0  0  0  0  0  0  0
  -92.3925   27.0855   -3.0707 O   0  0  0  0  0  0  0  0  0  0  0  0
  -93.3600   25.0028   -2.6874 C   0  0  0  0  0  0  0  0  0  0  0  0
  -92.7635   23.9802   -3.4819 N   0  0  0  0  0  0  0  0  0  0  0  0
  -92.7276   24.1828   -4.4956 H   0  0  0  0  0  0  0  0  0  0  0  0
  -93.2071   23.0412   -3.3636 H   0  0  0  0  0  0  0  0  0  0  0  0
  -92.6845   25.1106   -1.3258 C   0  0  0  0  0  0  0  0  0  0  0  0
  -91.4673   24.3012   -1.1665 C   0  0  0  0  0  0  0  0  0  0  0  0
  -90.2094   24.5990   -1.7133 C   0  0  0  0  0  0  0  0  0  0  0  0
  -89.3139   23.6611   -1.3482 N   0  0  0  0  0  0  0  0  0  0  0  0
  -89.9229   22.7398   -0.5729 C   0  0  0  0  0  0  0  0  0  0  0  0
  -89.4938   21.6013    0.0519 C   0  0  0  0  0  0  0  0  0  0  0  0
  -90.3572   20.8390    0.7884 C   0  0  0  0  0  0  0  0  0  0  0  0
  -91.7056   21.2059    0.9197 C   0  0  0  0  0  0  0  0  0  0  0  0
  -92.1274   22.3634    0.2802 C   0  0  0  0  0  0  0  0  0  0  0  0
  -91.2412   23.1261   -0.4588 C   0  0  0  0  0  0  0  0  0  0  0  0
  -88.2842   23.6100   -1.6020 H   0  0  0  0  0  0  0  0  0  0  0  0
  -88.5545   29.8828   -0.7757 N   0  0  0  0  0  0  0  0  0  0  0  0
  -89.5882   30.7902   -0.9601 C   0  0  0  0  0  0  0  0  0  0  0  0
  -90.5141   30.9377   -0.1470 O   0  0  0  0  0  0  0  0  0  0  0  0
  -87.8424   29.8587   -1.6060 H   0  0  0  0  0  0  0  0  0  0  0  0
  -88.2409   28.9758    0.2756 C   0  0  0  0  0  0  0  0  0  0  0  0
  -86.7487   28.8706    0.3451 C   0  0  0  0  0  0  0  0  0  0  0  0
  -86.0237   28.8295   -0.6922 O   0  0  0  0  0  0  0  0  0  0  0  0
  -86.1086   28.8036    1.6269 N   0  0  0  0  0  0  0  0  0  0  0  0
  -86.6764   28.8675    2.4858 H   0  0  0  0  0  0  0  0  0  0  0  0
  -84.6493   28.6406    1.6912 C   0  0  0  0  0  0  0  0  0  0  0  0
  -84.4023   27.4006    2.3999 C   0  0  0  0  0  0  0  0  0  0  0  0
  -83.2357   27.1275    3.0976 O   0  0  0  0  0  0  0  0  0  0  0  0
  -85.3034   26.4873    2.3856 O   0  0  0  0  0  0  0  0  0  0  0  0
  -82.8747   26.1511    3.1269 H   0  0  0  0  0  0  0  0  0  0  0  0
  -83.9718   29.8190    2.2935 C   0  0  0  0  0  0  0  0  0  0  0  0
  -83.9446   30.9556    1.3449 C   0  0  0  0  0  0  0  0  0  0  0  0
  -82.7725   31.1810    0.6251 C   0  0  0  0  0  0  0  0  0  0  0  0
  -82.6625   32.2070   -0.2882 C   0  0  0  0  0  0  0  0  0  0  0  0
  -83.7510   33.0561   -0.5099 C   0  0  0  0  0  0  0  0  0  0  0  0
  -84.8935   32.8271    0.1972 C   0  0  0  0  0  0  0  0  0  0  0  0
  -84.9915   31.8030    1.1030 C   0  0  0  0  0  0  0  0  0  0  0  0
  -88.6951   27.5464    0.0307 C   0  0  0  0  0  0  0  0  0  0  0  0
  -91.0829   27.6721    0.7544 C   0  0  0  0  0  0  0  0  0  0  0  0
  -89.7282   27.0275    0.9782 C   0  0  0  0  0  0  0  0  0  0  0  0
  -89.2562   27.4053    2.3860 C   0  0  0  0  0  0  0  0  0  0  0  0
  -89.1864   33.0247   -1.6276 C   0  0  0  0  0  0  0  0  0  0  0  0
  -88.2719   33.7383   -2.5346 C   0  0  0  0  0  0  0  0  0  0  0  0
  -86.9458   33.3342   -2.7383 C   0  0  0  0  0  0  0  0  0  0  0  0
  -86.3554   34.1632   -3.6104 N   0  0  0  0  0  0  0  0  0  0  0  0
  -87.2350   35.1045   -3.9988 C   0  0  0  0  0  0  0  0  0  0  0  0
  -87.1397   36.1640   -4.8679 C   0  0  0  0  0  0  0  0  0  0  0  0
  -88.2326   36.9648   -5.0739 C   0  0  0  0  0  0  0  0  0  0  0  0
  -89.3982   36.6947   -4.4108 C   0  0  0  0  0  0  0  0  0  0  0  0
  -89.5209   35.6372   -3.5331 C   0  0  0  0  0  0  0  0  0  0  0  0
  -88.4372   34.8430   -3.3279 C   0  0  0  0  0  0  0  0  0  0  0  0
  -85.3537   34.1200   -3.9600 H   0  0  0  0  0  0  0  0  0  0  0  0
 55 56  1  0  0  0
 56 57  1  0  0  0
 56 54  1  0  0  0
 54 37  1  0  0  0
 37 33  1  0  0  0
 33 34  1  0  0  0
 34 35  2  0  0  0
 34  1  1  0  0  0
  1 58  1  0  0  0
 58 59  1  0  0  0
 59 60  2  0  0  0
 60 61  1  0  0  0
 61 62  1  0  0  0
 62 63  2  0  0  0
 63 64  1  0  0  0
 64 65  2  0  0  0
 65 66  1  0  0  0
 66 67  2  0  0  0
  1  2  1  0  0  0
  2  3  1  0  0  0
  3  4  2  0  0  0
  3  6  1  0  0  0
  6  7  1  0  0  0
  7  8  1  0  0  0
  8  9  2  0  0  0
  8 11  1  0  0  0
 11 12  1  0  0  0
 12 13  1  0  0  0
 13 14  1  0  0  0
 14 15  1  0  0  0
 15 16  1  0  0  0
 16 17  2  0  0  0
 16 18  1  0  0  0
 18 19  1  0  0  0
 18 22  1  0  0  0
 22 23  1  0  0  0
 23 24  2  0  0  0
 24 25  1  0  0  0
 25 26  1  0  0  0
 26 27  2  0  0  0
 27 28  1  0  0  0
 28 29  2  0  0  0
 29 30  1  0  0  0
 30 31  2  0  0  0
 37 38  1  0  0  0
 38 39  2  0  0  0
 38 40  1  0  0  0
 40 42  1  0  0  0
 42 47  1  0  0  0
 47 48  1  0  0  0
 48 49  2  0  0  0
 49 50  1  0  0  0
 50 51  2  0  0  0
 51 52  1  0  0  0
 52 53  2  0  0  0
 42 43  1  0  0  0
 43 44  1  0  0  0
 43 45  2  0  0  0
 67 59  1  0  0  0
 15 11  1  0  0  0
 31 23  1  0  0  0
 53 48  1  0  0  0
 67 62  1  0  0  0
 31 26  1  0  0  0
 33 36  1  0  0  0
 61 68  1  0  0  0
  2  5  1  0  0  0
  7 10  1  0  0  0
 19 20  1  0  0  0
 19 21  1  0  0  0
 25 32  1  0  0  0
 40 41  1  0  0  0
 44 46  1  0  0  0
M  END
> <minimizedAffinity>
-9.88984

> <CNNscore>
0.2061293423

> <CNNaffinity>
7.4815964699

> <CNN_VS>
1.5421766043

> <CNNaffinity_variance>
1.4893000126

$$$$
[H]OC(=O)[C@@]([H])(N([H])C(=O)[C@@]([H])(N([H])C(=O)[C@@]([H])(N([H])C(=O)C([H])([H])N([H])C(=O)[C@@]1([H])N(C(=O)[C@@]([H])(N([H])[H])C([H])([H])c2c([H])n([H])c3c([H])c([H])c([H])c([H])c23)C([H])([H])C([H])([H])C1([H])[H])C([H])([H])c1c([H])n([H])c2c([H])c([H])c([H])c([H])c12)C([H])([H])C([H])(C([H])([H])[H])C([H])([H])[H])C([H])([H])c1c([H])c([H])c([H])c([H])c1[H]


 68 73  0  0  0  0  0  0  0  0999 V2000
  -89.5072   31.6965   -2.2437 C   0  0  0  0  0  0  0  0  0  0  0  0
  -90.9376   31.7872   -2.3856 N   0  0  0  0  0  0  0  0  0  0  0  0
  -91.5155   32.0063   -3.6490 C   0  0  0  0  0  0  0  0  0  0  0  0
  -90.6871   32.1060   -4.6395 O   0  0  0  0  0  0  0  0  0  0  0  0
  -91.5409   31.6890   -1.5542 H   0  0  0  0  0  0  0  0  0  0  0  0
  -92.9032   32.1419   -4.0081 C   0  0  0  0  0  0  0  0  0  0  0  0
  -93.3009   31.6575   -5.3148 N   0  0  0  0  0  0  0  0  0  0  0  0
  -94.2283   32.4593   -6.0066 C   0  0  0  0  0  0  0  0  0  0  0  0
  -94.5842   33.5427   -5.3700 O   0  0  0  0  0  0  0  0  0  0  0  0
  -92.8674   30.7993   -5.6520 H   0  0  0  0  0  0  0  0  0  0  0  0
  -94.7999   32.2236   -7.2907 C   0  0  0  0  0  0  0  0  0  0  0  0
  -95.8927   33.2383   -7.6548 C   0  0  0  0  0  0  0  0  0  0  0  0
  -96.3242   32.6836   -9.0041 C   0  0  0  0  0  0  0  0  0  0  0  0
  -95.6986   31.2983   -9.1213 C   0  0  0  0  0  0  0  0  0  0  0  0
  -95.4273   31.0152   -7.6783 N   0  0  0  0  0  0  0  0  0  0  0  0
  -95.8040   29.8108   -7.0772 C   0  0  0  0  0  0  0  0  0  0  0  0
  -95.6074   29.6709   -5.8216 O   0  0  0  0  0  0  0  0  0  0  0  0
  -96.4168   28.6349   -7.7430 C   0  0  0  0  0  0  0  0  0  0  0  0
  -95.6792   28.1278   -8.8527 N   0  0  0  0  0  0  0  0  0  0  0  0
  -95.0074   28.7947   -9.2695 H   0  0  0  0  0  0  0  0  0  0  0  0
  -96.2792   27.7602   -9.6257 H   0  0  0  0  0  0  0  0  0  0  0  0
  -96.6812   27.5464   -6.7101 C   0  0  0  0  0  0  0  0  0  0  0  0
  -95.9015   26.3126   -6.8893 C   0  0  0  0  0  0  0  0  0  0  0  0
  -94.6297   26.0631   -6.3506 C   0  0  0  0  0  0  0  0  0  0  0  0
  -94.2200   24.8251   -6.6894 N   0  0  0  0  0  0  0  0  0  0  0  0
  -95.1713   24.2290   -7.4379 C   0  0  0  0  0  0  0  0  0  0  0  0
  -95.2706   23.0020   -8.0337 C   0  0  0  0  0  0  0  0  0  0  0  0
  -96.3808   22.6619   -8.7554 C   0  0  0  0  0  0  0  0  0  0  0  0
  -97.4450   23.5649   -8.9036 C   0  0  0  0  0  0  0  0  0  0  0  0
  -97.3308   24.8066   -8.2938 C   0  0  0  0  0  0  0  0  0  0  0  0
  -96.2026   25.1350   -7.5640 C   0  0  0  0  0  0  0  0  0  0  0  0
  -93.3062   24.3488   -6.4336 H   0  0  0  0  0  0  0  0  0  0  0  0
  -89.2434   29.3157   -1.5402 N   0  0  0  0  0  0  0  0  0  0  0  0
  -89.0700   30.6653   -1.2675 C   0  0  0  0  0  0  0  0  0  0  0  0
  -88.5502   31.0844   -0.2215 O   0  0  0  0  0  0  0  0  0  0  0  0
  -89.7492   29.1247   -2.4914 H   0  0  0  0  0  0  0  0  0  0  0  0
  -88.8982   28.1335   -0.8264 C   0  0  0  0  0  0  0  0  0  0  0  0
  -87.4585   28.2537   -0.4321 C   0  0  0  0  0  0  0  0  0  0  0  0
  -86.5144   28.1145   -1.2643 O   0  0  0  0  0  0  0  0  0  0  0  0
  -87.1257   28.5261    0.9363 N   0  0  0  0  0  0  0  0  0  0  0  0
  -87.8787   28.6748    1.6256 H   0  0  0  0  0  0  0  0  0  0  0  0
  -85.7114   28.5845    1.3317 C   0  0  0  0  0  0  0  0  0  0  0  0
  -85.4255   27.3468    2.0299 C   0  0  0  0  0  0  0  0  0  0  0  0
  -84.1626   26.9807    2.4694 O   0  0  0  0  0  0  0  0  0  0  0  0
  -86.3854   26.5263    2.2571 O   0  0  0  0  0  0  0  0  0  0  0  0
  -83.8929   25.9748    2.4676 H   0  0  0  0  0  0  0  0  0  0  0  0
  -85.3915   29.8037    2.1201 C   0  0  0  0  0  0  0  0  0  0  0  0
  -84.6380   30.7806    1.3012 C   0  0  0  0  0  0  0  0  0  0  0  0
  -83.2460   30.7089    1.3111 C   0  0  0  0  0  0  0  0  0  0  0  0
  -82.4655   31.5689    0.5693 C   0  0  0  0  0  0  0  0  0  0  0  0
  -83.0740   32.5483   -0.2217 C   0  0  0  0  0  0  0  0  0  0  0  0
  -84.4357   32.6097   -0.2264 C   0  0  0  0  0  0  0  0  0  0  0  0
  -85.2019   31.7486    0.5155 C   0  0  0  0  0  0  0  0  0  0  0  0
  -88.9429   26.8611   -1.6561 C   0  0  0  0  0  0  0  0  0  0  0  0
  -90.7232   25.1762   -2.1381 C   0  0  0  0  0  0  0  0  0  0  0  0
  -89.7839   25.7581   -1.0990 C   0  0  0  0  0  0  0  0  0  0  0  0
  -90.6389   26.3804    0.0097 C   0  0  0  0  0  0  0  0  0  0  0  0
  -88.9748   33.0031   -1.6219 C   0  0  0  0  0  0  0  0  0  0  0  0
  -88.1799   33.8116   -2.5614 C   0  0  0  0  0  0  0  0  0  0  0  0
  -86.8132   33.5900   -2.7762 C   0  0  0  0  0  0  0  0  0  0  0  0
  -86.3549   34.4687   -3.6785 N   0  0  0  0  0  0  0  0  0  0  0  0
  -87.3616   35.2677   -4.0764 C   0  0  0  0  0  0  0  0  0  0  0  0
  -87.4255   36.3060   -4.9737 C   0  0  0  0  0  0  0  0  0  0  0  0
  -88.6218   36.9413   -5.1823 C   0  0  0  0  0  0  0  0  0  0  0  0
  -89.7300   36.5305   -4.4938 C   0  0  0  0  0  0  0  0  0  0  0  0
  -89.6934   35.4906   -3.5876 C   0  0  0  0  0  0  0  0  0  0  0  0
  -88.5073   34.8605   -3.3798 C   0  0  0  0  0  0  0  0  0  0  0  0
  -85.3612   34.5554   -4.0431 H   0  0  0  0  0  0  0  0  0  0  0  0
 55 56  1  0  0  0
 56 57  1  0  0  0
 56 54  1  0  0  0
 54 37  1  0  0  0
 37 33  1  0  0  0
 33 34  1  0  0  0
 34 35  2  0  0  0
 34  1  1  0  0  0
  1 58  1  0  0  0
 58 59  1  0  0  0
 59 60  2  0  0  0
 60 61  1  0  0  0
 61 62  1  0  0  0
 62 63  2  0  0  0
 63 64  1  0  0  0
 64 65  2  0  0  0
 65 66  1  0  0  0
 66 67  2  0  0  0
  1  2  1  0  0  0
  2  3  1  0  0  0
  3  4  2  0  0  0
  3  6  1  0  0  0
  6  7  1  0  0  0
  7  8  1  0  0  0
  8  9  2  0  0  0
  8 11  1  0  0  0
 11 12  1  0  0  0
 12 13  1  0  0  0
 13 14  1  0  0  0
 14 15  1  0  0  0
 15 16  1  0  0  0
 16 17  2  0  0  0
 16 18  1  0  0  0
 18 19  1  0  0  0
 18 22  1  0  0  0
 22 23  1  0  0  0
 23 24  2  0  0  0
 24 25  1  0  0  0
 25 26  1  0  0  0
 26 27  2  0  0  0
 27 28  1  0  0  0
 28 29  2  0  0  0
 29 30  1  0  0  0
 30 31  2  0  0  0
 37 38  1  0  0  0
 38 39  2  0  0  0
 38 40  1  0  0  0
 40 42  1  0  0  0
 42 47  1  0  0  0
 47 48  1  0  0  0
 48 49  2  0  0  0
 49 50  1  0  0  0
 50 51  2  0  0  0
 51 52  1  0  0  0
 52 53  2  0  0  0
 42 43  1  0  0  0
 43 44  1  0  0  0
 43 45  2  0  0  0
 67 59  1  0  0  0
 15 11  1  0  0  0
 31 23  1  0  0  0
 53 48  1  0  0  0
 67 62  1  0  0  0
 31 26  1  0  0  0
 33 36  1  0  0  0
 61 68  1  0  0  0
  2  5  1  0  0  0
  7 10  1  0  0  0
 19 20  1  0  0  0
 19 21  1  0  0  0
 25 32  1  0  0  0
 40 41  1  0  0  0
 44 46  1  0  0  0
M  END
> <minimizedAffinity>
-9.39710

> <CNNscore>
0.1913817525

> <CNNaffinity>
7.1202268600

> <CNN_VS>
1.3626815081

> <CNNaffinity_variance>
0.3347822130

$$$$
[H]OC(=O)[C@@]([H])(N([H])C(=O)[C@@]([H])(N([H])C(=O)[C@@]([H])(N([H])C(=O)C([H])([H])N([H])C(=O)[C@@]1([H])N(C(=O)[C@@]([H])(N([H])[H])C([H])([H])c2c([H])n([H])c3c([H])c([H])c([H])c([H])c23)C([H])([H])C([H])([H])C1([H])[H])C([H])([H])c1c([H])n([H])c2c([H])c([H])c([H])c([H])c12)C([H])([H])C([H])(C([H])([H])[H])C([H])([H])[H])C([H])([H])c1c([H])c([H])c([H])c([H])c1[H]


 68 73  0  0  0  0  0  0  0  0999 V2000
  -87.7657   27.7625    0.7486 C   0  0  0  0  0  0  0  0  0  0  0  0
  -88.0927   28.6717   -0.3195 N   0  0  0  0  0  0  0  0  0  0  0  0
  -87.6092   28.4454   -1.6207 C   0  0  0  0  0  0  0  0  0  0  0  0
  -86.8809   27.3858   -1.7764 O   0  0  0  0  0  0  0  0  0  0  0  0
  -88.6871   29.4931   -0.1274 H   0  0  0  0  0  0  0  0  0  0  0  0
  -87.8011   29.2255   -2.8156 C   0  0  0  0  0  0  0  0  0  0  0  0
  -87.7788   30.6678   -2.6771 N   0  0  0  0  0  0  0  0  0  0  0  0
  -87.7591   31.3963   -3.8815 C   0  0  0  0  0  0  0  0  0  0  0  0
  -87.7821   30.6576   -4.9583 O   0  0  0  0  0  0  0  0  0  0  0  0
  -87.8085   31.0519   -1.7339 H   0  0  0  0  0  0  0  0  0  0  0  0
  -87.7216   32.8114   -4.0458 C   0  0  0  0  0  0  0  0  0  0  0  0
  -87.1469   33.5408   -2.8234 C   0  0  0  0  0  0  0  0  0  0  0  0
  -87.3042   34.9827   -3.2827 C   0  0  0  0  0  0  0  0  0  0  0  0
  -88.2024   34.9479   -4.5140 C   0  0  0  0  0  0  0  0  0  0  0  0
  -88.8538   33.6159   -4.3202 N   0  0  0  0  0  0  0  0  0  0  0  0
  -90.2385   33.4493   -4.4118 C   0  0  0  0  0  0  0  0  0  0  0  0
  -90.7297   32.2962   -4.1587 O   0  0  0  0  0  0  0  0  0  0  0  0
  -91.2382   34.4797   -4.7866 C   0  0  0  0  0  0  0  0  0  0  0  0
  -91.2405   35.6373   -3.9542 N   0  0  0  0  0  0  0  0  0  0  0  0
  -90.8062   35.5053   -3.0249 H   0  0  0  0  0  0  0  0  0  0  0  0
  -92.1904   36.0464   -3.8031 H   0  0  0  0  0  0  0  0  0  0  0  0
  -91.0586   34.8527   -6.2529 C   0  0  0  0  0  0  0  0  0  0  0  0
  -91.9162   34.1174   -7.1941 C   0  0  0  0  0  0  0  0  0  0  0  0
  -92.9561   33.2431   -6.8415 C   0  0  0  0  0  0  0  0  0  0  0  0
  -93.5514   32.7632   -7.9508 N   0  0  0  0  0  0  0  0  0  0  0  0
  -92.9502   33.2834   -9.0410 C   0  0  0  0  0  0  0  0  0  0  0  0
  -93.1478   33.1371  -10.3864 C   0  0  0  0  0  0  0  0  0  0  0  0
  -92.3622   33.8026  -11.2859 C   0  0  0  0  0  0  0  0  0  0  0  0
  -91.3325   34.6509  -10.8499 C   0  0  0  0  0  0  0  0  0  0  0  0
  -91.1431   34.7899   -9.4818 C   0  0  0  0  0  0  0  0  0  0  0  0
  -91.9483   34.1124   -8.5840 C   0  0  0  0  0  0  0  0  0  0  0  0
  -94.3656   32.0843   -8.0111 H   0  0  0  0  0  0  0  0  0  0  0  0
  -88.7823   25.9948    2.1888 N   0  0  0  0  0  0  0  0  0  0  0  0
  -88.9462   27.0605    1.3152 C   0  0  0  0  0  0  0  0  0  0  0  0
  -90.0583   27.4850    0.9645 O   0  0  0  0  0  0  0  0  0  0  0  0
  -87.7349   25.7307    2.3627 H   0  0  0  0  0  0  0  0  0  0  0  0
  -89.7058   25.1760    2.8982 C   0  0  0  0  0  0  0  0  0  0  0  0
  -90.3798   24.2906    1.8960 C   0  0  0  0  0  0  0  0  0  0  0  0
  -91.5838   23.9193    2.0218 O   0  0  0  0  0  0  0  0  0  0  0  0
  -89.6415   23.8331    0.7545 N   0  0  0  0  0  0  0  0  0  0  0  0
  -88.6692   24.1484    0.6147 H   0  0  0  0  0  0  0  0  0  0  0  0
  -90.2871   22.9166   -0.1959 C   0  0  0  0  0  0  0  0  0  0  0  0
  -89.7387   21.5998    0.0615 C   0  0  0  0  0  0  0  0  0  0  0  0
  -88.3824   21.3352    0.1743 O   0  0  0  0  0  0  0  0  0  0  0  0
  -90.5415   20.6070    0.1885 O   0  0  0  0  0  0  0  0  0  0  0  0
  -88.0107   20.4217   -0.1600 H   0  0  0  0  0  0  0  0  0  0  0  0
  -90.1367   23.3619   -1.6064 C   0  0  0  0  0  0  0  0  0  0  0  0
  -90.8611   24.6320   -1.8402 C   0  0  0  0  0  0  0  0  0  0  0  0
  -90.1305   25.7300   -2.2913 C   0  0  0  0  0  0  0  0  0  0  0  0
  -90.7245   26.9467   -2.5475 C   0  0  0  0  0  0  0  0  0  0  0  0
  -92.1007   27.0998   -2.3533 C   0  0  0  0  0  0  0  0  0  0  0  0
  -92.8072   26.0202   -1.9136 C   0  0  0  0  0  0  0  0  0  0  0  0
  -92.2055   24.8145   -1.6624 C   0  0  0  0  0  0  0  0  0  0  0  0
  -90.8537   25.9346    3.5433 C   0  0  0  0  0  0  0  0  0  0  0  0
  -90.0572   27.9686    4.7552 C   0  0  0  0  0  0  0  0  0  0  0  0
  -90.5562   26.5414    4.8765 C   0  0  0  0  0  0  0  0  0  0  0  0
  -89.4329   25.7030    5.4952 C   0  0  0  0  0  0  0  0  0  0  0  0
  -87.2344   28.5646    1.9534 C   0  0  0  0  0  0  0  0  0  0  0  0
  -85.7961   28.8661    1.8615 C   0  0  0  0  0  0  0  0  0  0  0  0
  -84.8111   27.9920    2.3401 C   0  0  0  0  0  0  0  0  0  0  0  0
  -83.5996   28.5222    2.1225 N   0  0  0  0  0  0  0  0  0  0  0  0
  -83.7358   29.7155    1.5160 C   0  0  0  0  0  0  0  0  0  0  0  0
  -82.8243   30.6444    1.0764 C   0  0  0  0  0  0  0  0  0  0  0  0
  -83.2709   31.7910    0.4728 C   0  0  0  0  0  0  0  0  0  0  0  0
  -84.6155   31.9895    0.3189 C   0  0  0  0  0  0  0  0  0  0  0  0
  -85.5519   31.0728    0.7508 C   0  0  0  0  0  0  0  0  0  0  0  0
  -85.1097   29.9359    1.3500 C   0  0  0  0  0  0  0  0  0  0  0  0
  -82.6590   28.1008    2.3780 H   0  0  0  0  0  0  0  0  0  0  0  0
 55 56  1  0  0  0
 56 57  1  0  0  0
 56 54  1  0  0  0
 54 37  1  0  0  0
 37 33  1  0  0  0
 33 34  1  0  0  0
 34 35  2  0  0  0
 34  1  1  0  0  0
  1 58  1  0  0  0
 58 59  1  0  0  0
 59 60  2  0  0  0
 60 61  1  0  0  0
 61 62  1  0  0  0
 62 63  2  0  0  0
 63 64  1  0  0  0
 64 65  2  0  0  0
 65 66  1  0  0  0
 66 67  2  0  0  0
  1  2  1  0  0  0
  2  3  1  0  0  0
  3  4  2  0  0  0
  3  6  1  0  0  0
  6  7  1  0  0  0
  7  8  1  0  0  0
  8  9  2  0  0  0
  8 11  1  0  0  0
 11 12  1  0  0  0
 12 13  1  0  0  0
 13 14  1  0  0  0
 14 15  1  0  0  0
 15 16  1  0  0  0
 16 17  2  0  0  0
 16 18  1  0  0  0
 18 19  1  0  0  0
 18 22  1  0  0  0
 22 23  1  0  0  0
 23 24  2  0  0  0
 24 25  1  0  0  0
 25 26  1  0  0  0
 26 27  2  0  0  0
 27 28  1  0  0  0
 28 29  2  0  0  0
 29 30  1  0  0  0
 30 31  2  0  0  0
 37 38  1  0  0  0
 38 39  2  0  0  0
 38 40  1  0  0  0
 40 42  1  0  0  0
 42 47  1  0  0  0
 47 48  1  0  0  0
 48 49  2  0  0  0
 49 50  1  0  0  0
 50 51  2  0  0  0
 51 52  1  0  0  0
 52 53  2  0  0  0
 42 43  1  0  0  0
 43 44  1  0  0  0
 43 45  2  0  0  0
 67 59  1  0  0  0
 15 11  1  0  0  0
 31 23  1  0  0  0
 53 48  1  0  0  0
 67 62  1  0  0  0
 31 26  1  0  0  0
 33 36  1  0  0  0
 61 68  1  0  0  0
  2  5  1  0  0  0
  7 10  1  0  0  0
 19 20  1  0  0  0
 19 21  1  0  0  0
 25 32  1  0  0  0
 40 41  1  0  0  0
 44 46  1  0  0  0
M  END
> <minimizedAffinity>
-10.93923

> <CNNscore>
0.1712845415

> <CNNaffinity>
7.1309189796

> <CNN_VS>
1.2214162350

> <CNNaffinity_variance>
1.6380403042

$$$$
[H]OC(=O)[C@@]([H])(N([H])C(=O)[C@@]([H])(N([H])C(=O)[C@@]([H])(N([H])C(=O)C([H])([H])N([H])C(=O)[C@@]1([H])N(C(=O)[C@@]([H])(N([H])[H])C([H])([H])c2c([H])n([H])c3c([H])c([H])c([H])c([H])c23)C([H])([H])C([H])([H])C1([H])[H])C([H])([H])c1c([H])n([H])c2c([H])c([H])c([H])c([H])c12)C([H])([H])C([H])(C([H])([H])[H])C([H])([H])[H])C([H])([H])c1c([H])c([H])c([H])c([H])c1[H]


 68 73  0  0  0  0  0  0  0  0999 V2000
  -86.9875   28.2342    0.2222 C   0  0  0  0  0  0  0  0  0  0  0  0
  -87.9998   29.0198   -0.4354 N   0  0  0  0  0  0  0  0  0  0  0  0
  -88.1824   28.9256   -1.8268 C   0  0  0  0  0  0  0  0  0  0  0  0
  -87.4012   28.0974   -2.4443 O   0  0  0  0  0  0  0  0  0  0  0  0
  -88.5952   29.6541    0.1195 H   0  0  0  0  0  0  0  0  0  0  0  0
  -89.1137   29.6221   -2.6757 C   0  0  0  0  0  0  0  0  0  0  0  0
  -88.9289   31.0510   -2.8315 N   0  0  0  0  0  0  0  0  0  0  0  0
  -88.2073   31.4522   -3.9717 C   0  0  0  0  0  0  0  0  0  0  0  0
  -87.8218   30.4682   -4.7390 O   0  0  0  0  0  0  0  0  0  0  0  0
  -89.3518   31.6606   -2.1332 H   0  0  0  0  0  0  0  0  0  0  0  0
  -87.8663   32.7781   -4.3676 C   0  0  0  0  0  0  0  0  0  0  0  0
  -87.1118   33.5528   -3.2780 C   0  0  0  0  0  0  0  0  0  0  0  0
  -86.9633   34.8990   -3.9710 C   0  0  0  0  0  0  0  0  0  0  0  0
  -87.8819   34.8621   -5.1871 C   0  0  0  0  0  0  0  0  0  0  0  0
  -88.8027   33.7561   -4.7810 N   0  0  0  0  0  0  0  0  0  0  0  0
  -90.1924   33.8856   -4.8554 C   0  0  0  0  0  0  0  0  0  0  0  0
  -90.9163   32.9261   -4.4191 O   0  0  0  0  0  0  0  0  0  0  0  0
  -90.9532   35.0354   -5.4041 C   0  0  0  0  0  0  0  0  0  0  0  0
  -92.0760   34.6777   -6.2065 N   0  0  0  0  0  0  0  0  0  0  0  0
  -92.0517   33.7149   -6.5837 H   0  0  0  0  0  0  0  0  0  0  0  0
  -92.2453   35.3263   -7.0085 H   0  0  0  0  0  0  0  0  0  0  0  0
  -91.3589   35.9654   -4.2674 C   0  0  0  0  0  0  0  0  0  0  0  0
  -91.0076   37.3799   -4.4619 C   0  0  0  0  0  0  0  0  0  0  0  0
  -91.7795   38.3270   -5.1526 C   0  0  0  0  0  0  0  0  0  0  0  0
  -91.1749   39.5304   -5.1158 N   0  0  0  0  0  0  0  0  0  0  0  0
  -90.0211   39.4295   -4.4234 C   0  0  0  0  0  0  0  0  0  0  0  0
  -89.0401   40.3226   -4.0910 C   0  0  0  0  0  0  0  0  0  0  0  0
  -87.9509   39.9281   -3.3650 C   0  0  0  0  0  0  0  0  0  0  0  0
  -87.8126   38.5962   -2.9445 C   0  0  0  0  0  0  0  0  0  0  0  0
  -88.8156   37.7005   -3.2889 C   0  0  0  0  0  0  0  0  0  0  0  0
  -89.9133   38.1154   -4.0212 C   0  0  0  0  0  0  0  0  0  0  0  0
  -91.5107   40.4414   -5.5455 H   0  0  0  0  0  0  0  0  0  0  0  0
  -88.4583   26.8674    1.7059 N   0  0  0  0  0  0  0  0  0  0  0  0
  -87.4812   26.9251    0.7221 C   0  0  0  0  0  0  0  0  0  0  0  0
  -86.9747   25.9148    0.2094 O   0  0  0  0  0  0  0  0  0  0  0  0
  -88.7685   27.8513    2.0704 H   0  0  0  0  0  0  0  0  0  0  0  0
  -89.1319   25.7835    2.3365 C   0  0  0  0  0  0  0  0  0  0  0  0
  -89.9046   25.0602    1.2771 C   0  0  0  0  0  0  0  0  0  0  0  0
  -91.0990   25.3623    0.9847 O   0  0  0  0  0  0  0  0  0  0  0  0
  -89.2826   23.9789    0.5691 N   0  0  0  0  0  0  0  0  0  0  0  0
  -88.2999   23.7358    0.7682 H   0  0  0  0  0  0  0  0  0  0  0  0
  -90.0628   23.2326   -0.4280 C   0  0  0  0  0  0  0  0  0  0  0  0
  -89.8181   21.8262   -0.1769 C   0  0  0  0  0  0  0  0  0  0  0  0
  -88.5590   21.2859    0.0352 O   0  0  0  0  0  0  0  0  0  0  0  0
  -90.8140   21.0175   -0.1527 O   0  0  0  0  0  0  0  0  0  0  0  0
  -88.3532   20.3224   -0.3022 H   0  0  0  0  0  0  0  0  0  0  0  0
  -89.7565   23.6537   -1.8206 C   0  0  0  0  0  0  0  0  0  0  0  0
  -90.8378   24.5059   -2.3655 C   0  0  0  0  0  0  0  0  0  0  0  0
  -90.5809   25.8660   -2.5300 C   0  0  0  0  0  0  0  0  0  0  0  0
  -91.5240   26.7304   -3.0422 C   0  0  0  0  0  0  0  0  0  0  0  0
  -92.7813   26.2430   -3.4122 C   0  0  0  0  0  0  0  0  0  0  0  0
  -93.0229   24.9115   -3.2494 C   0  0  0  0  0  0  0  0  0  0  0  0
  -92.0768   24.0610   -2.7391 C   0  0  0  0  0  0  0  0  0  0  0  0
  -90.1938   26.2003    3.3404 C   0  0  0  0  0  0  0  0  0  0  0  0
  -89.9802   26.9460    5.7151 C   0  0  0  0  0  0  0  0  0  0  0  0
  -89.8121   27.3195    4.2547 C   0  0  0  0  0  0  0  0  0  0  0  0
  -90.7724   28.4746    3.9528 C   0  0  0  0  0  0  0  0  0  0  0  0
  -86.5494   28.9505    1.5153 C   0  0  0  0  0  0  0  0  0  0  0  0
  -85.1836   29.4960    1.4428 C   0  0  0  0  0  0  0  0  0  0  0  0
  -84.0874   28.8650    2.0456 C   0  0  0  0  0  0  0  0  0  0  0  0
  -82.9781   29.5812    1.8159 N   0  0  0  0  0  0  0  0  0  0  0  0
  -83.2893   30.6651    1.0821 C   0  0  0  0  0  0  0  0  0  0  0  0
  -82.5331   31.6958    0.5791 C   0  0  0  0  0  0  0  0  0  0  0  0
  -83.1413   32.6783   -0.1578 C   0  0  0  0  0  0  0  0  0  0  0  0
  -84.4897   32.6150   -0.3791 C   0  0  0  0  0  0  0  0  0  0  0  0
  -85.2721   31.5912    0.1140 C   0  0  0  0  0  0  0  0  0  0  0  0
  -84.6696   30.6168    0.8454 C   0  0  0  0  0  0  0  0  0  0  0  0
  -81.9931   29.3634    2.1476 H   0  0  0  0  0  0  0  0  0  0  0  0
 55 56  1  0  0  0
 56 57  1  0  0  0
 56 54  1  0  0  0
 54 37  1  0  0  0
 37 33  1  0  0  0
 33 34  1  0  0  0
 34 35  2  0  0  0
 34  1  1  0  0  0
  1 58  1  0  0  0
 58 59  1  0  0  0
 59 60  2  0  0  0
 60 61  1  0  0  0
 61 62  1  0  0  0
 62 63  2  0  0  0
 63 64  1  0  0  0
 64 65  2  0  0  0
 65 66  1  0  0  0
 66 67  2  0  0  0
  1  2  1  0  0  0
  2  3  1  0  0  0
  3  4  2  0  0  0
  3  6  1  0  0  0
  6  7  1  0  0  0
  7  8  1  0  0  0
  8  9  2  0  0  0
  8 11  1  0  0  0
 11 12  1  0  0  0
 12 13  1  0  0  0
 13 14  1  0  0  0
 14 15  1  0  0  0
 15 16  1  0  0  0
 16 17  2  0  0  0
 16 18  1  0  0  0
 18 19  1  0  0  0
 18 22  1  0  0  0
 22 23  1  0  0  0
 23 24  2  0  0  0
 24 25  1  0  0  0
 25 26  1  0  0  0
 26 27  2  0  0  0
 27 28  1  0  0  0
 28 29  2  0  0  0
 29 30  1  0  0  0
 30 31  2  0  0  0
 37 38  1  0  0  0
 38 39  2  0  0  0
 38 40  1  0  0  0
 40 42  1  0  0  0
 42 47  1  0  0  0
 47 48  1  0  0  0
 48 49  2  0  0  0
 49 50  1  0  0  0
 50 51  2  0  0  0
 51 52  1  0  0  0
 52 53  2  0  0  0
 42 43  1  0  0  0
 43 44  1  0  0  0
 43 45  2  0  0  0
 67 59  1  0  0  0
 15 11  1  0  0  0
 31 23  1  0  0  0
 53 48  1  0  0  0
 67 62  1  0  0  0
 31 26  1  0  0  0
 33 36  1  0  0  0
 61 68  1  0  0  0
  2  5  1  0  0  0
  7 10  1  0  0  0
 19 20  1  0  0  0
 19 21  1  0  0  0
 25 32  1  0  0  0
 40 41  1  0  0  0
 44 46  1  0  0  0
M  END
> <minimizedAffinity>
-10.70632

> <CNNscore>
0.1610845923

> <CNNaffinity>
7.2986602783

> <CNN_VS>
1.1757017374

> <CNNaffinity_variance>
1.3912993670

$$$$
[H]OC(=O)[C@@]([H])(N([H])C(=O)[C@@]([H])(N([H])C(=O)[C@@]([H])(N([H])C(=O)C([H])([H])N([H])C(=O)[C@@]1([H])N(C(=O)[C@@]([H])(N([H])[H])C([H])([H])c2c([H])n([H])c3c([H])c([H])c([H])c([H])c23)C([H])([H])C([H])([H])C1([H])[H])C([H])([H])c1c([H])n([H])c2c([H])c([H])c([H])c([H])c12)C([H])([H])C([H])(C([H])([H])[H])C([H])([H])[H])C([H])([H])c1c([H])c([H])c([H])c([H])c1[H]


 68 73  0  0  0  0  0  0  0  0999 V2000
  -89.6293   31.8078   -2.5058 C   0  0  0  0  0  0  0  0  0  0  0  0
  -91.0022   31.8588   -2.9384 N   0  0  0  0  0  0  0  0  0  0  0  0
  -91.4254   31.1151   -4.0546 C   0  0  0  0  0  0  0  0  0  0  0  0
  -90.5152   30.3989   -4.6343 O   0  0  0  0  0  0  0  0  0  0  0  0
  -91.6786   32.4441   -2.4240 H   0  0  0  0  0  0  0  0  0  0  0  0
  -92.7305   31.0338   -4.6573 C   0  0  0  0  0  0  0  0  0  0  0  0
  -93.2066   29.7179   -5.0340 N   0  0  0  0  0  0  0  0  0  0  0  0
  -94.1175   29.6825   -6.1067 C   0  0  0  0  0  0  0  0  0  0  0  0
  -94.3886   30.8515   -6.6219 O   0  0  0  0  0  0  0  0  0  0  0  0
  -92.8338   28.9176   -4.5253 H   0  0  0  0  0  0  0  0  0  0  0  0
  -94.7530   28.5407   -6.6755 C   0  0  0  0  0  0  0  0  0  0  0  0
  -95.8965   28.9067   -7.6320 C   0  0  0  0  0  0  0  0  0  0  0  0
  -96.3857   27.5134   -7.9982 C   0  0  0  0  0  0  0  0  0  0  0  0
  -95.7238   26.5519   -7.0176 C   0  0  0  0  0  0  0  0  0  0  0  0
  -95.3625   27.5066   -5.9249 N   0  0  0  0  0  0  0  0  0  0  0  0
  -95.6658   27.2470   -4.5854 C   0  0  0  0  0  0  0  0  0  0  0  0
  -95.3941   28.1443   -3.7160 O   0  0  0  0  0  0  0  0  0  0  0  0
  -96.2775   26.0135   -4.0321 C   0  0  0  0  0  0  0  0  0  0  0  0
  -97.3109   25.4493   -4.8361 N   0  0  0  0  0  0  0  0  0  0  0  0
  -97.7393   26.1022   -5.5145 H   0  0  0  0  0  0  0  0  0  0  0  0
  -98.0852   25.0150   -4.2844 H   0  0  0  0  0  0  0  0  0  0  0  0
  -95.1855   24.9925   -3.7378 C   0  0  0  0  0  0  0  0  0  0  0  0
  -94.8526   24.8264   -2.3152 C   0  0  0  0  0  0  0  0  0  0  0  0
  -95.6026   25.3203   -1.2365 C   0  0  0  0  0  0  0  0  0  0  0  0
  -95.0259   24.9641   -0.0722 N   0  0  0  0  0  0  0  0  0  0  0  0
  -93.9123   24.2459   -0.3266 C   0  0  0  0  0  0  0  0  0  0  0  0
  -92.9706   23.6532    0.4687 C   0  0  0  0  0  0  0  0  0  0  0  0
  -91.9174   22.9755   -0.0794 C   0  0  0  0  0  0  0  0  0  0  0  0
  -91.7763   22.8731   -1.4721 C   0  0  0  0  0  0  0  0  0  0  0  0
  -92.7391   23.4794   -2.2672 C   0  0  0  0  0  0  0  0  0  0  0  0
  -93.8009   24.1589   -1.6978 C   0  0  0  0  0  0  0  0  0  0  0  0
  -95.3549   25.1867    0.9125 H   0  0  0  0  0  0  0  0  0  0  0  0
  -89.1384   29.4999   -1.6901 N   0  0  0  0  0  0  0  0  0  0  0  0
  -89.3867   30.8359   -1.4085 C   0  0  0  0  0  0  0  0  0  0  0  0
  -89.4176   31.2913   -0.2546 O   0  0  0  0  0  0  0  0  0  0  0  0
  -89.1820   29.2640   -2.7576 H   0  0  0  0  0  0  0  0  0  0  0  0
  -88.8435   28.3773   -0.8661 C   0  0  0  0  0  0  0  0  0  0  0  0
  -87.4074   28.4885   -0.4562 C   0  0  0  0  0  0  0  0  0  0  0  0
  -86.4641   28.5357   -1.2995 O   0  0  0  0  0  0  0  0  0  0  0  0
  -87.0770   28.5341    0.9388 N   0  0  0  0  0  0  0  0  0  0  0  0
  -87.8307   28.5291    1.6432 H   0  0  0  0  0  0  0  0  0  0  0  0
  -85.6636   28.5832    1.3390 C   0  0  0  0  0  0  0  0  0  0  0  0
  -85.3887   27.3447    2.0401 C   0  0  0  0  0  0  0  0  0  0  0  0
  -84.1413   26.9965    2.5350 O   0  0  0  0  0  0  0  0  0  0  0  0
  -86.3436   26.5060    2.2161 O   0  0  0  0  0  0  0  0  0  0  0  0
  -83.8542   25.9954    2.5379 H   0  0  0  0  0  0  0  0  0  0  0  0
  -85.3380   29.8014    2.1266 C   0  0  0  0  0  0  0  0  0  0  0  0
  -84.6240   30.7952    1.2929 C   0  0  0  0  0  0  0  0  0  0  0  0
  -83.2308   30.7544    1.2731 C   0  0  0  0  0  0  0  0  0  0  0  0
  -82.4855   31.6319    0.5157 C   0  0  0  0  0  0  0  0  0  0  0  0
  -83.1324   32.5980   -0.2612 C   0  0  0  0  0  0  0  0  0  0  0  0
  -84.4948   32.6292   -0.2368 C   0  0  0  0  0  0  0  0  0  0  0  0
  -85.2258   31.7509    0.5203 C   0  0  0  0  0  0  0  0  0  0  0  0
  -88.9155   27.0368   -1.5783 C   0  0  0  0  0  0  0  0  0  0  0  0
  -91.0230   26.7035   -0.2791 C   0  0  0  0  0  0  0  0  0  0  0  0
  -89.8533   26.0387   -0.9795 C   0  0  0  0  0  0  0  0  0  0  0  0
  -89.0526   25.2674    0.0747 C   0  0  0  0  0  0  0  0  0  0  0  0
  -89.2504   33.1550   -1.8589 C   0  0  0  0  0  0  0  0  0  0  0  0
  -88.3019   33.9404   -2.6662 C   0  0  0  0  0  0  0  0  0  0  0  0
  -86.9630   33.5629   -2.8343 C   0  0  0  0  0  0  0  0  0  0  0  0
  -86.3412   34.4582   -3.6141 N   0  0  0  0  0  0  0  0  0  0  0  0
  -87.2119   35.4183   -3.9751 C   0  0  0  0  0  0  0  0  0  0  0  0
  -87.0874   36.5394   -4.7592 C   0  0  0  0  0  0  0  0  0  0  0  0
  -88.1784   37.3444   -4.9591 C   0  0  0  0  0  0  0  0  0  0  0  0
  -89.3711   37.0173   -4.3746 C   0  0  0  0  0  0  0  0  0  0  0  0
  -89.5235   35.8974   -3.5833 C   0  0  0  0  0  0  0  0  0  0  0  0
  -88.4417   35.0989   -3.3842 C   0  0  0  0  0  0  0  0  0  0  0  0
  -85.3235   34.4486   -3.9170 H   0  0  0  0  0  0  0  0  0  0  0  0
 55 56  1  0  0  0
 56 57  1  0  0  0
 56 54  1  0  0  0
 54 37  1  0  0  0
 37 33  1  0  0  0
 33 34  1  0  0  0
 34 35  2  0  0  0
 34  1  1  0  0  0
  1 58  1  0  0  0
 58 59  1  0  0  0
 59 60  2  0  0  0
 60 61  1  0  0  0
 61 62  1  0  0  0
 62 63  2  0  0  0
 63 64  1  0  0  0
 64 65  2  0  0  0
 65 66  1  0  0  0
 66 67  2  0  0  0
  1  2  1  0  0  0
  2  3  1  0  0  0
  3  4  2  0  0  0
  3  6  1  0  0  0
  6  7  1  0  0  0
  7  8  1  0  0  0
  8  9  2  0  0  0
  8 11  1  0  0  0
 11 12  1  0  0  0
 12 13  1  0  0  0
 13 14  1  0  0  0
 14 15  1  0  0  0
 15 16  1  0  0  0
 16 17  2  0  0  0
 16 18  1  0  0  0
 18 19  1  0  0  0
 18 22  1  0  0  0
 22 23  1  0  0  0
 23 24  2  0  0  0
 24 25  1  0  0  0
 25 26  1  0  0  0
 26 27  2  0  0  0
 27 28  1  0  0  0
 28 29  2  0  0  0
 29 30  1  0  0  0
 30 31  2  0  0  0
 37 38  1  0  0  0
 38 39  2  0  0  0
 38 40  1  0  0  0
 40 42  1  0  0  0
 42 47  1  0  0  0
 47 48  1  0  0  0
 48 49  2  0  0  0
 49 50  1  0  0  0
 50 51  2  0  0  0
 51 52  1  0  0  0
 52 53  2  0  0  0
 42 43  1  0  0  0
 43 44  1  0  0  0
 43 45  2  0  0  0
 67 59  1  0  0  0
 15 11  1  0  0  0
 31 23  1  0  0  0
 53 48  1  0  0  0
 67 62  1  0  0  0
 31 26  1  0  0  0
 33 36  1  0  0  0
 61 68  1  0  0  0
  2  5  1  0  0  0
  7 10  1  0  0  0
 19 20  1  0  0  0
 19 21  1  0  0  0
 25 32  1  0  0  0
 40 41  1  0  0  0
 44 46  1  0  0  0
M  END
> <minimizedAffinity>
-9.37196

> <CNNscore>
0.1392784268

> <CNNaffinity>
7.1147103310

> <CNN_VS>
0.9909256697

> <CNNaffinity_variance>
1.0488297939

$$$$
[H]OC(=O)[C@@]([H])(N([H])C(=O)[C@@]([H])(N([H])C(=O)[C@@]([H])(N([H])C(=O)C([H])([H])N([H])C(=O)[C@@]1([H])N(C(=O)[C@@]([H])(N([H])[H])C([H])([H])c2c([H])n([H])c3c([H])c([H])c([H])c([H])c23)C([H])([H])C([H])([H])C1([H])[H])C([H])([H])c1c([H])n([H])c2c([H])c([H])c([H])c([H])c12)C([H])([H])C([H])(C([H])([H])[H])C([H])([H])[H])C([H])([H])c1c([H])c([H])c([H])c([H])c1[H]


 68 73  0  0  0  0  0  0  0  0999 V2000
  -88.4727   32.3648   -3.0740 C   0  0  0  0  0  0  0  0  0  0  0  0
  -89.8394   31.9316   -2.9355 N   0  0  0  0  0  0  0  0  0  0  0  0
  -90.4345   31.1255   -3.9225 C   0  0  0  0  0  0  0  0  0  0  0  0
  -89.6778   30.8080   -4.9245 O   0  0  0  0  0  0  0  0  0  0  0  0
  -90.3833   32.2139   -2.1053 H   0  0  0  0  0  0  0  0  0  0  0  0
  -91.7733   30.5996   -3.9881 C   0  0  0  0  0  0  0  0  0  0  0  0
  -91.9230   29.1588   -3.9446 N   0  0  0  0  0  0  0  0  0  0  0  0
  -92.6327   28.5863   -5.0171 C   0  0  0  0  0  0  0  0  0  0  0  0
  -93.0408   29.4451   -5.9124 O   0  0  0  0  0  0  0  0  0  0  0  0
  -91.4864   28.6621   -3.1694 H   0  0  0  0  0  0  0  0  0  0  0  0
  -92.9406   27.2105   -5.2253 C   0  0  0  0  0  0  0  0  0  0  0  0
  -93.9501   26.9882   -6.3602 C   0  0  0  0  0  0  0  0  0  0  0  0
  -94.1050   25.4769   -6.2787 C   0  0  0  0  0  0  0  0  0  0  0  0
  -93.4566   25.0466   -4.9678 C   0  0  0  0  0  0  0  0  0  0  0  0
  -93.4699   26.3495   -4.2340 N   0  0  0  0  0  0  0  0  0  0  0  0
  -93.9462   26.4560   -2.9242 C   0  0  0  0  0  0  0  0  0  0  0  0
  -93.9972   27.6160   -2.3888 O   0  0  0  0  0  0  0  0  0  0  0  0
  -94.4071   25.3493   -2.0498 C   0  0  0  0  0  0  0  0  0  0  0  0
  -93.9605   25.4331   -0.6984 N   0  0  0  0  0  0  0  0  0  0  0  0
  -93.1323   26.0348   -0.5508 H   0  0  0  0  0  0  0  0  0  0  0  0
  -93.7576   24.5049   -0.2628 H   0  0  0  0  0  0  0  0  0  0  0  0
  -95.9250   25.2402   -2.1254 C   0  0  0  0  0  0  0  0  0  0  0  0
  -96.6567   25.9717   -1.0807 C   0  0  0  0  0  0  0  0  0  0  0  0
  -97.0719   27.3103   -1.1574 C   0  0  0  0  0  0  0  0  0  0  0  0
  -97.7386   27.6514   -0.0374 N   0  0  0  0  0  0  0  0  0  0  0  0
  -97.7889   26.5894    0.7935 C   0  0  0  0  0  0  0  0  0  0  0  0
  -98.3289   26.3875    2.0337 C   0  0  0  0  0  0  0  0  0  0  0  0
  -98.2203   25.1750    2.6557 C   0  0  0  0  0  0  0  0  0  0  0  0
  -97.5502   24.1082    2.0368 C   0  0  0  0  0  0  0  0  0  0  0  0
  -97.0069   24.3271    0.7784 C   0  0  0  0  0  0  0  0  0  0  0  0
  -97.1278   25.5587    0.1604 C   0  0  0  0  0  0  0  0  0  0  0  0
  -98.1738   28.5900    0.2011 H   0  0  0  0  0  0  0  0  0  0  0  0
  -87.6897   30.3893   -1.7637 N   0  0  0  0  0  0  0  0  0  0  0  0
  -87.5449   31.7266   -2.1049 C   0  0  0  0  0  0  0  0  0  0  0  0
  -86.6536   32.4529   -1.6377 O   0  0  0  0  0  0  0  0  0  0  0  0
  -88.5481   29.9079   -2.2419 H   0  0  0  0  0  0  0  0  0  0  0  0
  -86.9468   29.5231   -0.9128 C   0  0  0  0  0  0  0  0  0  0  0  0
  -87.8511   28.3946   -0.5240 C   0  0  0  0  0  0  0  0  0  0  0  0
  -87.5499   27.5684    0.3870 O   0  0  0  0  0  0  0  0  0  0  0  0
  -89.1007   28.2286   -1.2082 N   0  0  0  0  0  0  0  0  0  0  0  0
  -89.3815   28.9081   -1.9319 H   0  0  0  0  0  0  0  0  0  0  0  0
  -89.9588   27.0857   -0.8655 C   0  0  0  0  0  0  0  0  0  0  0  0
  -90.2408   26.3929   -2.1071 C   0  0  0  0  0  0  0  0  0  0  0  0
  -89.8660   26.8617   -3.3568 O   0  0  0  0  0  0  0  0  0  0  0  0
  -90.8806   25.2814   -2.0662 O   0  0  0  0  0  0  0  0  0  0  0  0
  -90.4797   26.6755   -4.1773 H   0  0  0  0  0  0  0  0  0  0  0  0
  -91.1776   27.4939   -0.1182 C   0  0  0  0  0  0  0  0  0  0  0  0
  -90.9436   27.4439    1.3431 C   0  0  0  0  0  0  0  0  0  0  0  0
  -91.1475   28.6094    2.0800 C   0  0  0  0  0  0  0  0  0  0  0  0
  -90.9664   28.6508    3.4454 C   0  0  0  0  0  0  0  0  0  0  0  0
  -90.5658   27.4969    4.1260 C   0  0  0  0  0  0  0  0  0  0  0  0
  -90.3705   26.3616    3.3974 C   0  0  0  0  0  0  0  0  0  0  0  0
  -90.5540   26.3322    2.0393 C   0  0  0  0  0  0  0  0  0  0  0  0
  -86.5430   30.1399    0.4162 C   0  0  0  0  0  0  0  0  0  0  0  0
  -84.5662   29.0607    1.4971 C   0  0  0  0  0  0  0  0  0  0  0  0
  -85.0718   30.2248    0.6665 C   0  0  0  0  0  0  0  0  0  0  0  0
  -84.8406   31.5090    1.4695 C   0  0  0  0  0  0  0  0  0  0  0  0
  -88.3744   33.8593   -2.7078 C   0  0  0  0  0  0  0  0  0  0  0  0
  -88.1319   34.7276   -3.8720 C   0  0  0  0  0  0  0  0  0  0  0  0
  -86.9622   35.4855   -4.0158 C   0  0  0  0  0  0  0  0  0  0  0  0
  -87.0146   36.1739   -5.1646 N   0  0  0  0  0  0  0  0  0  0  0  0
  -88.1723   35.9048   -5.7951 C   0  0  0  0  0  0  0  0  0  0  0  0
  -88.7039   36.3347   -6.9866 C   0  0  0  0  0  0  0  0  0  0  0  0
  -89.9309   35.8696   -7.3819 C   0  0  0  0  0  0  0  0  0  0  0  0
  -90.6038   34.9859   -6.5835 C   0  0  0  0  0  0  0  0  0  0  0  0
  -90.0927   34.5379   -5.3828 C   0  0  0  0  0  0  0  0  0  0  0  0
  -88.8761   34.9992   -4.9898 C   0  0  0  0  0  0  0  0  0  0  0  0
  -86.2815   36.8395   -5.5482 H   0  0  0  0  0  0  0  0  0  0  0  0
 55 56  1  0  0  0
 56 57  1  0  0  0
 56 54  1  0  0  0
 54 37  1  0  0  0
 37 33  1  0  0  0
 33 34  1  0  0  0
 34 35  2  0  0  0
 34  1  1  0  0  0
  1 58  1  0  0  0
 58 59  1  0  0  0
 59 60  2  0  0  0
 60 61  1  0  0  0
 61 62  1  0  0  0
 62 63  2  0  0  0
 63 64  1  0  0  0
 64 65  2  0  0  0
 65 66  1  0  0  0
 66 67  2  0  0  0
  1  2  1  0  0  0
  2  3  1  0  0  0
  3  4  2  0  0  0
  3  6  1  0  0  0
  6  7  1  0  0  0
  7  8  1  0  0  0
  8  9  2  0  0  0
  8 11  1  0  0  0
 11 12  1  0  0  0
 12 13  1  0  0  0
 13 14  1  0  0  0
 14 15  1  0  0  0
 15 16  1  0  0  0
 16 17  2  0  0  0
 16 18  1  0  0  0
 18 19  1  0  0  0
 18 22  1  0  0  0
 22 23  1  0  0  0
 23 24  2  0  0  0
 24 25  1  0  0  0
 25 26  1  0  0  0
 26 27  2  0  0  0
 27 28  1  0  0  0
 28 29  2  0  0  0
 29 30  1  0  0  0
 30 31  2  0  0  0
 37 38  1  0  0  0
 38 39  2  0  0  0
 38 40  1  0  0  0
 40 42  1  0  0  0
 42 47  1  0  0  0
 47 48  1  0  0  0
 48 49  2  0  0  0
 49 50  1  0  0  0
 50 51  2  0  0  0
 51 52  1  0  0  0
 52 53  2  0  0  0
 42 43  1  0  0  0
 43 44  1  0  0  0
 43 45  2  0  0  0
 67 59  1  0  0  0
 15 11  1  0  0  0
 31 23  1  0  0  0
 53 48  1  0  0  0
 67 62  1  0  0  0
 31 26  1  0  0  0
 33 36  1  0  0  0
 61 68  1  0  0  0
  2  5  1  0  0  0
  7 10  1  0  0  0
 19 20  1  0  0  0
 19 21  1  0  0  0
 25 32  1  0  0  0
 40 41  1  0  0  0
 44 46  1  0  0  0
M  END
> <minimizedAffinity>
-8.61700

> <CNNscore>
0.1248904094

> <CNNaffinity>
7.0122489929

> <CNN_VS>
0.8757626414

> <CNNaffinity_variance>
0.8743551970

$$$$
[H]OC(=O)[C@@]([H])(N([H])C(=O)[C@@]([H])(N([H])C(=O)[C@@]([H])(N([H])C(=O)C([H])([H])N([H])C(=O)[C@@]1([H])N(C(=O)[C@@]([H])(N([H])[H])C([H])([H])c2c([H])n([H])c3c([H])c([H])c([H])c([H])c23)C([H])([H])C([H])([H])C1([H])[H])C([H])([H])c1c([H])n([H])c2c([H])c([H])c([H])c([H])c12)C([H])([H])C([H])(C([H])([H])[H])C([H])([H])[H])C([H])([H])c1c([H])c([H])c([H])c([H])c1[H]


 68 73  0  0  0  0  0  0  0  0999 V2000
  -87.4770   27.9483    0.8289 C   0  0  0  0  0  0  0  0  0  0  0  0
  -87.7141   28.8443   -0.2736 N   0  0  0  0  0  0  0  0  0  0  0  0
  -87.4806   28.4245   -1.5955 C   0  0  0  0  0  0  0  0  0  0  0  0
  -87.0599   27.2076   -1.7358 O   0  0  0  0  0  0  0  0  0  0  0  0
  -88.0590   29.7995   -0.0907 H   0  0  0  0  0  0  0  0  0  0  0  0
  -87.6365   29.1539   -2.8271 C   0  0  0  0  0  0  0  0  0  0  0  0
  -88.5384   30.2882   -2.8169 N   0  0  0  0  0  0  0  0  0  0  0  0
  -88.5374   31.0790   -3.9814 C   0  0  0  0  0  0  0  0  0  0  0  0
  -87.7284   30.6595   -4.9169 O   0  0  0  0  0  0  0  0  0  0  0  0
  -89.1244   30.4178   -1.9935 H   0  0  0  0  0  0  0  0  0  0  0  0
  -89.3051   32.2512   -4.2418 C   0  0  0  0  0  0  0  0  0  0  0  0
  -89.0106   33.3906   -3.2561 C   0  0  0  0  0  0  0  0  0  0  0  0
  -90.0054   34.4288   -3.7533 C   0  0  0  0  0  0  0  0  0  0  0  0
  -90.9443   33.7032   -4.7106 C   0  0  0  0  0  0  0  0  0  0  0  0
  -90.7199   32.2916   -4.2710 N   0  0  0  0  0  0  0  0  0  0  0  0
  -91.7814   31.4248   -3.9961 C   0  0  0  0  0  0  0  0  0  0  0  0
  -91.5123   30.2565   -3.5517 O   0  0  0  0  0  0  0  0  0  0  0  0
  -93.2285   31.7031   -4.1705 C   0  0  0  0  0  0  0  0  0  0  0  0
  -93.6451   32.9910   -3.7229 N   0  0  0  0  0  0  0  0  0  0  0  0
  -93.0038   33.4462   -3.0511 H   0  0  0  0  0  0  0  0  0  0  0  0
  -94.6021   33.0024   -3.3026 H   0  0  0  0  0  0  0  0  0  0  0  0
  -93.6194   31.4691   -5.6245 C   0  0  0  0  0  0  0  0  0  0  0  0
  -94.4746   30.2965   -5.8605 C   0  0  0  0  0  0  0  0  0  0  0  0
  -95.8771   30.3048   -5.9162 C   0  0  0  0  0  0  0  0  0  0  0  0
  -96.3357   29.0648   -6.1754 N   0  0  0  0  0  0  0  0  0  0  0  0
  -95.2917   28.2187   -6.2974 C   0  0  0  0  0  0  0  0  0  0  0  0
  -95.1889   26.8788   -6.5512 C   0  0  0  0  0  0  0  0  0  0  0  0
  -93.9665   26.2701   -6.6154 C   0  0  0  0  0  0  0  0  0  0  0  0
  -92.7872   27.0058   -6.4206 C   0  0  0  0  0  0  0  0  0  0  0  0
  -92.9062   28.3647   -6.1638 C   0  0  0  0  0  0  0  0  0  0  0  0
  -94.1501   28.9670   -6.1051 C   0  0  0  0  0  0  0  0  0  0  0  0
  -97.3452   28.7519   -6.2774 H   0  0  0  0  0  0  0  0  0  0  0  0
  -88.6531   26.1463    2.0945 N   0  0  0  0  0  0  0  0  0  0  0  0
  -88.7142   27.3267    1.3675 C   0  0  0  0  0  0  0  0  0  0  0  0
  -89.7765   27.9231    1.1309 O   0  0  0  0  0  0  0  0  0  0  0  0
  -87.6415   25.7382    2.1790 H   0  0  0  0  0  0  0  0  0  0  0  0
  -89.6449   25.3606    2.7467 C   0  0  0  0  0  0  0  0  0  0  0  0
  -90.2905   24.5005    1.7046 C   0  0  0  0  0  0  0  0  0  0  0  0
  -91.5268   24.2273    1.7228 O   0  0  0  0  0  0  0  0  0  0  0  0
  -89.4874   23.9536    0.6495 N   0  0  0  0  0  0  0  0  0  0  0  0
  -88.4843   24.1885    0.5964 H   0  0  0  0  0  0  0  0  0  0  0  0
  -90.1121   23.0618   -0.3377 C   0  0  0  0  0  0  0  0  0  0  0  0
  -89.6761   21.7176   -0.0154 C   0  0  0  0  0  0  0  0  0  0  0  0
  -88.3511   21.3607    0.1822 O   0  0  0  0  0  0  0  0  0  0  0  0
  -90.5549   20.7887    0.0905 O   0  0  0  0  0  0  0  0  0  0  0  0
  -88.0287   20.4135   -0.1067 H   0  0  0  0  0  0  0  0  0  0  0  0
  -89.8164   23.4672   -1.7372 C   0  0  0  0  0  0  0  0  0  0  0  0
  -90.6237   24.6451   -2.1286 C   0  0  0  0  0  0  0  0  0  0  0  0
  -91.9521   24.4368   -2.4958 C   0  0  0  0  0  0  0  0  0  0  0  0
  -92.7799   25.4760   -2.8616 C   0  0  0  0  0  0  0  0  0  0  0  0
  -92.2865   26.7842   -2.8698 C   0  0  0  0  0  0  0  0  0  0  0  0
  -90.9869   26.9785   -2.5076 C   0  0  0  0  0  0  0  0  0  0  0  0
  -90.1728   25.9370   -2.1452 C   0  0  0  0  0  0  0  0  0  0  0  0
  -90.8007   26.1593    3.3260 C   0  0  0  0  0  0  0  0  0  0  0  0
  -90.0508   28.0547    4.7702 C   0  0  0  0  0  0  0  0  0  0  0  0
  -90.6098   26.6454    4.7266 C   0  0  0  0  0  0  0  0  0  0  0  0
  -89.5810   25.7128    5.3743 C   0  0  0  0  0  0  0  0  0  0  0  0
  -86.9472   28.7533    2.0325 C   0  0  0  0  0  0  0  0  0  0  0  0
  -85.5113   29.0647    1.9361 C   0  0  0  0  0  0  0  0  0  0  0  0
  -84.5209   28.2196    2.4540 C   0  0  0  0  0  0  0  0  0  0  0  0
  -83.3132   28.7524    2.2218 N   0  0  0  0  0  0  0  0  0  0  0  0
  -83.4571   29.9193    1.5676 C   0  0  0  0  0  0  0  0  0  0  0  0
  -82.5519   30.8387    1.0962 C   0  0  0  0  0  0  0  0  0  0  0  0
  -83.0058   31.9561    0.4453 C   0  0  0  0  0  0  0  0  0  0  0  0
  -84.3514   32.1356    0.2767 C   0  0  0  0  0  0  0  0  0  0  0  0
  -85.2816   31.2278    0.7398 C   0  0  0  0  0  0  0  0  0  0  0  0
  -84.8321   30.1198    1.3860 C   0  0  0  0  0  0  0  0  0  0  0  0
  -82.3701   28.3504    2.4987 H   0  0  0  0  0  0  0  0  0  0  0  0
 55 56  1  0  0  0
 56 57  1  0  0  0
 56 54  1  0  0  0
 54 37  1  0  0  0
 37 33  1  0  0  0
 33 34  1  0  0  0
 34 35  2  0  0  0
 34  1  1  0  0  0
  1 58  1  0  0  0
 58 59  1  0  0  0
 59 60  2  0  0  0
 60 61  1  0  0  0
 61 62  1  0  0  0
 62 63  2  0  0  0
 63 64  1  0  0  0
 64 65  2  0  0  0
 65 66  1  0  0  0
 66 67  2  0  0  0
  1  2  1  0  0  0
  2  3  1  0  0  0
  3  4  2  0  0  0
  3  6  1  0  0  0
  6  7  1  0  0  0
  7  8  1  0  0  0
  8  9  2  0  0  0
  8 11  1  0  0  0
 11 12  1  0  0  0
 12 13  1  0  0  0
 13 14  1  0  0  0
 14 15  1  0  0  0
 15 16  1  0  0  0
 16 17  2  0  0  0
 16 18  1  0  0  0
 18 19  1  0  0  0
 18 22  1  0  0  0
 22 23  1  0  0  0
 23 24  2  0  0  0
 24 25  1  0  0  0
 25 26  1  0  0  0
 26 27  2  0  0  0
 27 28  1  0  0  0
 28 29  2  0  0  0
 29 30  1  0  0  0
 30 31  2  0  0  0
 37 38  1  0  0  0
 38 39  2  0  0  0
 38 40  1  0  0  0
 40 42  1  0  0  0
 42 47  1  0  0  0
 47 48  1  0  0  0
 48 49  2  0  0  0
 49 50  1  0  0  0
 50 51  2  0  0  0
 51 52  1  0  0  0
 52 53  2  0  0  0
 42 43  1  0  0  0
 43 44  1  0  0  0
 43 45  2  0  0  0
 67 59  1  0  0  0
 15 11  1  0  0  0
 31 23  1  0  0  0
 53 48  1  0  0  0
 67 62  1  0  0  0
 31 26  1  0  0  0
 33 36  1  0  0  0
 61 68  1  0  0  0
  2  5  1  0  0  0
  7 10  1  0  0  0
 19 20  1  0  0  0
 19 21  1  0  0  0
 25 32  1  0  0  0
 40 41  1  0  0  0
 44 46  1  0  0  0
M  END
> <minimizedAffinity>
-10.43876

> <CNNscore>
0.0952689499

> <CNNaffinity>
7.1505875587

> <CNN_VS>
0.6812289953

> <CNNaffinity_variance>
2.0493750572

$$$$
[H]OC(=O)[C@@]([H])(N([H])C(=O)[C@@]([H])(N([H])C(=O)[C@@]([H])(N([H])C(=O)C([H])([H])N([H])C(=O)[C@@]1([H])N(C(=O)[C@@]([H])(N([H])[H])C([H])([H])c2c([H])n([H])c3c([H])c([H])c([H])c([H])c23)C([H])([H])C([H])([H])C1([H])[H])C([H])([H])c1c([H])n([H])c2c([H])c([H])c([H])c([H])c12)C([H])([H])C([H])(C([H])([H])[H])C([H])([H])[H])C([H])([H])c1c([H])c([H])c([H])c([H])c1[H]


 68 73  0  0  0  0  0  0  0  0999 V2000
  -89.8443   25.9177   -1.0388 C   0  0  0  0  0  0  0  0  0  0  0  0
  -89.2107   27.0127   -0.3503 N   0  0  0  0  0  0  0  0  0  0  0  0
  -87.9859   26.8229    0.3145 C   0  0  0  0  0  0  0  0  0  0  0  0
  -87.4876   25.6291    0.2507 O   0  0  0  0  0  0  0  0  0  0  0  0
  -89.6588   27.9422   -0.3471 H   0  0  0  0  0  0  0  0  0  0  0  0
  -87.1982   27.7651    1.0661 C   0  0  0  0  0  0  0  0  0  0  0  0
  -86.3047   28.6278    0.3194 N   0  0  0  0  0  0  0  0  0  0  0  0
  -85.1975   29.1239    1.0331 C   0  0  0  0  0  0  0  0  0  0  0  0
  -85.1276   28.7150    2.2715 O   0  0  0  0  0  0  0  0  0  0  0  0
  -86.5180   28.7907   -0.6635 H   0  0  0  0  0  0  0  0  0  0  0  0
  -84.1734   29.9955    0.5612 C   0  0  0  0  0  0  0  0  0  0  0  0
  -83.1507   30.3602    1.6464 C   0  0  0  0  0  0  0  0  0  0  0  0
  -82.2674   31.3178    0.8606 C   0  0  0  0  0  0  0  0  0  0  0  0
  -83.0188   31.6409   -0.4260 C   0  0  0  0  0  0  0  0  0  0  0  0
  -84.4071   31.2677   -0.0142 N   0  0  0  0  0  0  0  0  0  0  0  0
  -85.4951   32.1198   -0.2238 C   0  0  0  0  0  0  0  0  0  0  0  0
  -86.6393   31.7654    0.2235 O   0  0  0  0  0  0  0  0  0  0  0  0
  -85.4836   33.4237   -0.9319 C   0  0  0  0  0  0  0  0  0  0  0  0
  -84.2268   34.0968   -0.9193 N   0  0  0  0  0  0  0  0  0  0  0  0
  -83.5773   33.7909   -0.1747 H   0  0  0  0  0  0  0  0  0  0  0  0
  -84.3060   35.1374   -0.8609 H   0  0  0  0  0  0  0  0  0  0  0  0
  -85.9960   33.2343   -2.3542 C   0  0  0  0  0  0  0  0  0  0  0  0
  -87.3608   33.7247   -2.5971 C   0  0  0  0  0  0  0  0  0  0  0  0
  -88.4775   33.4717   -1.7853 C   0  0  0  0  0  0  0  0  0  0  0  0
  -89.5624   34.0940   -2.2861 N   0  0  0  0  0  0  0  0  0  0  0  0
  -89.2175   34.7594   -3.4081 C   0  0  0  0  0  0  0  0  0  0  0  0
  -89.9114   35.5362   -4.2944 C   0  0  0  0  0  0  0  0  0  0  0  0
  -89.2866   36.0945   -5.3747 C   0  0  0  0  0  0  0  0  0  0  0  0
  -87.9178   35.8823   -5.6011 C   0  0  0  0  0  0  0  0  0  0  0  0
  -87.2259   35.0918   -4.6938 C   0  0  0  0  0  0  0  0  0  0  0  0
  -87.8713   34.5364   -3.6036 C   0  0  0  0  0  0  0  0  0  0  0  0
  -90.5508   34.0930   -1.8983 H   0  0  0  0  0  0  0  0  0  0  0  0
  -91.7752   26.0268   -2.6174 N   0  0  0  0  0  0  0  0  0  0  0  0
  -90.4428   26.3013   -2.3434 C   0  0  0  0  0  0  0  0  0  0  0  0
  -89.6888   26.8720   -3.1471 O   0  0  0  0  0  0  0  0  0  0  0  0
  -92.2839   25.4884   -1.8122 H   0  0  0  0  0  0  0  0  0  0  0  0
  -92.6078   26.3024   -3.7386 C   0  0  0  0  0  0  0  0  0  0  0  0
  -93.1013   27.7089   -3.5940 C   0  0  0  0  0  0  0  0  0  0  0  0
  -94.2654   27.9784   -3.1749 O   0  0  0  0  0  0  0  0  0  0  0  0
  -92.2364   28.7965   -3.9494 N   0  0  0  0  0  0  0  0  0  0  0  0
  -91.2730   28.6020   -4.2630 H   0  0  0  0  0  0  0  0  0  0  0  0
  -92.7438   30.1731   -3.8629 C   0  0  0  0  0  0  0  0  0  0  0  0
  -92.9606   30.6205   -5.2244 C   0  0  0  0  0  0  0  0  0  0  0  0
  -92.7755   29.8194   -6.3407 O   0  0  0  0  0  0  0  0  0  0  0  0
  -93.3401   31.8293   -5.4275 O   0  0  0  0  0  0  0  0  0  0  0  0
  -92.4302   30.2474   -7.2250 H   0  0  0  0  0  0  0  0  0  0  0  0
  -91.8470   31.0611   -3.0771 C   0  0  0  0  0  0  0  0  0  0  0  0
  -90.4442   30.9342   -3.5340 C   0  0  0  0  0  0  0  0  0  0  0  0
  -89.5660   30.1838   -2.7538 C   0  0  0  0  0  0  0  0  0  0  0  0
  -88.2470   30.0019   -3.1093 C   0  0  0  0  0  0  0  0  0  0  0  0
  -87.7606   30.5817   -4.2850 C   0  0  0  0  0  0  0  0  0  0  0  0
  -88.6271   31.3123   -5.0423 C   0  0  0  0  0  0  0  0  0  0  0  0
  -89.9372   31.4861   -4.6788 C   0  0  0  0  0  0  0  0  0  0  0  0
  -93.8809   25.4745   -3.7965 C   0  0  0  0  0  0  0  0  0  0  0  0
  -95.4305   25.6277   -5.7500 C   0  0  0  0  0  0  0  0  0  0  0  0
  -94.2316   24.9253   -5.1417 C   0  0  0  0  0  0  0  0  0  0  0  0
  -94.6086   23.4558   -4.9268 C   0  0  0  0  0  0  0  0  0  0  0  0
  -91.0676   25.4473   -0.2268 C   0  0  0  0  0  0  0  0  0  0  0  0
  -90.7404   25.0956    1.1651 C   0  0  0  0  0  0  0  0  0  0  0  0
  -90.4227   23.7884    1.5570 C   0  0  0  0  0  0  0  0  0  0  0  0
  -90.1696   23.7658    2.8729 N   0  0  0  0  0  0  0  0  0  0  0  0
  -90.3039   25.0065    3.3758 C   0  0  0  0  0  0  0  0  0  0  0  0
  -90.1509   25.5184    4.6413 C   0  0  0  0  0  0  0  0  0  0  0  0
  -90.3510   26.8575    4.8535 C   0  0  0  0  0  0  0  0  0  0  0  0
  -90.6993   27.6599    3.8018 C   0  0  0  0  0  0  0  0  0  0  0  0
  -90.8591   27.1716    2.5212 C   0  0  0  0  0  0  0  0  0  0  0  0
  -90.6613   25.8436    2.3103 C   0  0  0  0  0  0  0  0  0  0  0  0
  -89.9067   22.9221    3.4618 H   0  0  0  0  0  0  0  0  0  0  0  0
 55 56  1  0  0  0
 56 57  1  0  0  0
 56 54  1  0  0  0
 54 37  1  0  0  0
 37 33  1  0  0  0
 33 34  1  0  0  0
 34 35  2  0  0  0
 34  1  1  0  0  0
  1 58  1  0  0  0
 58 59  1  0  0  0
 59 60  2  0  0  0
 60 61  1  0  0  0
 61 62  1  0  0  0
 62 63  2  0  0  0
 63 64  1  0  0  0
 64 65  2  0  0  0
 65 66  1  0  0  0
 66 67  2  0  0  0
  1  2  1  0  0  0
  2  3  1  0  0  0
  3  4  2  0  0  0
  3  6  1  0  0  0
  6  7  1  0  0  0
  7  8  1  0  0  0
  8  9  2  0  0  0
  8 11  1  0  0  0
 11 12  1  0  0  0
 12 13  1  0  0  0
 13 14  1  0  0  0
 14 15  1  0  0  0
 15 16  1  0  0  0
 16 17  2  0  0  0
 16 18  1  0  0  0
 18 19  1  0  0  0
 18 22  1  0  0  0
 22 23  1  0  0  0
 23 24  2  0  0  0
 24 25  1  0  0  0
 25 26  1  0  0  0
 26 27  2  0  0  0
 27 28  1  0  0  0
 28 29  2  0  0  0
 29 30  1  0  0  0
 30 31  2  0  0  0
 37 38  1  0  0  0
 38 39  2  0  0  0
 38 40  1  0  0  0
 40 42  1  0  0  0
 42 47  1  0  0  0
 47 48  1  0  0  0
 48 49  2  0  0  0
 49 50  1  0  0  0
 50 51  2  0  0  0
 51 52  1  0  0  0
 52 53  2  0  0  0
 42 43  1  0  0  0
 43 44  1  0  0  0
 43 45  2  0  0  0
 67 59  1  0  0  0
 15 11  1  0  0  0
 31 23  1  0  0  0
 53 48  1  0  0  0
 67 62  1  0  0  0
 31 26  1  0  0  0
 33 36  1  0  0  0
 61 68  1  0  0  0
  2  5  1  0  0  0
  7 10  1  0  0  0
 19 20  1  0  0  0
 19 21  1  0  0  0
 25 32  1  0  0  0
 40 41  1  0  0  0
 44 46  1  0  0  0
M  END
> <minimizedAffinity>
-9.51724

> <CNNscore>
0.0828504935

> <CNNaffinity>
7.6761894226

> <CNN_VS>
0.6359760761

> <CNNaffinity_variance>
0.6229264736

$$$$
[H]c1nc([H])c(-c2nc(-c3noc(=O)n3[H])c([H])c3nc(N4C([H])([H])C([H])([H])O[C@]5([H])C([H])([H])C([H])([H])C([H])([H])[C@]45[H])n(C([H])([H])[C@]4([H])C([H])([H])C([H])([H])[C@@]([H])(C([H])([H])[H])C([H])([H])C4([H])[H])c23)c([H])c1Cl


 40 46  0  0  0  0  0  0  0  0999 V2000
  -89.8775   31.6096   -2.0300 N   0  0  0  0  0  0  0  0  0  0  0  0
  -89.5370   32.6523   -2.8421 C   0  0  0  0  0  0  0  0  0  0  0  0
  -88.2433   32.8859   -2.6806 N   0  0  0  0  0  0  0  0  0  0  0  0
  -87.7461   32.0069   -1.7773 C   0  0  0  0  0  0  0  0  0  0  0  0
  -86.4907   31.8611   -1.2812 C   0  0  0  0  0  0  0  0  0  0  0  0
  -86.2007   30.8921   -0.3528 C   0  0  0  0  0  0  0  0  0  0  0  0
  -87.1862   30.0989    0.0420 N   0  0  0  0  0  0  0  0  0  0  0  0
  -88.4726   30.2263   -0.4485 C   0  0  0  0  0  0  0  0  0  0  0  0
  -88.7914   31.1878   -1.3656 C   0  0  0  0  0  0  0  0  0  0  0  0
  -90.3321   33.4260   -3.7231 N   0  0  0  0  0  0  0  0  0  0  0  0
  -91.1246   32.9120   -4.8130 C   0  0  0  0  0  0  0  0  0  0  0  0
  -90.6146   33.5317   -6.0966 C   0  0  0  0  0  0  0  0  0  0  0  0
  -90.2517   34.8470   -5.9783 O   0  0  0  0  0  0  0  0  0  0  0  0
  -90.7819   35.4923   -4.8771 C   0  0  0  0  0  0  0  0  0  0  0  0
  -90.1843   36.8827   -4.8456 C   0  0  0  0  0  0  0  0  0  0  0  0
  -89.1469   36.8858   -3.7612 C   0  0  0  0  0  0  0  0  0  0  0  0
  -88.9638   35.4330   -3.3801 C   0  0  0  0  0  0  0  0  0  0  0  0
  -90.3616   34.8942   -3.5722 C   0  0  0  0  0  0  0  0  0  0  0  0
  -89.4157   29.2467    0.0135 C   0  0  0  0  0  0  0  0  0  0  0  0
  -89.6992   28.0656   -0.6204 C   0  0  0  0  0  0  0  0  0  0  0  0
  -90.5739   27.1612   -0.0889 N   0  0  0  0  0  0  0  0  0  0  0  0
  -91.1904   27.4029    1.0827 C   0  0  0  0  0  0  0  0  0  0  0  0
  -90.9425   28.5692    1.7575 C   0  0  0  0  0  0  0  0  0  0  0  0
  -91.6931   28.9623    3.2886 Cl  0  0  0  0  0  0  0  0  0  0  0  0
  -90.0606   29.4646    1.2068 C   0  0  0  0  0  0  0  0  0  0  0  0
  -84.8426   30.7819    0.1559 C   0  0  0  0  0  0  0  0  0  0  0  0
  -84.3537   29.7777    0.8669 N   0  0  0  0  0  0  0  0  0  0  0  0
  -83.1109   30.0179    1.1372 O   0  0  0  0  0  0  0  0  0  0  0  0
  -82.7783   31.1706    0.6111 C   0  0  0  0  0  0  0  0  0  0  0  0
  -81.6528   31.7442    0.6597 O   0  0  0  0  0  0  0  0  0  0  0  0
  -83.8721   31.6795   -0.0230 N   0  0  0  0  0  0  0  0  0  0  0  0
  -83.8616   32.5858   -0.5188 H   0  0  0  0  0  0  0  0  0  0  0  0
  -91.2061   31.1498   -1.9769 C   0  0  0  0  0  0  0  0  0  0  0  0
  -91.6160   26.5588   -4.1827 C   0  0  0  0  0  0  0  0  0  0  0  0
  -92.6892   27.5732   -3.9183 C   0  0  0  0  0  0  0  0  0  0  0  0
  -92.9090   27.7786   -2.4481 C   0  0  0  0  0  0  0  0  0  0  0  0
  -92.7561   29.2114   -1.9984 C   0  0  0  0  0  0  0  0  0  0  0  0
  -91.4185   29.7296   -2.5365 C   0  0  0  0  0  0  0  0  0  0  0  0
  -91.2474   29.5601   -3.9921 C   0  0  0  0  0  0  0  0  0  0  0  0
  -92.4715   28.8863   -4.5985 C   0  0  0  0  0  0  0  0  0  0  0  0
 34 35  1  0  0  0
 35 36  1  0  0  0
 36 37  1  0  0  0
 37 38  1  0  0  0
 38 33  1  0  0  0
 33  1  1  0  0  0
  1  2  1  0  0  0
  2  3  2  0  0  0
  3  4  1  0  0  0
  4  5  2  0  0  0
  5  6  1  0  0  0
  6  7  2  0  0  0
  7  8  1  0  0  0
  8 19  1  0  0  0
 19 20  2  0  0  0
 20 21  1  0  0  0
 21 22  2  0  0  0
 22 23  1  0  0  0
 23 24  1  0  0  0
 23 25  2  0  0  0
  8  9  2  0  0  0
  6 26  1  0  0  0
 26 27  2  0  0  0
 27 28  1  0  0  0
 28 29  1  0  0  0
 29 30  2  0  0  0
 29 31  1  0  0  0
  2 10  1  0  0  0
 10 11  1  0  0  0
 11 12  1  0  0  0
 12 13  1  0  0  0
 13 14  1  0  0  0
 14 15  1  0  0  0
 15 16  1  0  0  0
 16 17  1  0  0  0
 17 18  1  0  0  0
 38 39  1  0  0  0
 39 40  1  0  0  0
 40 35  1  0  0  0
  9  1  1  0  0  0
 31 26  1  0  0  0
 18 10  1  0  0  0
  9  4  1  0  0  0
 18 14  1  0  0  0
 25 19  1  0  0  0
 31 32  1  0  0  0
M  END
> <minimizedAffinity>
-7.16554

> <CNNscore>
0.1761486679

> <CNNaffinity>
7.3592863083

> <CNN_VS>
1.2963284254

> <CNNaffinity_variance>
0.0398763902

$$$$
[H]c1nc([H])c(-c2nc(-c3noc(=O)n3[H])c([H])c3nc(N4C([H])([H])C([H])([H])O[C@]5([H])C([H])([H])C([H])([H])C([H])([H])[C@]45[H])n(C([H])([H])[C@]4([H])C([H])([H])C([H])([H])[C@@]([H])(C([H])([H])[H])C([H])([H])C4([H])[H])c23)c([H])c1Cl


 40 46  0  0  0  0  0  0  0  0999 V2000
  -88.7014   27.5618   -0.5573 N   0  0  0  0  0  0  0  0  0  0  0  0
  -89.6992   27.1664   -1.4003 C   0  0  0  0  0  0  0  0  0  0  0  0
  -89.8539   28.1109   -2.3160 N   0  0  0  0  0  0  0  0  0  0  0  0
  -88.9683   29.1076   -2.0750 C   0  0  0  0  0  0  0  0  0  0  0  0
  -88.7553   30.2802   -2.7256 C   0  0  0  0  0  0  0  0  0  0  0  0
  -87.7938   31.1641   -2.3025 C   0  0  0  0  0  0  0  0  0  0  0  0
  -87.0755   30.8344   -1.2388 N   0  0  0  0  0  0  0  0  0  0  0  0
  -87.2721   29.6463   -0.5595 C   0  0  0  0  0  0  0  0  0  0  0  0
  -88.2282   28.7528   -0.9527 C   0  0  0  0  0  0  0  0  0  0  0  0
  -90.4994   25.9975   -1.3896 N   0  0  0  0  0  0  0  0  0  0  0  0
  -90.1646   24.7540   -0.7401 C   0  0  0  0  0  0  0  0  0  0  0  0
  -90.1055   23.6733   -1.7985 C   0  0  0  0  0  0  0  0  0  0  0  0
  -91.0650   23.7865   -2.7692 O   0  0  0  0  0  0  0  0  0  0  0  0
  -92.1466   24.5723   -2.4189 C   0  0  0  0  0  0  0  0  0  0  0  0
  -93.0339   24.6784   -3.6407 C   0  0  0  0  0  0  0  0  0  0  0  0
  -92.8217   26.0487   -4.2146 C   0  0  0  0  0  0  0  0  0  0  0  0
  -91.6155   26.6029   -3.4887 C   0  0  0  0  0  0  0  0  0  0  0  0
  -91.7835   25.9917   -2.1178 C   0  0  0  0  0  0  0  0  0  0  0  0
  -86.3668   29.3916    0.5259 C   0  0  0  0  0  0  0  0  0  0  0  0
  -85.6885   28.2183    0.7273 C   0  0  0  0  0  0  0  0  0  0  0  0
  -84.8041   28.0719    1.7579 N   0  0  0  0  0  0  0  0  0  0  0  0
  -84.5690   29.0823    2.6151 C   0  0  0  0  0  0  0  0  0  0  0  0
  -85.2213   30.2769    2.4587 C   0  0  0  0  0  0  0  0  0  0  0  0
  -84.9717   31.6452    3.5207 Cl  0  0  0  0  0  0  0  0  0  0  0  0
  -86.1057   30.4038    1.4173 C   0  0  0  0  0  0  0  0  0  0  0  0
  -87.6102   32.4118   -3.0270 C   0  0  0  0  0  0  0  0  0  0  0  0
  -86.7308   33.3594   -2.7408 N   0  0  0  0  0  0  0  0  0  0  0  0
  -86.8484   34.3182   -3.6022 O   0  0  0  0  0  0  0  0  0  0  0  0
  -87.7970   34.0102   -4.4517 C   0  0  0  0  0  0  0  0  0  0  0  0
  -88.2034   34.6936   -5.4345 O   0  0  0  0  0  0  0  0  0  0  0  0
  -88.3004   32.7926   -4.1032 N   0  0  0  0  0  0  0  0  0  0  0  0
  -89.0630   32.3309   -4.6252 H   0  0  0  0  0  0  0  0  0  0  0  0
  -88.3288   26.7574    0.5353 C   0  0  0  0  0  0  0  0  0  0  0  0
  -89.9932   27.9081    5.2275 C   0  0  0  0  0  0  0  0  0  0  0  0
  -90.7578   27.3237    4.0765 C   0  0  0  0  0  0  0  0  0  0  0  0
  -90.8597   28.2877    2.9310 C   0  0  0  0  0  0  0  0  0  0  0  0
  -90.3255   27.7496    1.6259 C   0  0  0  0  0  0  0  0  0  0  0  0
  -88.9216   27.1955    1.8888 C   0  0  0  0  0  0  0  0  0  0  0  0
  -88.8568   26.2132    2.9878 C   0  0  0  0  0  0  0  0  0  0  0  0
  -90.2358   26.0063    3.6007 C   0  0  0  0  0  0  0  0  0  0  0  0
 34 35  1  0  0  0
 35 36  1  0  0  0
 36 37  1  0  0  0
 37 38  1  0  0  0
 38 33  1  0  0  0
 33  1  1  0  0  0
  1  2  1  0  0  0
  2  3  2  0  0  0
  3  4  1  0  0  0
  4  5  2  0  0  0
  5  6  1  0  0  0
  6  7  2  0  0  0
  7  8  1  0  0  0
  8 19  1  0  0  0
 19 20  2  0  0  0
 20 21  1  0  0  0
 21 22  2  0  0  0
 22 23  1  0  0  0
 23 24  1  0  0  0
 23 25  2  0  0  0
  8  9  2  0  0  0
  6 26  1  0  0  0
 26 27  2  0  0  0
 27 28  1  0  0  0
 28 29  1  0  0  0
 29 30  2  0  0  0
 29 31  1  0  0  0
  2 10  1  0  0  0
 10 11  1  0  0  0
 11 12  1  0  0  0
 12 13  1  0  0  0
 13 14  1  0  0  0
 14 15  1  0  0  0
 15 16  1  0  0  0
 16 17  1  0  0  0
 17 18  1  0  0  0
 38 39  1  0  0  0
 39 40  1  0  0  0
 40 35  1  0  0  0
  9  1  1  0  0  0
 31 26  1  0  0  0
 18 10  1  0  0  0
  9  4  1  0  0  0
 18 14  1  0  0  0
 25 19  1  0  0  0
 31 32  1  0  0  0
M  END
> <minimizedAffinity>
-9.74963

> <CNNscore>
0.1375848353

> <CNNaffinity>
7.5285530090

> <CNN_VS>
1.0358147621

> <CNNaffinity_variance>
0.1319507807

$$$$
[H]c1nc([H])c(-c2nc(-c3noc(=O)n3[H])c([H])c3nc(N4C([H])([H])C([H])([H])O[C@]5([H])C([H])([H])C([H])([H])C([H])([H])[C@]45[H])n(C([H])([H])[C@]4([H])C([H])([H])C([H])([H])[C@@]([H])(C([H])([H])[H])C([H])([H])C4([H])[H])c23)c([H])c1Cl


 40 46  0  0  0  0  0  0  0  0999 V2000
  -88.4786   26.3291    0.2588 N   0  0  0  0  0  0  0  0  0  0  0  0
  -89.4821   25.6891   -0.4092 C   0  0  0  0  0  0  0  0  0  0  0  0
  -89.7542   26.3900   -1.4996 N   0  0  0  0  0  0  0  0  0  0  0  0
  -88.9385   27.4710   -1.5437 C   0  0  0  0  0  0  0  0  0  0  0  0
  -88.8495   28.4775   -2.4507 C   0  0  0  0  0  0  0  0  0  0  0  0
  -87.9406   29.4950   -2.2973 C   0  0  0  0  0  0  0  0  0  0  0  0
  -87.1481   29.4618   -1.2357 N   0  0  0  0  0  0  0  0  0  0  0  0
  -87.2183   28.4478   -0.2985 C   0  0  0  0  0  0  0  0  0  0  0  0
  -88.1196   27.4281   -0.4209 C   0  0  0  0  0  0  0  0  0  0  0  0
  -90.1871   24.5032   -0.0876 N   0  0  0  0  0  0  0  0  0  0  0  0
  -89.6583   23.1634   -0.1612 C   0  0  0  0  0  0  0  0  0  0  0  0
  -90.4999   22.3806   -1.1465 C   0  0  0  0  0  0  0  0  0  0  0  0
  -91.8384   22.6647   -1.0898 O   0  0  0  0  0  0  0  0  0  0  0  0
  -92.2484   23.2682    0.0840 C   0  0  0  0  0  0  0  0  0  0  0  0
  -93.7136   23.6114   -0.0802 C   0  0  0  0  0  0  0  0  0  0  0  0
  -93.7896   25.0914   -0.3173 C   0  0  0  0  0  0  0  0  0  0  0  0
  -92.3631   25.5291   -0.5679 C   0  0  0  0  0  0  0  0  0  0  0  0
  -91.5984   24.5915    0.3361 C   0  0  0  0  0  0  0  0  0  0  0  0
  -86.2444   28.5046    0.7555 C   0  0  0  0  0  0  0  0  0  0  0  0
  -85.5561   27.4286    1.2512 C   0  0  0  0  0  0  0  0  0  0  0  0
  -84.6065   27.5733    2.2222 N   0  0  0  0  0  0  0  0  0  0  0  0
  -84.3145   28.7859    2.7276 C   0  0  0  0  0  0  0  0  0  0  0  0
  -84.9739   29.8950    2.2670 C   0  0  0  0  0  0  0  0  0  0  0  0
  -84.6535   31.5095    2.8613 Cl  0  0  0  0  0  0  0  0  0  0  0  0
  -85.9242   29.7285    1.2913 C   0  0  0  0  0  0  0  0  0  0  0  0
  -87.8902   30.5559   -3.2910 C   0  0  0  0  0  0  0  0  0  0  0  0
  -87.9737   30.4017   -4.6034 N   0  0  0  0  0  0  0  0  0  0  0  0
  -87.8987   31.5629   -5.1702 O   0  0  0  0  0  0  0  0  0  0  0  0
  -87.7662   32.4788   -4.2430 C   0  0  0  0  0  0  0  0  0  0  0  0
  -87.6618   33.7285   -4.4031 O   0  0  0  0  0  0  0  0  0  0  0  0
  -87.7580   31.8574   -3.0301 N   0  0  0  0  0  0  0  0  0  0  0  0
  -87.6647   32.3701   -2.1380 H   0  0  0  0  0  0  0  0  0  0  0  0
  -87.9920   25.8185    1.4761 C   0  0  0  0  0  0  0  0  0  0  0  0
  -90.0943   27.3316    5.8809 C   0  0  0  0  0  0  0  0  0  0  0  0
  -90.7724   26.9546    4.5969 C   0  0  0  0  0  0  0  0  0  0  0  0
  -90.4451   27.9167    3.4928 C   0  0  0  0  0  0  0  0  0  0  0  0
  -89.8448   27.2669    2.2697 C   0  0  0  0  0  0  0  0  0  0  0  0
  -88.6805   26.3854    2.7330 C   0  0  0  0  0  0  0  0  0  0  0  0
  -89.0399   25.4148    3.7845 C   0  0  0  0  0  0  0  0  0  0  0  0
  -90.5110   25.5505    4.1557 C   0  0  0  0  0  0  0  0  0  0  0  0
 34 35  1  0  0  0
 35 36  1  0  0  0
 36 37  1  0  0  0
 37 38  1  0  0  0
 38 33  1  0  0  0
 33  1  1  0  0  0
  1  2  1  0  0  0
  2  3  2  0  0  0
  3  4  1  0  0  0
  4  5  2  0  0  0
  5  6  1  0  0  0
  6  7  2  0  0  0
  7  8  1  0  0  0
  8 19  1  0  0  0
 19 20  2  0  0  0
 20 21  1  0  0  0
 21 22  2  0  0  0
 22 23  1  0  0  0
 23 24  1  0  0  0
 23 25  2  0  0  0
  8  9  2  0  0  0
  6 26  1  0  0  0
 26 27  2  0  0  0
 27 28  1  0  0  0
 28 29  1  0  0  0
 29 30  2  0  0  0
 29 31  1  0  0  0
  2 10  1  0  0  0
 10 11  1  0  0  0
 11 12  1  0  0  0
 12 13  1  0  0  0
 13 14  1  0  0  0
 14 15  1  0  0  0
 15 16  1  0  0  0
 16 17  1  0  0  0
 17 18  1  0  0  0
 38 39  1  0  0  0
 39 40  1  0  0  0
 40 35  1  0  0  0
  9  1  1  0  0  0
 31 26  1  0  0  0
 18 10  1  0  0  0
  9  4  1  0  0  0
 18 14  1  0  0  0
 25 19  1  0  0  0
 31 32  1  0  0  0
M  END
> <minimizedAffinity>
-9.96114

> <CNNscore>
0.1027895808

> <CNNaffinity>
7.3312401772

> <CNN_VS>
0.7535750866

> <CNNaffinity_variance>
0.2841011584

$$$$
[H]c1nc([H])c(-c2nc(-c3noc(=O)n3[H])c([H])c3nc(N4C([H])([H])C([H])([H])O[C@]5([H])C([H])([H])C([H])([H])C([H])([H])[C@]45[H])n(C([H])([H])[C@]4([H])C([H])([H])C([H])([H])[C@@]([H])(C([H])([H])[H])C([H])([H])C4([H])[H])c23)c([H])c1Cl


 40 46  0  0  0  0  0  0  0  0999 V2000
  -87.6015   29.0413   -1.0673 N   0  0  0  0  0  0  0  0  0  0  0  0
  -86.5792   29.4348   -0.2533 C   0  0  0  0  0  0  0  0  0  0  0  0
  -86.7789   28.8929    0.9387 N   0  0  0  0  0  0  0  0  0  0  0  0
  -87.9145   28.1548    0.9026 C   0  0  0  0  0  0  0  0  0  0  0  0
  -88.5309   27.4292    1.8707 C   0  0  0  0  0  0  0  0  0  0  0  0
  -89.6971   26.7505    1.6173 C   0  0  0  0  0  0  0  0  0  0  0  0
  -90.2016   26.8226    0.3941 N   0  0  0  0  0  0  0  0  0  0  0  0
  -89.5928   27.5537   -0.6093 C   0  0  0  0  0  0  0  0  0  0  0  0
  -88.4371   28.2464   -0.3825 C   0  0  0  0  0  0  0  0  0  0  0  0
  -85.4680   30.2732   -0.5166 N   0  0  0  0  0  0  0  0  0  0  0  0
  -84.0825   29.9169   -0.3334 C   0  0  0  0  0  0  0  0  0  0  0  0
  -83.4816   30.8738    0.6741 C   0  0  0  0  0  0  0  0  0  0  0  0
  -83.9221   32.1649    0.5526 O   0  0  0  0  0  0  0  0  0  0  0  0
  -84.4848   32.4669   -0.6731 C   0  0  0  0  0  0  0  0  0  0  0  0
  -85.0153   33.8818   -0.5828 C   0  0  0  0  0  0  0  0  0  0  0  0
  -86.5067   33.7793   -0.4505 C   0  0  0  0  0  0  0  0  0  0  0  0
  -86.7840   32.3164   -0.1821 C   0  0  0  0  0  0  0  0  0  0  0  0
  -85.6972   31.6514   -0.9931 C   0  0  0  0  0  0  0  0  0  0  0  0
  -90.2133   27.4748   -1.9021 C   0  0  0  0  0  0  0  0  0  0  0  0
  -89.9865   26.4887   -2.8261 C   0  0  0  0  0  0  0  0  0  0  0  0
  -90.6561   26.4568   -4.0161 N   0  0  0  0  0  0  0  0  0  0  0  0
  -91.5662   27.3997   -4.3221 C   0  0  0  0  0  0  0  0  0  0  0  0
  -91.8306   28.4082   -3.4333 C   0  0  0  0  0  0  0  0  0  0  0  0
  -93.0020   29.6704   -3.7450 Cl  0  0  0  0  0  0  0  0  0  0  0  0
  -91.1474   28.4226   -2.2434 C   0  0  0  0  0  0  0  0  0  0  0  0
  -90.3247   25.9950    2.6901 C   0  0  0  0  0  0  0  0  0  0  0  0
  -90.7126   26.4761    3.8611 N   0  0  0  0  0  0  0  0  0  0  0  0
  -91.2347   25.5187    4.5584 O   0  0  0  0  0  0  0  0  0  0  0  0
  -91.1933   24.4129    3.8571 C   0  0  0  0  0  0  0  0  0  0  0  0
  -91.6070   23.2679    4.1978 O   0  0  0  0  0  0  0  0  0  0  0  0
  -90.6140   24.6932    2.6558 N   0  0  0  0  0  0  0  0  0  0  0  0
  -90.4684   23.9794    1.9233 H   0  0  0  0  0  0  0  0  0  0  0  0
  -87.6637   29.4846   -2.4011 C   0  0  0  0  0  0  0  0  0  0  0  0
  -89.3947   34.2881   -2.6021 C   0  0  0  0  0  0  0  0  0  0  0  0
  -89.4667   33.2189   -3.6520 C   0  0  0  0  0  0  0  0  0  0  0  0
  -88.1035   32.8366   -4.1496 C   0  0  0  0  0  0  0  0  0  0  0  0
  -87.7905   31.3661   -4.0148 C   0  0  0  0  0  0  0  0  0  0  0  0
  -88.0972   30.9536   -2.5716 C   0  0  0  0  0  0  0  0  0  0  0  0
  -89.4600   31.2971   -2.1226 C   0  0  0  0  0  0  0  0  0  0  0  0
  -90.2266   32.0012   -3.2346 C   0  0  0  0  0  0  0  0  0  0  0  0
 34 35  1  0  0  0
 35 36  1  0  0  0
 36 37  1  0  0  0
 37 38  1  0  0  0
 38 33  1  0  0  0
 33  1  1  0  0  0
  1  2  1  0  0  0
  2  3  2  0  0  0
  3  4  1  0  0  0
  4  5  2  0  0  0
  5  6  1  0  0  0
  6  7  2  0  0  0
  7  8  1  0  0  0
  8 19  1  0  0  0
 19 20  2  0  0  0
 20 21  1  0  0  0
 21 22  2  0  0  0
 22 23  1  0  0  0
 23 24  1  0  0  0
 23 25  2  0  0  0
  8  9  2  0  0  0
  6 26  1  0  0  0
 26 27  2  0  0  0
 27 28  1  0  0  0
 28 29  1  0  0  0
 29 30  2  0  0  0
 29 31  1  0  0  0
  2 10  1  0  0  0
 10 11  1  0  0  0
 11 12  1  0  0  0
 12 13  1  0  0  0
 13 14  1  0  0  0
 14 15  1  0  0  0
 15 16  1  0  0  0
 16 17  1  0  0  0
 17 18  1  0  0  0
 38 39  1  0  0  0
 39 40  1  0  0  0
 40 35  1  0  0  0
  9  1  1  0  0  0
 31 26  1  0  0  0
 18 10  1  0  0  0
  9  4  1  0  0  0
 18 14  1  0  0  0
 25 19  1  0  0  0
 31 32  1  0  0  0
M  END
> <minimizedAffinity>
-7.62220

> <CNNscore>
0.0804261267

> <CNNaffinity>
6.9560585022

> <CNN_VS>
0.5594488382

> <CNNaffinity_variance>
0.1203079671

$$$$
[H]c1nc([H])c(-c2nc(-c3noc(=O)n3[H])c([H])c3nc(N4C([H])([H])C([H])([H])O[C@]5([H])C([H])([H])C([H])([H])C([H])([H])[C@]45[H])n(C([H])([H])[C@]4([H])C([H])([H])C([H])([H])[C@@]([H])(C([H])([H])[H])C([H])([H])C4([H])[H])c23)c([H])c1Cl


 40 46  0  0  0  0  0  0  0  0999 V2000
  -90.3198   27.9567    0.0892 N   0  0  0  0  0  0  0  0  0  0  0  0
  -89.4093   27.6539    1.0597 C   0  0  0  0  0  0  0  0  0  0  0  0
  -88.4050   28.5111    0.9547 N   0  0  0  0  0  0  0  0  0  0  0  0
  -88.6575   29.3625   -0.0686 C   0  0  0  0  0  0  0  0  0  0  0  0
  -87.9265   30.3938   -0.5642 C   0  0  0  0  0  0  0  0  0  0  0  0
  -88.3738   31.1357   -1.6293 C   0  0  0  0  0  0  0  0  0  0  0  0
  -89.5463   30.8155   -2.1573 N   0  0  0  0  0  0  0  0  0  0  0  0
  -90.3101   29.7709   -1.6705 C   0  0  0  0  0  0  0  0  0  0  0  0
  -89.8851   29.0100   -0.6182 C   0  0  0  0  0  0  0  0  0  0  0  0
  -89.4199   26.6316    2.0404 N   0  0  0  0  0  0  0  0  0  0  0  0
  -89.6931   25.2362    1.7988 C   0  0  0  0  0  0  0  0  0  0  0  0
  -90.9107   24.8493    2.6109 C   0  0  0  0  0  0  0  0  0  0  0  0
  -90.9642   25.4282    3.8510 O   0  0  0  0  0  0  0  0  0  0  0  0
  -89.7534   25.9077    4.3138 C   0  0  0  0  0  0  0  0  0  0  0  0
  -90.0254   26.6097    5.6270 C   0  0  0  0  0  0  0  0  0  0  0  0
  -89.9703   28.0840    5.3516 C   0  0  0  0  0  0  0  0  0  0  0  0
  -89.9509   28.2077    3.8437 C   0  0  0  0  0  0  0  0  0  0  0  0
  -89.1645   26.9791    3.4522 C   0  0  0  0  0  0  0  0  0  0  0  0
  -91.5918   29.5926   -2.2936 C   0  0  0  0  0  0  0  0  0  0  0  0
  -91.8527   28.7310   -3.3265 C   0  0  0  0  0  0  0  0  0  0  0  0
  -93.1128   28.5819   -3.8318 N   0  0  0  0  0  0  0  0  0  0  0  0
  -94.1462   29.2817   -3.3283 C   0  0  0  0  0  0  0  0  0  0  0  0
  -93.9397   30.1573   -2.2950 C   0  0  0  0  0  0  0  0  0  0  0  0
  -95.2249   31.1018   -1.5750 Cl  0  0  0  0  0  0  0  0  0  0  0  0
  -92.6665   30.2927   -1.8015 C   0  0  0  0  0  0  0  0  0  0  0  0
  -87.5498   32.2245   -2.1303 C   0  0  0  0  0  0  0  0  0  0  0  0
  -86.2619   32.4073   -1.8829 N   0  0  0  0  0  0  0  0  0  0  0  0
  -85.8612   33.4726   -2.4992 O   0  0  0  0  0  0  0  0  0  0  0  0
  -86.8732   33.9920   -3.1488 C   0  0  0  0  0  0  0  0  0  0  0  0
  -86.8766   35.0333   -3.8658 O   0  0  0  0  0  0  0  0  0  0  0  0
  -87.9668   33.2094   -2.9275 N   0  0  0  0  0  0  0  0  0  0  0  0
  -88.8937   33.4125   -3.3361 H   0  0  0  0  0  0  0  0  0  0  0  0
  -91.4924   27.1924   -0.0536 C   0  0  0  0  0  0  0  0  0  0  0  0
  -90.5777   23.0259   -2.8670 C   0  0  0  0  0  0  0  0  0  0  0  0
  -91.8770   23.7419   -2.6434 C   0  0  0  0  0  0  0  0  0  0  0  0
  -92.3160   23.6612   -1.2107 C   0  0  0  0  0  0  0  0  0  0  0  0
  -92.5482   25.0046   -0.5627 C   0  0  0  0  0  0  0  0  0  0  0  0
  -91.3072   25.8664   -0.8168 C   0  0  0  0  0  0  0  0  0  0  0  0
  -90.9251   25.9694   -2.2382 C   0  0  0  0  0  0  0  0  0  0  0  0
  -91.8809   25.1628   -3.1076 C   0  0  0  0  0  0  0  0  0  0  0  0
 34 35  1  0  0  0
 35 36  1  0  0  0
 36 37  1  0  0  0
 37 38  1  0  0  0
 38 33  1  0  0  0
 33  1  1  0  0  0
  1  2  1  0  0  0
  2  3  2  0  0  0
  3  4  1  0  0  0
  4  5  2  0  0  0
  5  6  1  0  0  0
  6  7  2  0  0  0
  7  8  1  0  0  0
  8 19  1  0  0  0
 19 20  2  0  0  0
 20 21  1  0  0  0
 21 22  2  0  0  0
 22 23  1  0  0  0
 23 24  1  0  0  0
 23 25  2  0  0  0
  8  9  2  0  0  0
  6 26  1  0  0  0
 26 27  2  0  0  0
 27 28  1  0  0  0
 28 29  1  0  0  0
 29 30  2  0  0  0
 29 31  1  0  0  0
  2 10  1  0  0  0
 10 11  1  0  0  0
 11 12  1  0  0  0
 12 13  1  0  0  0
 13 14  1  0  0  0
 14 15  1  0  0  0
 15 16  1  0  0  0
 16 17  1  0  0  0
 17 18  1  0  0  0
 38 39  1  0  0  0
 39 40  1  0  0  0
 40 35  1  0  0  0
  9  1  1  0  0  0
 31 26  1  0  0  0
 18 10  1  0  0  0
  9  4  1  0  0  0
 18 14  1  0  0  0
 25 19  1  0  0  0
 31 32  1  0  0  0
M  END
> <minimizedAffinity>
-6.84089

> <CNNscore>
0.0745013058

> <CNNaffinity>
6.6869421005

> <CNN_VS>
0.4981859326

> <CNNaffinity_variance>
0.1863869727

$$$$
[H]c1nc([H])c(-c2nc(-c3noc(=O)n3[H])c([H])c3nc(N4C([H])([H])C([H])([H])O[C@]5([H])C([H])([H])C([H])([H])C([H])([H])[C@]45[H])n(C([H])([H])[C@]4([H])C([H])([H])C([H])([H])[C@@]([H])(C([H])([H])[H])C([H])([H])C4([H])[H])c23)c([H])c1Cl


 40 46  0  0  0  0  0  0  0  0999 V2000
  -89.3557   28.0312   -1.1467 N   0  0  0  0  0  0  0  0  0  0  0  0
  -90.4022   27.8263   -1.9985 C   0  0  0  0  0  0  0  0  0  0  0  0
  -90.4485   28.8504   -2.8371 N   0  0  0  0  0  0  0  0  0  0  0  0
  -89.4453   29.7106   -2.5381 C   0  0  0  0  0  0  0  0  0  0  0  0
  -89.0963   30.8954   -3.1021 C   0  0  0  0  0  0  0  0  0  0  0  0
  -88.0299   31.6207   -2.6313 C   0  0  0  0  0  0  0  0  0  0  0  0
  -87.3475   31.1250   -1.6092 N   0  0  0  0  0  0  0  0  0  0  0  0
  -87.6819   29.9206   -1.0181 C   0  0  0  0  0  0  0  0  0  0  0  0
  -88.7439   29.1829   -1.4598 C   0  0  0  0  0  0  0  0  0  0  0  0
  -91.3394   26.7658   -2.0613 N   0  0  0  0  0  0  0  0  0  0  0  0
  -92.7117   26.8280   -1.6219 C   0  0  0  0  0  0  0  0  0  0  0  0
  -92.9020   25.7955   -0.5313 C   0  0  0  0  0  0  0  0  0  0  0  0
  -92.2277   24.6229   -0.7459 O   0  0  0  0  0  0  0  0  0  0  0  0
  -91.8472   24.4109   -2.0575 C   0  0  0  0  0  0  0  0  0  0  0  0
  -91.0216   23.1423   -2.0818 C   0  0  0  0  0  0  0  0  0  0  0  0
  -89.5872   23.5597   -2.2258 C   0  0  0  0  0  0  0  0  0  0  0  0
  -89.5820   25.0553   -1.9974 C   0  0  0  0  0  0  0  0  0  0  0  0
  -90.9144   25.4534   -2.5868 C   0  0  0  0  0  0  0  0  0  0  0  0
  -86.8046   29.4748    0.0279 C   0  0  0  0  0  0  0  0  0  0  0  0
  -86.3633   28.1879    0.1912 C   0  0  0  0  0  0  0  0  0  0  0  0
  -85.4873   27.8533    1.1842 N   0  0  0  0  0  0  0  0  0  0  0  0
  -85.0262   28.7832    2.0407 C   0  0  0  0  0  0  0  0  0  0  0  0
  -85.4361   30.0851    1.9217 C   0  0  0  0  0  0  0  0  0  0  0  0
  -84.8827   31.3595    2.9856 Cl  0  0  0  0  0  0  0  0  0  0  0  0
  -86.3164   30.4008    0.9176 C   0  0  0  0  0  0  0  0  0  0  0  0
  -87.7015   32.8891   -3.2628 C   0  0  0  0  0  0  0  0  0  0  0  0
  -86.9410   33.8437   -2.7494 N   0  0  0  0  0  0  0  0  0  0  0  0
  -86.8644   34.8218   -3.5937 O   0  0  0  0  0  0  0  0  0  0  0  0
  -87.5676   34.5195   -4.6568 C   0  0  0  0  0  0  0  0  0  0  0  0
  -87.7349   35.2205   -5.6955 O   0  0  0  0  0  0  0  0  0  0  0  0
  -88.1140   33.2853   -4.4680 N   0  0  0  0  0  0  0  0  0  0  0  0
  -88.7142   32.8243   -5.1711 H   0  0  0  0  0  0  0  0  0  0  0  0
  -89.0743   27.1055   -0.1252 C   0  0  0  0  0  0  0  0  0  0  0  0
  -89.9377   28.3934    4.7437 C   0  0  0  0  0  0  0  0  0  0  0  0
  -90.8879   27.7987    3.7465 C   0  0  0  0  0  0  0  0  0  0  0  0
  -91.1587   28.7388    2.6087 C   0  0  0  0  0  0  0  0  0  0  0  0
  -90.8518   28.1612    1.2483 C   0  0  0  0  0  0  0  0  0  0  0  0
  -89.4328   27.5853    1.2948 C   0  0  0  0  0  0  0  0  0  0  0  0
  -89.2065   26.6267    2.3933 C   0  0  0  0  0  0  0  0  0  0  0  0
  -90.4711   26.4609    3.2260 C   0  0  0  0  0  0  0  0  0  0  0  0
 34 35  1  0  0  0
 35 36  1  0  0  0
 36 37  1  0  0  0
 37 38  1  0  0  0
 38 33  1  0  0  0
 33  1  1  0  0  0
  1  2  1  0  0  0
  2  3  2  0  0  0
  3  4  1  0  0  0
  4  5  2  0  0  0
  5  6  1  0  0  0
  6  7  2  0  0  0
  7  8  1  0  0  0
  8 19  1  0  0  0
 19 20  2  0  0  0
 20 21  1  0  0  0
 21 22  2  0  0  0
 22 23  1  0  0  0
 23 24  1  0  0  0
 23 25  2  0  0  0
  8  9  2  0  0  0
  6 26  1  0  0  0
 26 27  2  0  0  0
 27 28  1  0  0  0
 28 29  1  0  0  0
 29 30  2  0  0  0
 29 31  1  0  0  0
  2 10  1  0  0  0
 10 11  1  0  0  0
 11 12  1  0  0  0
 12 13  1  0  0  0
 13 14  1  0  0  0
 14 15  1  0  0  0
 15 16  1  0  0  0
 16 17  1  0  0  0
 17 18  1  0  0  0
 38 39  1  0  0  0
 39 40  1  0  0  0
 40 35  1  0  0  0
  9  1  1  0  0  0
 31 26  1  0  0  0
 18 10  1  0  0  0
  9  4  1  0  0  0
 18 14  1  0  0  0
 25 19  1  0  0  0
 31 32  1  0  0  0
M  END
> <minimizedAffinity>
-9.25487

> <CNNscore>
0.0584325604

> <CNNaffinity>
7.1804733276

> <CNN_VS>
0.4195734560

> <CNNaffinity_variance>
0.1553174555

$$$$
[H]c1nc([H])c(-c2nc(-c3noc(=O)n3[H])c([H])c3nc(N4C([H])([H])C([H])([H])O[C@]5([H])C([H])([H])C([H])([H])C([H])([H])[C@]45[H])n(C([H])([H])[C@]4([H])C([H])([H])C([H])([H])[C@@]([H])(C([H])([H])[H])C([H])([H])C4([H])[H])c23)c([H])c1Cl


 40 46  0  0  0  0  0  0  0  0999 V2000
  -90.5507   28.3640   -0.4308 N   0  0  0  0  0  0  0  0  0  0  0  0
  -90.7204   29.1579   -1.5279 C   0  0  0  0  0  0  0  0  0  0  0  0
  -89.5850   29.8070   -1.7378 N   0  0  0  0  0  0  0  0  0  0  0  0
  -88.6865   29.4405   -0.7922 C   0  0  0  0  0  0  0  0  0  0  0  0
  -87.4048   29.8383   -0.5862 C   0  0  0  0  0  0  0  0  0  0  0  0
  -86.6624   29.3360    0.4537 C   0  0  0  0  0  0  0  0  0  0  0  0
  -87.2360   28.4454    1.2498 N   0  0  0  0  0  0  0  0  0  0  0  0
  -88.5391   28.0234    1.0609 C   0  0  0  0  0  0  0  0  0  0  0  0
  -89.3039   28.5136    0.0402 C   0  0  0  0  0  0  0  0  0  0  0  0
  -91.8536   29.3469   -2.3568 N   0  0  0  0  0  0  0  0  0  0  0  0
  -93.0317   30.1042   -2.0122 C   0  0  0  0  0  0  0  0  0  0  0  0
  -94.2202   29.1674   -2.0544 C   0  0  0  0  0  0  0  0  0  0  0  0
  -94.1780   28.2543   -3.0743 O   0  0  0  0  0  0  0  0  0  0  0  0
  -93.3230   28.5868   -4.1080 C   0  0  0  0  0  0  0  0  0  0  0  0
  -93.3171   27.4207   -5.0732 C   0  0  0  0  0  0  0  0  0  0  0  0
  -92.0235   26.6892   -4.8636 C   0  0  0  0  0  0  0  0  0  0  0  0
  -91.4368   27.2713   -3.5963 C   0  0  0  0  0  0  0  0  0  0  0  0
  -91.8928   28.7083   -3.6871 C   0  0  0  0  0  0  0  0  0  0  0  0
  -88.9980   26.9978    1.9554 C   0  0  0  0  0  0  0  0  0  0  0  0
  -89.1330   25.6731    1.6325 C   0  0  0  0  0  0  0  0  0  0  0  0
  -89.5284   24.7488    2.5570 N   0  0  0  0  0  0  0  0  0  0  0  0
  -89.8006   25.1118    3.8239 C   0  0  0  0  0  0  0  0  0  0  0  0
  -89.6817   26.4240    4.1993 C   0  0  0  0  0  0  0  0  0  0  0  0
  -90.0078   26.9835    5.8251 Cl  0  0  0  0  0  0  0  0  0  0  0  0
  -89.2832   27.3371    3.2558 C   0  0  0  0  0  0  0  0  0  0  0  0
  -85.2966   29.8008    0.6386 C   0  0  0  0  0  0  0  0  0  0  0  0
  -84.3671   29.2190    1.3807 N   0  0  0  0  0  0  0  0  0  0  0  0
  -83.2735   29.9070    1.3029 O   0  0  0  0  0  0  0  0  0  0  0  0
  -83.4754   30.9356    0.5172 C   0  0  0  0  0  0  0  0  0  0  0  0
  -82.6468   31.8349    0.1961 O   0  0  0  0  0  0  0  0  0  0  0  0
  -84.7651   30.8890    0.0793 N   0  0  0  0  0  0  0  0  0  0  0  0
  -85.1669   31.5962   -0.5577 H   0  0  0  0  0  0  0  0  0  0  0  0
  -91.6079   27.5663    0.0440 C   0  0  0  0  0  0  0  0  0  0  0  0
  -93.2291   23.7171   -2.8999 C   0  0  0  0  0  0  0  0  0  0  0  0
  -92.5116   23.6556   -1.5838 C   0  0  0  0  0  0  0  0  0  0  0  0
  -91.1206   24.2098   -1.6832 C   0  0  0  0  0  0  0  0  0  0  0  0
  -90.8363   25.3329   -0.7156 C   0  0  0  0  0  0  0  0  0  0  0  0
  -91.9607   26.3644   -0.8538 C   0  0  0  0  0  0  0  0  0  0  0  0
  -93.3166   25.8024   -0.7035 C   0  0  0  0  0  0  0  0  0  0  0  0
  -93.2476   24.3014   -0.4544 C   0  0  0  0  0  0  0  0  0  0  0  0
 34 35  1  0  0  0
 35 36  1  0  0  0
 36 37  1  0  0  0
 37 38  1  0  0  0
 38 33  1  0  0  0
 33  1  1  0  0  0
  1  2  1  0  0  0
  2  3  2  0  0  0
  3  4  1  0  0  0
  4  5  2  0  0  0
  5  6  1  0  0  0
  6  7  2  0  0  0
  7  8  1  0  0  0
  8 19  1  0  0  0
 19 20  2  0  0  0
 20 21  1  0  0  0
 21 22  2  0  0  0
 22 23  1  0  0  0
 23 24  1  0  0  0
 23 25  2  0  0  0
  8  9  2  0  0  0
  6 26  1  0  0  0
 26 27  2  0  0  0
 27 28  1  0  0  0
 28 29  1  0  0  0
 29 30  2  0  0  0
 29 31  1  0  0  0
  2 10  1  0  0  0
 10 11  1  0  0  0
 11 12  1  0  0  0
 12 13  1  0  0  0
 13 14  1  0  0  0
 14 15  1  0  0  0
 15 16  1  0  0  0
 16 17  1  0  0  0
 17 18  1  0  0  0
 38 39  1  0  0  0
 39 40  1  0  0  0
 40 35  1  0  0  0
  9  1  1  0  0  0
 31 26  1  0  0  0
 18 10  1  0  0  0
  9  4  1  0  0  0
 18 14  1  0  0  0
 25 19  1  0  0  0
 31 32  1  0  0  0
M  END
> <minimizedAffinity>
-7.95395

> <CNNscore>
0.0377885699

> <CNNaffinity>
6.8863396645

> <CNN_VS>
0.2602249384

> <CNNaffinity_variance>
0.1215562224

$$$$
[H]c1nc([H])c(-c2nc(-c3noc(=O)n3[H])c([H])c3nc(N4C([H])([H])C([H])([H])O[C@]5([H])C([H])([H])C([H])([H])C([H])([H])[C@]45[H])n(C([H])([H])[C@]4([H])C([H])([H])C([H])([H])[C@@]([H])(C([H])([H])[H])C([H])([H])C4([H])[H])c23)c([H])c1Cl


 40 46  0  0  0  0  0  0  0  0999 V2000
  -90.0495   28.7760   -1.3821 N   0  0  0  0  0  0  0  0  0  0  0  0
  -91.2701   28.6430   -1.9780 C   0  0  0  0  0  0  0  0  0  0  0  0
  -91.5505   29.7856   -2.5865 N   0  0  0  0  0  0  0  0  0  0  0  0
  -90.5266   30.6513   -2.3920 C   0  0  0  0  0  0  0  0  0  0  0  0
  -90.3598   31.9337   -2.8057 C   0  0  0  0  0  0  0  0  0  0  0  0
  -89.2283   32.6428   -2.4864 C   0  0  0  0  0  0  0  0  0  0  0  0
  -88.2998   32.0335   -1.7634 N   0  0  0  0  0  0  0  0  0  0  0  0
  -88.4452   30.7283   -1.3308 C   0  0  0  0  0  0  0  0  0  0  0  0
  -89.5648   30.0026   -1.6257 C   0  0  0  0  0  0  0  0  0  0  0  0
  -92.1660   27.5458   -1.9984 N   0  0  0  0  0  0  0  0  0  0  0  0
  -92.3510   26.5902   -0.9341 C   0  0  0  0  0  0  0  0  0  0  0  0
  -92.0031   25.2179   -1.4704 C   0  0  0  0  0  0  0  0  0  0  0  0
  -92.4068   25.0019   -2.7612 O   0  0  0  0  0  0  0  0  0  0  0  0
  -93.3938   25.8611   -3.2057 C   0  0  0  0  0  0  0  0  0  0  0  0
  -93.6245   25.5543   -4.6700 C   0  0  0  0  0  0  0  0  0  0  0  0
  -92.9691   26.6540   -5.4532 C   0  0  0  0  0  0  0  0  0  0  0  0
  -92.1347   27.4171   -4.4480 C   0  0  0  0  0  0  0  0  0  0  0  0
  -92.9822   27.2990   -3.2034 C   0  0  0  0  0  0  0  0  0  0  0  0
  -87.3233   30.1775   -0.6234 C   0  0  0  0  0  0  0  0  0  0  0  0
  -86.7424   28.9653   -0.8890 C   0  0  0  0  0  0  0  0  0  0  0  0
  -85.6434   28.5337   -0.2024 N   0  0  0  0  0  0  0  0  0  0  0  0
  -85.0919   29.2901    0.7644 C   0  0  0  0  0  0  0  0  0  0  0  0
  -85.6340   30.5107    1.0698 C   0  0  0  0  0  0  0  0  0  0  0  0
  -84.9787   31.5623    2.3055 Cl  0  0  0  0  0  0  0  0  0  0  0  0
  -86.7379   30.9262    0.3686 C   0  0  0  0  0  0  0  0  0  0  0  0
  -89.1005   34.0173   -2.9447 C   0  0  0  0  0  0  0  0  0  0  0  0
  -87.9897   34.7377   -2.9538 N   0  0  0  0  0  0  0  0  0  0  0  0
  -88.2514   35.9105   -3.4348 O   0  0  0  0  0  0  0  0  0  0  0  0
  -89.5237   35.9680   -3.7415 C   0  0  0  0  0  0  0  0  0  0  0  0
  -90.1542   36.9461   -4.2356 O   0  0  0  0  0  0  0  0  0  0  0  0
  -90.0891   34.7661   -3.4361 N   0  0  0  0  0  0  0  0  0  0  0  0
  -91.0904   34.5625   -3.5887 H   0  0  0  0  0  0  0  0  0  0  0  0
  -89.4984   27.7163   -0.6386 C   0  0  0  0  0  0  0  0  0  0  0  0
  -89.6953   27.8121    4.4666 C   0  0  0  0  0  0  0  0  0  0  0  0
  -90.8145   27.6167    3.4868 C   0  0  0  0  0  0  0  0  0  0  0  0
  -91.0427   28.8431    2.6526 C   0  0  0  0  0  0  0  0  0  0  0  0
  -90.9565   28.5993    1.1655 C   0  0  0  0  0  0  0  0  0  0  0  0
  -89.6448   27.8575    0.8891 C   0  0  0  0  0  0  0  0  0  0  0  0
  -89.4669   26.6290    1.6866 C   0  0  0  0  0  0  0  0  0  0  0  0
  -90.6586   26.4155    2.6109 C   0  0  0  0  0  0  0  0  0  0  0  0
 34 35  1  0  0  0
 35 36  1  0  0  0
 36 37  1  0  0  0
 37 38  1  0  0  0
 38 33  1  0  0  0
 33  1  1  0  0  0
  1  2  1  0  0  0
  2  3  2  0  0  0
  3  4  1  0  0  0
  4  5  2  0  0  0
  5  6  1  0  0  0
  6  7  2  0  0  0
  7  8  1  0  0  0
  8 19  1  0  0  0
 19 20  2  0  0  0
 20 21  1  0  0  0
 21 22  2  0  0  0
 22 23  1  0  0  0
 23 24  1  0  0  0
 23 25  2  0  0  0
  8  9  2  0  0  0
  6 26  1  0  0  0
 26 27  2  0  0  0
 27 28  1  0  0  0
 28 29  1  0  0  0
 29 30  2  0  0  0
 29 31  1  0  0  0
  2 10  1  0  0  0
 10 11  1  0  0  0
 11 12  1  0  0  0
 12 13  1  0  0  0
 13 14  1  0  0  0
 14 15  1  0  0  0
 15 16  1  0  0  0
 16 17  1  0  0  0
 17 18  1  0  0  0
 38 39  1  0  0  0
 39 40  1  0  0  0
 40 35  1  0  0  0
  9  1  1  0  0  0
 31 26  1  0  0  0
 18 10  1  0  0  0
  9  4  1  0  0  0
 18 14  1  0  0  0
 25 19  1  0  0  0
 31 32  1  0  0  0
M  END
> <minimizedAffinity>
-8.86409

> <CNNscore>
0.0351725295

> <CNNaffinity>
6.9478921890

> <CNN_VS>
0.2443749458

> <CNNaffinity_variance>
0.1963320225

$$$$
[H]c1nc([H])c(-c2nc(-c3noc(=O)n3[H])c([H])c3nc(N4C([H])([H])C([H])([H])O[C@]5([H])C([H])([H])C([H])([H])C([H])([H])[C@]45[H])n(C([H])([H])[C@]4([H])C([H])([H])C([H])([H])[C@@]([H])(C([H])([H])[H])C([H])([H])C4([H])[H])c23)c([H])c1Cl


 40 46  0  0  0  0  0  0  0  0999 V2000
  -89.4708   29.1307   -1.9208 N   0  0  0  0  0  0  0  0  0  0  0  0
  -90.5968   29.0479   -2.6875 C   0  0  0  0  0  0  0  0  0  0  0  0
  -90.7290   30.1941   -3.3381 N   0  0  0  0  0  0  0  0  0  0  0  0
  -89.7028   31.0124   -3.0022 C   0  0  0  0  0  0  0  0  0  0  0  0
  -89.4145   32.2795   -3.3958 C   0  0  0  0  0  0  0  0  0  0  0  0
  -88.3079   32.9380   -2.9197 C   0  0  0  0  0  0  0  0  0  0  0  0
  -87.5256   32.2951   -2.0648 N   0  0  0  0  0  0  0  0  0  0  0  0
  -87.7966   31.0046   -1.6492 C   0  0  0  0  0  0  0  0  0  0  0  0
  -88.8958   30.3291   -2.0994 C   0  0  0  0  0  0  0  0  0  0  0  0
  -91.5333   27.9947   -2.8310 N   0  0  0  0  0  0  0  0  0  0  0  0
  -91.3295   26.7843   -3.5883 C   0  0  0  0  0  0  0  0  0  0  0  0
  -92.3846   26.7262   -4.6723 C   0  0  0  0  0  0  0  0  0  0  0  0
  -93.6172   27.1753   -4.2791 O   0  0  0  0  0  0  0  0  0  0  0  0
  -93.8080   27.2053   -2.9106 C   0  0  0  0  0  0  0  0  0  0  0  0
  -95.1633   27.8328   -2.6638 C   0  0  0  0  0  0  0  0  0  0  0  0
  -94.9137   29.2340   -2.1877 C   0  0  0  0  0  0  0  0  0  0  0  0
  -93.4425   29.4841   -2.4374 C   0  0  0  0  0  0  0  0  0  0  0  0
  -92.8594   28.1124   -2.1932 C   0  0  0  0  0  0  0  0  0  0  0  0
  -86.8180   30.4105   -0.7820 C   0  0  0  0  0  0  0  0  0  0  0  0
  -86.2620   29.1701   -0.9542 C   0  0  0  0  0  0  0  0  0  0  0  0
  -85.2975   28.6961   -0.1114 N   0  0  0  0  0  0  0  0  0  0  0  0
  -84.8592   29.4369    0.9231 C   0  0  0  0  0  0  0  0  0  0  0  0
  -85.3824   30.6843    1.1404 C   0  0  0  0  0  0  0  0  0  0  0  0
  -84.8671   31.7182    2.4550 Cl  0  0  0  0  0  0  0  0  0  0  0  0
  -86.3503   31.1424    0.2825 C   0  0  0  0  0  0  0  0  0  0  0  0
  -88.0471   34.2983   -3.3637 C   0  0  0  0  0  0  0  0  0  0  0  0
  -88.8247   35.3500   -3.1576 N   0  0  0  0  0  0  0  0  0  0  0  0
  -88.2720   36.3935   -3.6876 O   0  0  0  0  0  0  0  0  0  0  0  0
  -87.1389   36.0378   -4.2406 C   0  0  0  0  0  0  0  0  0  0  0  0
  -86.3159   36.7749   -4.8549 O   0  0  0  0  0  0  0  0  0  0  0  0
  -86.9732   34.6991   -4.0461 N   0  0  0  0  0  0  0  0  0  0  0  0
  -86.1494   34.1800   -4.3915 H   0  0  0  0  0  0  0  0  0  0  0  0
  -89.0866   28.0563   -1.0977 C   0  0  0  0  0  0  0  0  0  0  0  0
  -90.8840   28.3691    3.6754 C   0  0  0  0  0  0  0  0  0  0  0  0
  -90.3532   27.1691    2.9482 C   0  0  0  0  0  0  0  0  0  0  0  0
  -91.2254   26.7933    1.7863 C   0  0  0  0  0  0  0  0  0  0  0  0
  -90.4989   26.7423    0.4642 C   0  0  0  0  0  0  0  0  0  0  0  0
  -89.7290   28.0570    0.3032 C   0  0  0  0  0  0  0  0  0  0  0  0
  -88.8418   28.3793    1.4372 C   0  0  0  0  0  0  0  0  0  0  0  0
  -88.9307   27.2996    2.5080 C   0  0  0  0  0  0  0  0  0  0  0  0
 34 35  1  0  0  0
 35 36  1  0  0  0
 36 37  1  0  0  0
 37 38  1  0  0  0
 38 33  1  0  0  0
 33  1  1  0  0  0
  1  2  1  0  0  0
  2  3  2  0  0  0
  3  4  1  0  0  0
  4  5  2  0  0  0
  5  6  1  0  0  0
  6  7  2  0  0  0
  7  8  1  0  0  0
  8 19  1  0  0  0
 19 20  2  0  0  0
 20 21  1  0  0  0
 21 22  2  0  0  0
 22 23  1  0  0  0
 23 24  1  0  0  0
 23 25  2  0  0  0
  8  9  2  0  0  0
  6 26  1  0  0  0
 26 27  2  0  0  0
 27 28  1  0  0  0
 28 29  1  0  0  0
 29 30  2  0  0  0
 29 31  1  0  0  0
  2 10  1  0  0  0
 10 11  1  0  0  0
 11 12  1  0  0  0
 12 13  1  0  0  0
 13 14  1  0  0  0
 14 15  1  0  0  0
 15 16  1  0  0  0
 16 17  1  0  0  0
 17 18  1  0  0  0
 38 39  1  0  0  0
 39 40  1  0  0  0
 40 35  1  0  0  0
  9  1  1  0  0  0
 31 26  1  0  0  0
 18 10  1  0  0  0
  9  4  1  0  0  0
 18 14  1  0  0  0
 25 19  1  0  0  0
 31 32  1  0  0  0
M  END
> <minimizedAffinity>
-8.39484

> <CNNscore>
0.0309231654

> <CNNaffinity>
7.0430107117

> <CNN_VS>
0.2177921832

> <CNNaffinity_variance>
0.1755506098

$$$$
[H]c1c([H])c([H])c(N2C([H])([H])N([H])C(=O)C23C([H])([H])C([H])([H])N(C(=O)c2c([H])c([H])c(C(C([H])([H])[H])(C([H])([H])[H])C([H])([H])[H])c([H])c2[H])C([H])([H])C3([H])[H])c(Cl)c1[H]


 31 34  0  0  0  0  0  0  0  0999 V2000
  -91.0239   29.5579   -1.5740 C   0  0  0  0  0  0  0  0  0  0  0  0
  -90.9518   29.8924   -0.3140 O   0  0  0  0  0  0  0  0  0  0  0  0
  -90.7033   30.6013   -2.4438 N   0  0  0  0  0  0  0  0  0  0  0  0
  -90.3247   31.8978   -1.7881 C   0  0  0  0  0  0  0  0  0  0  0  0
  -88.9166   32.1368   -2.3138 C   0  0  0  0  0  0  0  0  0  0  0  0
  -89.0169   32.5217   -3.7960 C   0  0  0  0  0  0  0  0  0  0  0  0
  -90.3059   32.0428   -4.3524 C   0  0  0  0  0  0  0  0  0  0  0  0
  -90.6731   30.6349   -3.8763 C   0  0  0  0  0  0  0  0  0  0  0  0
  -88.7331   33.9178   -3.9604 N   0  0  0  0  0  0  0  0  0  0  0  0
  -87.2910   34.0450   -3.6839 C   0  0  0  0  0  0  0  0  0  0  0  0
  -86.7413   32.7334   -3.9471 N   0  0  0  0  0  0  0  0  0  0  0  0
  -87.8188   31.9098   -4.4511 C   0  0  0  0  0  0  0  0  0  0  0  0
  -87.7006   30.9570   -5.2298 O   0  0  0  0  0  0  0  0  0  0  0  0
  -85.7481   32.4775   -3.7883 H   0  0  0  0  0  0  0  0  0  0  0  0
  -89.5089   35.0318   -4.3175 C   0  0  0  0  0  0  0  0  0  0  0  0
  -90.6967   35.2440   -3.6391 C   0  0  0  0  0  0  0  0  0  0  0  0
  -91.5174   36.3178   -3.9748 C   0  0  0  0  0  0  0  0  0  0  0  0
  -91.1700   37.1870   -4.9771 C   0  0  0  0  0  0  0  0  0  0  0  0
  -89.9888   36.9818   -5.6559 C   0  0  0  0  0  0  0  0  0  0  0  0
  -89.1722   35.9022   -5.3140 C   0  0  0  0  0  0  0  0  0  0  0  0
  -87.6804   35.7050   -6.2156 Cl  0  0  0  0  0  0  0  0  0  0  0  0
  -92.2965   25.5626   -2.2971 C   0  0  0  0  0  0  0  0  0  0  0  0
  -91.0443   25.8338   -1.8294 C   0  0  0  0  0  0  0  0  0  0  0  0
  -90.5988   27.1379   -1.5830 C   0  0  0  0  0  0  0  0  0  0  0  0
  -91.4120   28.2057   -1.8035 C   0  0  0  0  0  0  0  0  0  0  0  0
  -92.7052   27.9583   -2.2845 C   0  0  0  0  0  0  0  0  0  0  0  0
  -93.1194   26.6745   -2.5186 C   0  0  0  0  0  0  0  0  0  0  0  0
  -93.4843   24.1522   -3.9180 C   0  0  0  0  0  0  0  0  0  0  0  0
  -92.7706   24.2052   -2.5606 C   0  0  0  0  0  0  0  0  0  0  0  0
  -93.7378   23.6339   -1.5704 C   0  0  0  0  0  0  0  0  0  0  0  0
  -91.5861   23.2428   -2.7040 C   0  0  0  0  0  0  0  0  0  0  0  0
 28 29  1  0  0  0
 29 30  1  0  0  0
 29 31  1  0  0  0
 29 22  1  0  0  0
 22 23  2  0  0  0
 23 24  1  0  0  0
 24 25  2  0  0  0
 25 26  1  0  0  0
 26 27  2  0  0  0
 25  1  1  0  0  0
  1  2  2  0  0  0
  1  3  1  0  0  0
  3  4  1  0  0  0
  4  5  1  0  0  0
  5  6  1  0  0  0
  6  7  1  0  0  0
  7  8  1  0  0  0
  6  9  1  0  0  0
  9 10  1  0  0  0
 10 11  1  0  0  0
 11 12  1  0  0  0
 12 13  2  0  0  0
  9 15  1  0  0  0
 15 16  2  0  0  0
 16 17  1  0  0  0
 17 18  2  0  0  0
 18 19  1  0  0  0
 19 20  2  0  0  0
 20 21  1  0  0  0
 27 22  1  0  0  0
  8  3  1  0  0  0
 20 15  1  0  0  0
 12  6  1  0  0  0
 11 14  1  0  0  0
M  END
> <minimizedAffinity>
-6.31563

> <CNNscore>
0.3263496161

> <CNNaffinity>
5.7518639565

> <CNN_VS>
1.8771185875

> <CNNaffinity_variance>
0.1459791362

$$$$
[H]c1c([H])c([H])c(N2C([H])([H])N([H])C(=O)C23C([H])([H])C([H])([H])N(C(=O)c2c([H])c([H])c(C(C([H])([H])[H])(C([H])([H])[H])C([H])([H])[H])c([H])c2[H])C([H])([H])C3([H])[H])c(Cl)c1[H]


 31 34  0  0  0  0  0  0  0  0999 V2000
  -87.7348   27.3169   -1.4699 C   0  0  0  0  0  0  0  0  0  0  0  0
  -87.0561   26.4191   -2.1318 O   0  0  0  0  0  0  0  0  0  0  0  0
  -89.1030   27.2911   -1.7446 N   0  0  0  0  0  0  0  0  0  0  0  0
  -89.5471   26.2442   -2.7249 C   0  0  0  0  0  0  0  0  0  0  0  0
  -90.5415   25.4283   -1.9114 C   0  0  0  0  0  0  0  0  0  0  0  0
  -91.8086   26.2717   -1.7170 C   0  0  0  0  0  0  0  0  0  0  0  0
  -91.4866   27.7089   -1.8943 C   0  0  0  0  0  0  0  0  0  0  0  0
  -90.1643   28.1082   -1.2344 C   0  0  0  0  0  0  0  0  0  0  0  0
  -92.8717   25.7537   -2.5284 N   0  0  0  0  0  0  0  0  0  0  0  0
  -93.2323   24.4688   -1.9029 C   0  0  0  0  0  0  0  0  0  0  0  0
  -92.8068   24.5892   -0.5258 N   0  0  0  0  0  0  0  0  0  0  0  0
  -92.3079   25.9355   -0.3471 C   0  0  0  0  0  0  0  0  0  0  0  0
  -92.3275   26.5828    0.7059 O   0  0  0  0  0  0  0  0  0  0  0  0
  -92.8687   23.8219    0.1702 H   0  0  0  0  0  0  0  0  0  0  0  0
  -93.5476   26.2280   -3.6635 C   0  0  0  0  0  0  0  0  0  0  0  0
  -93.1038   25.8137   -4.9075 C   0  0  0  0  0  0  0  0  0  0  0  0
  -93.7209   26.2782   -6.0662 C   0  0  0  0  0  0  0  0  0  0  0  0
  -94.7782   27.1495   -6.0035 C   0  0  0  0  0  0  0  0  0  0  0  0
  -95.2253   27.5653   -4.7685 C   0  0  0  0  0  0  0  0  0  0  0  0
  -94.6003   27.0959   -3.6118 C   0  0  0  0  0  0  0  0  0  0  0  0
  -95.2254   27.6621   -2.0736 Cl  0  0  0  0  0  0  0  0  0  0  0  0
  -85.3922   29.8514    1.0187 C   0  0  0  0  0  0  0  0  0  0  0  0
  -85.6883   28.5723    1.3883 C   0  0  0  0  0  0  0  0  0  0  0  0
  -86.4567   27.7167    0.5901 C   0  0  0  0  0  0  0  0  0  0  0  0
  -86.9471   28.1343   -0.6079 C   0  0  0  0  0  0  0  0  0  0  0  0
  -86.6593   29.4444   -1.0148 C   0  0  0  0  0  0  0  0  0  0  0  0
  -85.9058   30.2638   -0.2177 C   0  0  0  0  0  0  0  0  0  0  0  0
  -84.7872   32.2030    1.3803 C   0  0  0  0  0  0  0  0  0  0  0  0
  -84.5934   30.7538    1.8459 C   0  0  0  0  0  0  0  0  0  0  0  0
  -83.1141   30.5217    1.8469 C   0  0  0  0  0  0  0  0  0  0  0  0
  -85.0956   30.7381    3.2941 C   0  0  0  0  0  0  0  0  0  0  0  0
 28 29  1  0  0  0
 29 30  1  0  0  0
 29 31  1  0  0  0
 29 22  1  0  0  0
 22 23  2  0  0  0
 23 24  1  0  0  0
 24 25  2  0  0  0
 25 26  1  0  0  0
 26 27  2  0  0  0
 25  1  1  0  0  0
  1  2  2  0  0  0
  1  3  1  0  0  0
  3  4  1  0  0  0
  4  5  1  0  0  0
  5  6  1  0  0  0
  6  7  1  0  0  0
  7  8  1  0  0  0
  6  9  1  0  0  0
  9 10  1  0  0  0
 10 11  1  0  0  0
 11 12  1  0  0  0
 12 13  2  0  0  0
  9 15  1  0  0  0
 15 16  2  0  0  0
 16 17  1  0  0  0
 17 18  2  0  0  0
 18 19  1  0  0  0
 19 20  2  0  0  0
 20 21  1  0  0  0
 27 22  1  0  0  0
  8  3  1  0  0  0
 20 15  1  0  0  0
 12  6  1  0  0  0
 11 14  1  0  0  0
M  END
> <minimizedAffinity>
-5.81251

> <CNNscore>
0.2060654610

> <CNNaffinity>
6.0449562073

> <CNN_VS>
1.2456567287

> <CNNaffinity_variance>
1.0046426058

$$$$
[H]c1c([H])c([H])c(N2C([H])([H])N([H])C(=O)C23C([H])([H])C([H])([H])N(C(=O)c2c([H])c([H])c(C(C([H])([H])[H])(C([H])([H])[H])C([H])([H])[H])c([H])c2[H])C([H])([H])C3([H])[H])c(Cl)c1[H]


 31 34  0  0  0  0  0  0  0  0999 V2000
  -90.1667   27.4320    0.8054 C   0  0  0  0  0  0  0  0  0  0  0  0
  -90.9750   28.1803    1.5064 O   0  0  0  0  0  0  0  0  0  0  0  0
  -88.9100   28.0064    0.6089 N   0  0  0  0  0  0  0  0  0  0  0  0
  -88.7080   29.3539    1.2397 C   0  0  0  0  0  0  0  0  0  0  0  0
  -87.5297   29.1108    2.1718 C   0  0  0  0  0  0  0  0  0  0  0  0
  -86.2673   28.9433    1.3155 C   0  0  0  0  0  0  0  0  0  0  0  0
  -86.6456   28.5523   -0.0645 C   0  0  0  0  0  0  0  0  0  0  0  0
  -87.7678   27.5117   -0.1017 C   0  0  0  0  0  0  0  0  0  0  0  0
  -85.4321   30.1024    1.4415 N   0  0  0  0  0  0  0  0  0  0  0  0
  -84.9072   30.0417    2.8174 C   0  0  0  0  0  0  0  0  0  0  0  0
  -84.9778   28.6447    3.1847 N   0  0  0  0  0  0  0  0  0  0  0  0
  -85.4372   27.9177    2.0212 C   0  0  0  0  0  0  0  0  0  0  0  0
  -85.1658   26.7437    1.7453 O   0  0  0  0  0  0  0  0  0  0  0  0
  -84.7325   28.2782    4.1242 H   0  0  0  0  0  0  0  0  0  0  0  0
  -85.0679   31.1376    0.5663 C   0  0  0  0  0  0  0  0  0  0  0  0
  -86.0778   31.8657   -0.0389 C   0  0  0  0  0  0  0  0  0  0  0  0
  -85.7705   32.8838   -0.9379 C   0  0  0  0  0  0  0  0  0  0  0  0
  -84.4686   33.1898   -1.2416 C   0  0  0  0  0  0  0  0  0  0  0  0
  -83.4587   32.4694   -0.6423 C   0  0  0  0  0  0  0  0  0  0  0  0
  -83.7752   31.4495    0.2569 C   0  0  0  0  0  0  0  0  0  0  0  0
  -82.4395   30.5777    0.9870 Cl  0  0  0  0  0  0  0  0  0  0  0  0
  -91.8349   23.6843   -0.3245 C   0  0  0  0  0  0  0  0  0  0  0  0
  -91.6105   24.6662   -1.2441 C   0  0  0  0  0  0  0  0  0  0  0  0
  -91.0635   25.9083   -0.9009 C   0  0  0  0  0  0  0  0  0  0  0  0
  -90.7273   26.1902    0.3866 C   0  0  0  0  0  0  0  0  0  0  0  0
  -90.9465   25.2003    1.3545 C   0  0  0  0  0  0  0  0  0  0  0  0
  -91.4829   23.9927    0.9959 C   0  0  0  0  0  0  0  0  0  0  0  0
  -93.8391   22.2803   -0.1274 C   0  0  0  0  0  0  0  0  0  0  0  0
  -92.4083   22.3852   -0.6717 C   0  0  0  0  0  0  0  0  0  0  0  0
  -91.6870   21.1794   -0.1538 C   0  0  0  0  0  0  0  0  0  0  0  0
  -92.5577   22.2550   -2.1917 C   0  0  0  0  0  0  0  0  0  0  0  0
 28 29  1  0  0  0
 29 30  1  0  0  0
 29 31  1  0  0  0
 29 22  1  0  0  0
 22 23  2  0  0  0
 23 24  1  0  0  0
 24 25  2  0  0  0
 25 26  1  0  0  0
 26 27  2  0  0  0
 25  1  1  0  0  0
  1  2  2  0  0  0
  1  3  1  0  0  0
  3  4  1  0  0  0
  4  5  1  0  0  0
  5  6  1  0  0  0
  6  7  1  0  0  0
  7  8  1  0  0  0
  6  9  1  0  0  0
  9 10  1  0  0  0
 10 11  1  0  0  0
 11 12  1  0  0  0
 12 13  2  0  0  0
  9 15  1  0  0  0
 15 16  2  0  0  0
 16 17  1  0  0  0
 17 18  2  0  0  0
 18 19  1  0  0  0
 19 20  2  0  0  0
 20 21  1  0  0  0
 27 22  1  0  0  0
  8  3  1  0  0  0
 20 15  1  0  0  0
 12  6  1  0  0  0
 11 14  1  0  0  0
M  END
> <minimizedAffinity>
-6.61460

> <CNNscore>
0.1563970298

> <CNNaffinity>
6.4160718918

> <CNN_VS>
1.0034545660

> <CNNaffinity_variance>
0.1499940604

$$$$
[H]c1c([H])c([H])c(N2C([H])([H])N([H])C(=O)C23C([H])([H])C([H])([H])N(C(=O)c2c([H])c([H])c(C(C([H])([H])[H])(C([H])([H])[H])C([H])([H])[H])c([H])c2[H])C([H])([H])C3([H])[H])c(Cl)c1[H]


 31 34  0  0  0  0  0  0  0  0999 V2000
  -89.1488   28.2489   -1.4836 C   0  0  0  0  0  0  0  0  0  0  0  0
  -89.0905   26.9980   -1.1140 O   0  0  0  0  0  0  0  0  0  0  0  0
  -90.2471   28.5364   -2.2955 N   0  0  0  0  0  0  0  0  0  0  0  0
  -91.1598   27.3796   -2.5838 C   0  0  0  0  0  0  0  0  0  0  0  0
  -92.4937   27.8643   -2.0342 C   0  0  0  0  0  0  0  0  0  0  0  0
  -93.0274   28.9595   -2.9671 C   0  0  0  0  0  0  0  0  0  0  0  0
  -91.9084   29.5446   -3.7455 C   0  0  0  0  0  0  0  0  0  0  0  0
  -90.6510   29.7706   -2.9019 C   0  0  0  0  0  0  0  0  0  0  0  0
  -94.1366   28.4593   -3.7263 N   0  0  0  0  0  0  0  0  0  0  0  0
  -95.2255   28.3027   -2.7455 C   0  0  0  0  0  0  0  0  0  0  0  0
  -94.9003   29.2186   -1.6744 N   0  0  0  0  0  0  0  0  0  0  0  0
  -93.7154   29.9452   -2.0760 C   0  0  0  0  0  0  0  0  0  0  0  0
  -93.4164   31.0937   -1.7301 O   0  0  0  0  0  0  0  0  0  0  0  0
  -95.4478   29.3035   -0.7969 H   0  0  0  0  0  0  0  0  0  0  0  0
  -94.3275   28.1559   -5.0835 C   0  0  0  0  0  0  0  0  0  0  0  0
  -94.7401   29.1726   -5.9274 C   0  0  0  0  0  0  0  0  0  0  0  0
  -94.9722   28.9175   -7.2766 C   0  0  0  0  0  0  0  0  0  0  0  0
  -94.7963   27.6618   -7.7992 C   0  0  0  0  0  0  0  0  0  0  0  0
  -94.3852   26.6456   -6.9649 C   0  0  0  0  0  0  0  0  0  0  0  0
  -94.1559   26.9093   -5.6132 C   0  0  0  0  0  0  0  0  0  0  0  0
  -93.6285   25.5699   -4.6106 Cl  0  0  0  0  0  0  0  0  0  0  0  0
  -85.9048   30.5698   -0.0023 C   0  0  0  0  0  0  0  0  0  0  0  0
  -87.1315   31.1246   -0.2209 C   0  0  0  0  0  0  0  0  0  0  0  0
  -88.2161   30.3855   -0.7078 C   0  0  0  0  0  0  0  0  0  0  0  0
  -88.0876   29.0604   -0.9867 C   0  0  0  0  0  0  0  0  0  0  0  0
  -86.8383   28.4621   -0.7721 C   0  0  0  0  0  0  0  0  0  0  0  0
  -85.7914   29.2046   -0.2954 C   0  0  0  0  0  0  0  0  0  0  0  0
  -84.8697   31.4873    2.0260 C   0  0  0  0  0  0  0  0  0  0  0  0
  -84.7651   31.3331    0.5029 C   0  0  0  0  0  0  0  0  0  0  0  0
  -84.6019   32.7207   -0.0358 C   0  0  0  0  0  0  0  0  0  0  0  0
  -83.4607   30.5603    0.2770 C   0  0  0  0  0  0  0  0  0  0  0  0
 28 29  1  0  0  0
 29 30  1  0  0  0
 29 31  1  0  0  0
 29 22  1  0  0  0
 22 23  2  0  0  0
 23 24  1  0  0  0
 24 25  2  0  0  0
 25 26  1  0  0  0
 26 27  2  0  0  0
 25  1  1  0  0  0
  1  2  2  0  0  0
  1  3  1  0  0  0
  3  4  1  0  0  0
  4  5  1  0  0  0
  5  6  1  0  0  0
  6  7  1  0  0  0
  7  8  1  0  0  0
  6  9  1  0  0  0
  9 10  1  0  0  0
 10 11  1  0  0  0
 11 12  1  0  0  0
 12 13  2  0  0  0
  9 15  1  0  0  0
 15 16  2  0  0  0
 16 17  1  0  0  0
 17 18  2  0  0  0
 18 19  1  0  0  0
 19 20  2  0  0  0
 20 21  1  0  0  0
 27 22  1  0  0  0
  8  3  1  0  0  0
 20 15  1  0  0  0
 12  6  1  0  0  0
 11 14  1  0  0  0
M  END
> <minimizedAffinity>
-7.35229

> <CNNscore>
0.1510174274

> <CNNaffinity>
5.7345972061

> <CNN_VS>
0.8660241365

> <CNNaffinity_variance>
0.5251028538

$$$$
[H]c1c([H])c([H])c(N2C([H])([H])N([H])C(=O)C23C([H])([H])C([H])([H])N(C(=O)c2c([H])c([H])c(C(C([H])([H])[H])(C([H])([H])[H])C([H])([H])[H])c([H])c2[H])C([H])([H])C3([H])[H])c(Cl)c1[H]


 31 34  0  0  0  0  0  0  0  0999 V2000
  -90.2043   26.1940    3.7034 C   0  0  0  0  0  0  0  0  0  0  0  0
  -90.9790   27.1239    4.1930 O   0  0  0  0  0  0  0  0  0  0  0  0
  -90.2620   26.1003    2.3120 N   0  0  0  0  0  0  0  0  0  0  0  0
  -91.1779   27.0782    1.6345 C   0  0  0  0  0  0  0  0  0  0  0  0
  -90.2324   27.8343    0.7121 C   0  0  0  0  0  0  0  0  0  0  0  0
  -89.8282   26.8967   -0.4335 C   0  0  0  0  0  0  0  0  0  0  0  0
  -90.0299   25.4859   -0.0219 C   0  0  0  0  0  0  0  0  0  0  0  0
  -89.5785   25.2151    1.4156 C   0  0  0  0  0  0  0  0  0  0  0  0
  -90.4717   27.3024   -1.6494 N   0  0  0  0  0  0  0  0  0  0  0  0
  -89.8189   28.5717   -2.0167 C   0  0  0  0  0  0  0  0  0  0  0  0
  -88.5235   28.5270   -1.3749 N   0  0  0  0  0  0  0  0  0  0  0  0
  -88.4028   27.2316   -0.7418 C   0  0  0  0  0  0  0  0  0  0  0  0
  -87.3491   26.6162   -0.5435 O   0  0  0  0  0  0  0  0  0  0  0  0
  -87.8392   29.3069   -1.3934 H   0  0  0  0  0  0  0  0  0  0  0  0
  -91.4791   26.7413   -2.4498 C   0  0  0  0  0  0  0  0  0  0  0  0
  -91.3666   26.8674   -3.8237 C   0  0  0  0  0  0  0  0  0  0  0  0
  -92.3537   26.3543   -4.6613 C   0  0  0  0  0  0  0  0  0  0  0  0
  -93.4528   25.7137   -4.1490 C   0  0  0  0  0  0  0  0  0  0  0  0
  -93.5706   25.5843   -2.7825 C   0  0  0  0  0  0  0  0  0  0  0  0
  -92.5772   26.1025   -1.9497 C   0  0  0  0  0  0  0  0  0  0  0  0
  -92.7892   25.8966   -0.2205 Cl  0  0  0  0  0  0  0  0  0  0  0  0
  -88.0196   24.1199    6.7084 C   0  0  0  0  0  0  0  0  0  0  0  0
  -88.1077   23.6372    5.4358 C   0  0  0  0  0  0  0  0  0  0  0  0
  -88.8195   24.2979    4.4276 C   0  0  0  0  0  0  0  0  0  0  0  0
  -89.4628   25.4692    4.6814 C   0  0  0  0  0  0  0  0  0  0  0  0
  -89.3903   25.9902    5.9807 C   0  0  0  0  0  0  0  0  0  0  0  0
  -88.6885   25.3266    6.9511 C   0  0  0  0  0  0  0  0  0  0  0  0
  -85.9047   24.0877    7.9547 C   0  0  0  0  0  0  0  0  0  0  0  0
  -87.2817   23.4365    7.7691 C   0  0  0  0  0  0  0  0  0  0  0  0
  -87.0165   21.9773    7.5618 C   0  0  0  0  0  0  0  0  0  0  0  0
  -87.9869   23.6224    9.1174 C   0  0  0  0  0  0  0  0  0  0  0  0
 28 29  1  0  0  0
 29 30  1  0  0  0
 29 31  1  0  0  0
 29 22  1  0  0  0
 22 23  2  0  0  0
 23 24  1  0  0  0
 24 25  2  0  0  0
 25 26  1  0  0  0
 26 27  2  0  0  0
 25  1  1  0  0  0
  1  2  2  0  0  0
  1  3  1  0  0  0
  3  4  1  0  0  0
  4  5  1  0  0  0
  5  6  1  0  0  0
  6  7  1  0  0  0
  7  8  1  0  0  0
  6  9  1  0  0  0
  9 10  1  0  0  0
 10 11  1  0  0  0
 11 12  1  0  0  0
 12 13  2  0  0  0
  9 15  1  0  0  0
 15 16  2  0  0  0
 16 17  1  0  0  0
 17 18  2  0  0  0
 18 19  1  0  0  0
 19 20  2  0  0  0
 20 21  1  0  0  0
 27 22  1  0  0  0
  8  3  1  0  0  0
 20 15  1  0  0  0
 12  6  1  0  0  0
 11 14  1  0  0  0
M  END
> <minimizedAffinity>
-6.67788

> <CNNscore>
0.1375750452

> <CNNaffinity>
5.5499591827

> <CNN_VS>
0.7635358572

> <CNNaffinity_variance>
0.4116300046

$$$$
[H]c1c([H])c([H])c(N2C([H])([H])N([H])C(=O)C23C([H])([H])C([H])([H])N(C(=O)c2c([H])c([H])c(C(C([H])([H])[H])(C([H])([H])[H])C([H])([H])[H])c([H])c2[H])C([H])([H])C3([H])[H])c(Cl)c1[H]


 31 34  0  0  0  0  0  0  0  0999 V2000
  -86.0930   33.0625   -1.6125 C   0  0  0  0  0  0  0  0  0  0  0  0
  -85.0472   33.6644   -2.1113 O   0  0  0  0  0  0  0  0  0  0  0  0
  -87.3033   33.5653   -2.0924 N   0  0  0  0  0  0  0  0  0  0  0  0
  -87.1908   34.6808   -3.0911 C   0  0  0  0  0  0  0  0  0  0  0  0
  -87.9023   34.1089   -4.3090 C   0  0  0  0  0  0  0  0  0  0  0  0
  -89.4071   34.0697   -4.0108 C   0  0  0  0  0  0  0  0  0  0  0  0
  -89.6283   34.0841   -2.5441 C   0  0  0  0  0  0  0  0  0  0  0  0
  -88.6502   33.1830   -1.7859 C   0  0  0  0  0  0  0  0  0  0  0  0
  -90.0831   35.0847   -4.7656 N   0  0  0  0  0  0  0  0  0  0  0  0
  -90.0124   34.6252   -6.1642 C   0  0  0  0  0  0  0  0  0  0  0  0
  -89.8456   33.1910   -6.0800 N   0  0  0  0  0  0  0  0  0  0  0  0
  -89.9165   32.8322   -4.6802 C   0  0  0  0  0  0  0  0  0  0  0  0
  -90.3140   31.7530   -4.2269 O   0  0  0  0  0  0  0  0  0  0  0  0
  -89.7044   32.5736   -6.9022 H   0  0  0  0  0  0  0  0  0  0  0  0
  -90.7344   36.2797   -4.4220 C   0  0  0  0  0  0  0  0  0  0  0  0
  -92.0875   36.2260   -4.1351 C   0  0  0  0  0  0  0  0  0  0  0  0
  -92.7869   37.3875   -3.8173 C   0  0  0  0  0  0  0  0  0  0  0  0
  -92.1559   38.6045   -3.7785 C   0  0  0  0  0  0  0  0  0  0  0  0
  -90.8091   38.6649   -4.0625 C   0  0  0  0  0  0  0  0  0  0  0  0
  -90.1155   37.4960   -4.3814 C   0  0  0  0  0  0  0  0  0  0  0  0
  -88.4021   37.6462   -4.7259 Cl  0  0  0  0  0  0  0  0  0  0  0  0
  -85.0823   30.0228    1.1881 C   0  0  0  0  0  0  0  0  0  0  0  0
  -86.1836   29.9141    0.3909 C   0  0  0  0  0  0  0  0  0  0  0  0
  -86.5403   30.8983   -0.5386 C   0  0  0  0  0  0  0  0  0  0  0  0
  -85.7887   32.0223   -0.6868 C   0  0  0  0  0  0  0  0  0  0  0  0
  -84.6504   32.1622    0.1191 C   0  0  0  0  0  0  0  0  0  0  0  0
  -84.3208   31.1868    1.0216 C   0  0  0  0  0  0  0  0  0  0  0  0
  -85.1676   29.4178    3.5658 C   0  0  0  0  0  0  0  0  0  0  0  0
  -84.7026   29.0026    2.1637 C   0  0  0  0  0  0  0  0  0  0  0  0
  -83.2386   28.7143    2.2899 C   0  0  0  0  0  0  0  0  0  0  0  0
  -85.4408   27.6895    1.8800 C   0  0  0  0  0  0  0  0  0  0  0  0
 28 29  1  0  0  0
 29 30  1  0  0  0
 29 31  1  0  0  0
 29 22  1  0  0  0
 22 23  2  0  0  0
 23 24  1  0  0  0
 24 25  2  0  0  0
 25 26  1  0  0  0
 26 27  2  0  0  0
 25  1  1  0  0  0
  1  2  2  0  0  0
  1  3  1  0  0  0
  3  4  1  0  0  0
  4  5  1  0  0  0
  5  6  1  0  0  0
  6  7  1  0  0  0
  7  8  1  0  0  0
  6  9  1  0  0  0
  9 10  1  0  0  0
 10 11  1  0  0  0
 11 12  1  0  0  0
 12 13  2  0  0  0
  9 15  1  0  0  0
 15 16  2  0  0  0
 16 17  1  0  0  0
 17 18  2  0  0  0
 18 19  1  0  0  0
 19 20  2  0  0  0
 20 21  1  0  0  0
 27 22  1  0  0  0
  8  3  1  0  0  0
 20 15  1  0  0  0
 12  6  1  0  0  0
 11 14  1  0  0  0
M  END
> <minimizedAffinity>
-8.90866

> <CNNscore>
0.1310346425

> <CNNaffinity>
6.0516123772

> <CNN_VS>
0.7929708362

> <CNNaffinity_variance>
0.1033059806

$$$$
[H]c1c([H])c([H])c(N2C([H])([H])N([H])C(=O)C23C([H])([H])C([H])([H])N(C(=O)c2c([H])c([H])c(C(C([H])([H])[H])(C([H])([H])[H])C([H])([H])[H])c([H])c2[H])C([H])([H])C3([H])[H])c(Cl)c1[H]


 31 34  0  0  0  0  0  0  0  0999 V2000
  -90.8679   28.9949   -1.4174 C   0  0  0  0  0  0  0  0  0  0  0  0
  -91.5811   29.6895   -0.5726 O   0  0  0  0  0  0  0  0  0  0  0  0
  -89.5121   28.9466   -1.0898 N   0  0  0  0  0  0  0  0  0  0  0  0
  -89.1221   29.6773    0.1625 C   0  0  0  0  0  0  0  0  0  0  0  0
  -88.5133   28.5732    1.0150 C   0  0  0  0  0  0  0  0  0  0  0  0
  -87.1569   28.1909    0.4077 C   0  0  0  0  0  0  0  0  0  0  0  0
  -87.1140   28.5959   -1.0188 C   0  0  0  0  0  0  0  0  0  0  0  0
  -88.4210   28.3028   -1.7600 C   0  0  0  0  0  0  0  0  0  0  0  0
  -86.0933   28.6763    1.2384 N   0  0  0  0  0  0  0  0  0  0  0  0
  -86.1553   27.8460    2.4546 C   0  0  0  0  0  0  0  0  0  0  0  0
  -86.8097   26.6240    2.0418 N   0  0  0  0  0  0  0  0  0  0  0  0
  -87.0267   26.7147    0.6142 C   0  0  0  0  0  0  0  0  0  0  0  0
  -87.0759   25.7637   -0.1741 O   0  0  0  0  0  0  0  0  0  0  0  0
  -87.0575   25.8511    2.6884 H   0  0  0  0  0  0  0  0  0  0  0  0
  -85.1176   29.6736    1.0845 C   0  0  0  0  0  0  0  0  0  0  0  0
  -85.4713   30.8351    0.4196 C   0  0  0  0  0  0  0  0  0  0  0  0
  -84.5325   31.8430    0.2144 C   0  0  0  0  0  0  0  0  0  0  0  0
  -83.2440   31.7115    0.6654 C   0  0  0  0  0  0  0  0  0  0  0  0
  -82.8856   30.5583    1.3285 C   0  0  0  0  0  0  0  0  0  0  0  0
  -83.8325   29.5521    1.5290 C   0  0  0  0  0  0  0  0  0  0  0  0
  -83.3085   28.1140    2.3860 Cl  0  0  0  0  0  0  0  0  0  0  0  0
  -93.0640   27.4147   -4.7015 C   0  0  0  0  0  0  0  0  0  0  0  0
  -92.9648   26.7356   -3.5228 C   0  0  0  0  0  0  0  0  0  0  0  0
  -92.2490   27.2309   -2.4264 C   0  0  0  0  0  0  0  0  0  0  0  0
  -91.6129   28.4313   -2.4940 C   0  0  0  0  0  0  0  0  0  0  0  0
  -91.6969   29.1526   -3.6930 C   0  0  0  0  0  0  0  0  0  0  0  0
  -92.4025   28.6485   -4.7525 C   0  0  0  0  0  0  0  0  0  0  0  0
  -93.0980   27.3065   -7.1538 C   0  0  0  0  0  0  0  0  0  0  0  0
  -93.8062   26.9052   -5.8531 C   0  0  0  0  0  0  0  0  0  0  0  0
  -95.2194   27.3791   -5.9969 C   0  0  0  0  0  0  0  0  0  0  0  0
  -93.7975   25.3723   -5.8601 C   0  0  0  0  0  0  0  0  0  0  0  0
 28 29  1  0  0  0
 29 30  1  0  0  0
 29 31  1  0  0  0
 29 22  1  0  0  0
 22 23  2  0  0  0
 23 24  1  0  0  0
 24 25  2  0  0  0
 25 26  1  0  0  0
 26 27  2  0  0  0
 25  1  1  0  0  0
  1  2  2  0  0  0
  1  3  1  0  0  0
  3  4  1  0  0  0
  4  5  1  0  0  0
  5  6  1  0  0  0
  6  7  1  0  0  0
  7  8  1  0  0  0
  6  9  1  0  0  0
  9 10  1  0  0  0
 10 11  1  0  0  0
 11 12  1  0  0  0
 12 13  2  0  0  0
  9 15  1  0  0  0
 15 16  2  0  0  0
 16 17  1  0  0  0
 17 18  2  0  0  0
 18 19  1  0  0  0
 19 20  2  0  0  0
 20 21  1  0  0  0
 27 22  1  0  0  0
  8  3  1  0  0  0
 20 15  1  0  0  0
 12  6  1  0  0  0
 11 14  1  0  0  0
M  END
> <minimizedAffinity>
-8.31570

> <CNNscore>
0.1261269301

> <CNNaffinity>
5.9537096024

> <CNN_VS>
0.7509230971

> <CNNaffinity_variance>
0.2044514716

$$$$
[H]c1c([H])c([H])c(N2C([H])([H])N([H])C(=O)C23C([H])([H])C([H])([H])N(C(=O)c2c([H])c([H])c(C(C([H])([H])[H])(C([H])([H])[H])C([H])([H])[H])c([H])c2[H])C([H])([H])C3([H])[H])c(Cl)c1[H]


 31 34  0  0  0  0  0  0  0  0999 V2000
  -90.3766   29.7159   -0.7748 C   0  0  0  0  0  0  0  0  0  0  0  0
  -90.0266   30.2426    0.3674 O   0  0  0  0  0  0  0  0  0  0  0  0
  -90.3857   30.6318   -1.8279 N   0  0  0  0  0  0  0  0  0  0  0  0
  -89.9845   32.0338   -1.4704 C   0  0  0  0  0  0  0  0  0  0  0  0
  -88.7814   32.2745   -2.3711 C   0  0  0  0  0  0  0  0  0  0  0  0
  -89.2841   32.4218   -3.8135 C   0  0  0  0  0  0  0  0  0  0  0  0
  -90.6178   31.7865   -3.9473 C   0  0  0  0  0  0  0  0  0  0  0  0
  -90.7160   30.4482   -3.2105 C   0  0  0  0  0  0  0  0  0  0  0  0
  -89.1877   33.7912   -4.2289 N   0  0  0  0  0  0  0  0  0  0  0  0
  -87.7417   34.0461   -4.3564 C   0  0  0  0  0  0  0  0  0  0  0  0
  -87.1494   32.7454   -4.5779 N   0  0  0  0  0  0  0  0  0  0  0  0
  -88.2326   31.7908   -4.6710 C   0  0  0  0  0  0  0  0  0  0  0  0
  -88.2193   30.7392   -5.3207 O   0  0  0  0  0  0  0  0  0  0  0  0
  -86.1278   32.5774   -4.6505 H   0  0  0  0  0  0  0  0  0  0  0  0
  -90.1328   34.7886   -4.5158 C   0  0  0  0  0  0  0  0  0  0  0  0
  -90.3607   35.7652   -3.5617 C   0  0  0  0  0  0  0  0  0  0  0  0
  -91.3090   36.7602   -3.7847 C   0  0  0  0  0  0  0  0  0  0  0  0
  -92.0337   36.7982   -4.9484 C   0  0  0  0  0  0  0  0  0  0  0  0
  -91.8114   35.8295   -5.9025 C   0  0  0  0  0  0  0  0  0  0  0  0
  -90.8597   34.8347   -5.6706 C   0  0  0  0  0  0  0  0  0  0  0  0
  -90.6246   33.6372   -6.9308 Cl  0  0  0  0  0  0  0  0  0  0  0  0
  -91.1590   25.5403   -0.5362 C   0  0  0  0  0  0  0  0  0  0  0  0
  -92.0440   26.3946   -1.1253 C   0  0  0  0  0  0  0  0  0  0  0  0
  -91.8130   27.7722   -1.2177 C   0  0  0  0  0  0  0  0  0  0  0  0
  -90.6757   28.3236   -0.7149 C   0  0  0  0  0  0  0  0  0  0  0  0
  -89.7469   27.4703   -0.1032 C   0  0  0  0  0  0  0  0  0  0  0  0
  -89.9940   26.1260   -0.0241 C   0  0  0  0  0  0  0  0  0  0  0  0
  -92.2759   23.7988    0.7854 C   0  0  0  0  0  0  0  0  0  0  0  0
  -91.3918   24.1010   -0.4318 C   0  0  0  0  0  0  0  0  0  0  0  0
  -90.1769   23.2397   -0.2755 C   0  0  0  0  0  0  0  0  0  0  0  0
  -92.1991   23.6006   -1.6350 C   0  0  0  0  0  0  0  0  0  0  0  0
 28 29  1  0  0  0
 29 30  1  0  0  0
 29 31  1  0  0  0
 29 22  1  0  0  0
 22 23  2  0  0  0
 23 24  1  0  0  0
 24 25  2  0  0  0
 25 26  1  0  0  0
 26 27  2  0  0  0
 25  1  1  0  0  0
  1  2  2  0  0  0
  1  3  1  0  0  0
  3  4  1  0  0  0
  4  5  1  0  0  0
  5  6  1  0  0  0
  6  7  1  0  0  0
  7  8  1  0  0  0
  6  9  1  0  0  0
  9 10  1  0  0  0
 10 11  1  0  0  0
 11 12  1  0  0  0
 12 13  2  0  0  0
  9 15  1  0  0  0
 15 16  2  0  0  0
 16 17  1  0  0  0
 17 18  2  0  0  0
 18 19  1  0  0  0
 19 20  2  0  0  0
 20 21  1  0  0  0
 27 22  1  0  0  0
  8  3  1  0  0  0
 20 15  1  0  0  0
 12  6  1  0  0  0
 11 14  1  0  0  0
M  END
> <minimizedAffinity>
-6.49777

> <CNNscore>
0.1222059429

> <CNNaffinity>
5.6022701263

> <CNN_VS>
0.6846306920

> <CNNaffinity_variance>
0.1895159483

$$$$
[H]c1c([H])c([H])c(N2C([H])([H])N([H])C(=O)C23C([H])([H])C([H])([H])N(C(=O)c2c([H])c([H])c(C(C([H])([H])[H])(C([H])([H])[H])C([H])([H])[H])c([H])c2[H])C([H])([H])C3([H])[H])c(Cl)c1[H]


 31 34  0  0  0  0  0  0  0  0999 V2000
  -88.8596   25.1783   -1.0931 C   0  0  0  0  0  0  0  0  0  0  0  0
  -87.8732   24.5757   -1.7001 O   0  0  0  0  0  0  0  0  0  0  0  0
  -88.5286   26.4514   -0.6266 N   0  0  0  0  0  0  0  0  0  0  0  0
  -87.1251   26.9013   -0.9130 C   0  0  0  0  0  0  0  0  0  0  0  0
  -87.3424   28.1668   -1.7301 C   0  0  0  0  0  0  0  0  0  0  0  0
  -87.8653   29.2610   -0.7898 C   0  0  0  0  0  0  0  0  0  0  0  0
  -88.4709   28.6406    0.4139 C   0  0  0  0  0  0  0  0  0  0  0  0
  -89.3207   27.4103    0.0856 C   0  0  0  0  0  0  0  0  0  0  0  0
  -86.8406   30.2365   -0.5549 N   0  0  0  0  0  0  0  0  0  0  0  0
  -86.6945   30.9470   -1.8378 C   0  0  0  0  0  0  0  0  0  0  0  0
  -87.9608   30.7669   -2.5129 N   0  0  0  0  0  0  0  0  0  0  0  0
  -88.8352   30.0590   -1.6032 C   0  0  0  0  0  0  0  0  0  0  0  0
  -90.0677   30.1465   -1.5656 O   0  0  0  0  0  0  0  0  0  0  0  0
  -88.1589   31.1026   -3.4747 H   0  0  0  0  0  0  0  0  0  0  0  0
  -86.0715   30.5877    0.5657 C   0  0  0  0  0  0  0  0  0  0  0  0
  -85.3968   31.7960    0.5411 C   0  0  0  0  0  0  0  0  0  0  0  0
  -84.5967   32.1781    1.6149 C   0  0  0  0  0  0  0  0  0  0  0  0
  -84.4607   31.3731    2.7169 C   0  0  0  0  0  0  0  0  0  0  0  0
  -85.1301   30.1693    2.7480 C   0  0  0  0  0  0  0  0  0  0  0  0
  -85.9292   29.7931    1.6668 C   0  0  0  0  0  0  0  0  0  0  0  0
  -86.7569   28.2504    1.7768 Cl  0  0  0  0  0  0  0  0  0  0  0  0
  -92.4050   22.8421   -0.8157 C   0  0  0  0  0  0  0  0  0  0  0  0
  -92.3060   23.8778   -1.6976 C   0  0  0  0  0  0  0  0  0  0  0  0
  -91.1526   24.6632   -1.8100 C   0  0  0  0  0  0  0  0  0  0  0  0
  -90.0648   24.4197   -1.0306 C   0  0  0  0  0  0  0  0  0  0  0  0
  -90.1368   23.3614   -0.1144 C   0  0  0  0  0  0  0  0  0  0  0  0
  -91.2753   22.6066   -0.0215 C   0  0  0  0  0  0  0  0  0  0  0  0
  -94.1532   22.1055    0.7426 C   0  0  0  0  0  0  0  0  0  0  0  0
  -93.6056   22.0179   -0.6882 C   0  0  0  0  0  0  0  0  0  0  0  0
  -93.4431   20.5567   -0.9724 C   0  0  0  0  0  0  0  0  0  0  0  0
  -94.7302   22.5697   -1.5716 C   0  0  0  0  0  0  0  0  0  0  0  0
 28 29  1  0  0  0
 29 30  1  0  0  0
 29 31  1  0  0  0
 29 22  1  0  0  0
 22 23  2  0  0  0
 23 24  1  0  0  0
 24 25  2  0  0  0
 25 26  1  0  0  0
 26 27  2  0  0  0
 25  1  1  0  0  0
  1  2  2  0  0  0
  1  3  1  0  0  0
  3  4  1  0  0  0
  4  5  1  0  0  0
  5  6  1  0  0  0
  6  7  1  0  0  0
  7  8  1  0  0  0
  6  9  1  0  0  0
  9 10  1  0  0  0
 10 11  1  0  0  0
 11 12  1  0  0  0
 12 13  2  0  0  0
  9 15  1  0  0  0
 15 16  2  0  0  0
 16 17  1  0  0  0
 17 18  2  0  0  0
 18 19  1  0  0  0
 19 20  2  0  0  0
 20 21  1  0  0  0
 27 22  1  0  0  0
  8  3  1  0  0  0
 20 15  1  0  0  0
 12  6  1  0  0  0
 11 14  1  0  0  0
M  END
> <minimizedAffinity>
-4.88286

> <CNNscore>
0.0919659436

> <CNNaffinity>
5.7895212173

> <CNN_VS>
0.5324387550

> <CNNaffinity_variance>
0.6531773806

$$$$
[H]c1nc(S(=O)(=O)[C@@]2([H])C([H])([H])N(C(=O)C3(c4c([H])c([H])c(Cl)c([H])c4[H])C([H])([H])C3([H])[H])[C@]([H])(C(=O)N([H])[C@]([H])(C(=O)C(=O)N([H])C3([H])C([H])([H])C3([H])[H])C([H])([H])C([H])([H])[H])C2([H])[H])c([H])c([H])c1[H]


 42 46  0  0  0  0  0  0  0  0999 V2000
  -87.2676   29.1243   -0.3257 C   0  0  0  0  0  0  0  0  0  0  0  0
  -85.9154   28.4842   -0.1895 C   0  0  0  0  0  0  0  0  0  0  0  0
  -85.9235   28.0454    1.2989 C   0  0  0  0  0  0  0  0  0  0  0  0
  -87.3666   28.3338    1.7648 C   0  0  0  0  0  0  0  0  0  0  0  0
  -88.0506   28.2006    0.5198 N   0  0  0  0  0  0  0  0  0  0  0  0
  -89.1326   27.4233    0.1369 C   0  0  0  0  0  0  0  0  0  0  0  0
  -89.5132   27.4762   -1.1237 O   0  0  0  0  0  0  0  0  0  0  0  0
  -88.7202   30.3590   -1.9301 N   0  0  0  0  0  0  0  0  0  0  0  0
  -87.7590   29.3562   -1.6509 C   0  0  0  0  0  0  0  0  0  0  0  0
  -87.3391   28.6666   -2.6147 O   0  0  0  0  0  0  0  0  0  0  0  0
  -89.1327   30.9815   -1.2092 H   0  0  0  0  0  0  0  0  0  0  0  0
  -89.2128   30.5911   -3.3107 C   0  0  0  0  0  0  0  0  0  0  0  0
  -91.1468   31.6705   -4.5441 C   0  0  0  0  0  0  0  0  0  0  0  0
  -90.4865   31.4277   -3.2127 C   0  0  0  0  0  0  0  0  0  0  0  0
  -88.1742   31.3306   -4.0284 C   0  0  0  0  0  0  0  0  0  0  0  0
  -87.6999   30.8091   -5.0989 O   0  0  0  0  0  0  0  0  0  0  0  0
  -87.6074   32.6136   -3.6645 C   0  0  0  0  0  0  0  0  0  0  0  0
  -87.0213   32.7026   -2.5293 O   0  0  0  0  0  0  0  0  0  0  0  0
  -87.6662   33.7601   -4.4900 N   0  0  0  0  0  0  0  0  0  0  0  0
  -88.1464   33.6679   -5.4121 H   0  0  0  0  0  0  0  0  0  0  0  0
  -87.0898   35.0303   -4.0985 C   0  0  0  0  0  0  0  0  0  0  0  0
  -87.1913   36.1910   -5.0583 C   0  0  0  0  0  0  0  0  0  0  0  0
  -87.9050   36.1829   -3.7184 C   0  0  0  0  0  0  0  0  0  0  0  0
  -89.9811   26.5028    0.9199 C   0  0  0  0  0  0  0  0  0  0  0  0
  -91.4336   26.2631    0.4696 C   0  0  0  0  0  0  0  0  0  0  0  0
  -90.4031   25.2542    0.2649 C   0  0  0  0  0  0  0  0  0  0  0  0
  -89.9148   26.6025    2.4031 C   0  0  0  0  0  0  0  0  0  0  0  0
  -89.3839   25.5754    3.1290 C   0  0  0  0  0  0  0  0  0  0  0  0
  -89.3094   25.6152    4.5269 C   0  0  0  0  0  0  0  0  0  0  0  0
  -89.7833   26.7203    5.1880 C   0  0  0  0  0  0  0  0  0  0  0  0
  -89.7144   26.8236    6.9562 Cl  0  0  0  0  0  0  0  0  0  0  0  0
  -90.3202   27.7620    4.4713 C   0  0  0  0  0  0  0  0  0  0  0  0
  -90.3824   27.6940    3.0721 C   0  0  0  0  0  0  0  0  0  0  0  0
  -84.8434   29.1331    2.1388 S   0  0  0  0  0  0  0  0  0  0  0  0
  -85.5284   29.5769    3.4099 O   0  0  0  0  0  0  0  0  0  0  0  0
  -83.6277   28.3136    2.5538 O   0  0  0  0  0  0  0  0  0  0  0  0
  -84.3287   30.5068    1.2167 C   0  0  0  0  0  0  0  0  0  0  0  0
  -83.0410   30.6382    0.7692 C   0  0  0  0  0  0  0  0  0  0  0  0
  -82.6377   31.7368    0.0146 C   0  0  0  0  0  0  0  0  0  0  0  0
  -83.5483   32.7230   -0.2964 C   0  0  0  0  0  0  0  0  0  0  0  0
  -84.8372   32.5611    0.1691 C   0  0  0  0  0  0  0  0  0  0  0  0
  -85.1944   31.4787    0.9010 N   0  0  0  0  0  0  0  0  0  0  0  0
 13 14  1  0  0  0
 14 12  1  0  0  0
 12  8  1  0  0  0
  8  9  1  0  0  0
  9 10  2  0  0  0
  9  1  1  0  0  0
  1  2  1  0  0  0
  2  3  1  0  0  0
  3  4  1  0  0  0
  4  5  1  0  0  0
  5  6  1  0  0  0
  6  7  2  0  0  0
  6 24  1  0  0  0
 24 25  1  0  0  0
 25 26  1  0  0  0
 24 27  1  0  0  0
 27 28  2  0  0  0
 28 29  1  0  0  0
 29 30  2  0  0  0
 30 31  1  0  0  0
 30 32  1  0  0  0
 32 33  2  0  0  0
  3 34  1  0  0  0
 34 35  2  0  0  0
 34 36  2  0  0  0
 34 37  1  0  0  0
 37 38  2  0  0  0
 38 39  1  0  0  0
 39 40  2  0  0  0
 40 41  1  0  0  0
 41 42  2  0  0  0
 12 15  1  0  0  0
 15 16  2  0  0  0
 15 17  1  0  0  0
 17 18  2  0  0  0
 17 19  1  0  0  0
 19 21  1  0  0  0
 21 22  1  0  0  0
 22 23  1  0  0  0
  5  1  1  0  0  0
 26 24  1  0  0  0
 33 27  1  0  0  0
 42 37  1  0  0  0
 23 21  1  0  0  0
  8 11  1  0  0  0
 19 20  1  0  0  0
M  END
> <minimizedAffinity>
-9.79292

> <CNNscore>
0.7760857940

> <CNNaffinity>
8.1157770157

> <CNN_VS>
6.2985391617

> <CNNaffinity_variance>
0.1154787540

$$$$
[H]c1nc(S(=O)(=O)[C@@]2([H])C([H])([H])N(C(=O)C3(c4c([H])c([H])c(Cl)c([H])c4[H])C([H])([H])C3([H])[H])[C@]([H])(C(=O)N([H])[C@]([H])(C(=O)C(=O)N([H])C3([H])C([H])([H])C3([H])[H])C([H])([H])C([H])([H])[H])C2([H])[H])c([H])c([H])c1[H]


 42 46  0  0  0  0  0  0  0  0999 V2000
  -88.2931   27.8033    0.2308 C   0  0  0  0  0  0  0  0  0  0  0  0
  -88.0886   27.7773   -1.2573 C   0  0  0  0  0  0  0  0  0  0  0  0
  -87.4788   29.1806   -1.5156 C   0  0  0  0  0  0  0  0  0  0  0  0
  -87.2455   29.7520   -0.1007 C   0  0  0  0  0  0  0  0  0  0  0  0
  -87.0713   28.5347    0.6227 N   0  0  0  0  0  0  0  0  0  0  0  0
  -86.0553   28.0895    1.4540 C   0  0  0  0  0  0  0  0  0  0  0  0
  -86.1520   26.8708    1.9460 O   0  0  0  0  0  0  0  0  0  0  0  0
  -89.1840   26.4777    2.1433 N   0  0  0  0  0  0  0  0  0  0  0  0
  -88.5327   26.5531    0.8873 C   0  0  0  0  0  0  0  0  0  0  0  0
  -88.1684   25.4745    0.3539 O   0  0  0  0  0  0  0  0  0  0  0  0
  -89.5229   27.3057    2.6697 H   0  0  0  0  0  0  0  0  0  0  0  0
  -89.4313   25.1729    2.8059 C   0  0  0  0  0  0  0  0  0  0  0  0
  -90.5304   26.7126    4.4935 C   0  0  0  0  0  0  0  0  0  0  0  0
  -89.7368   25.4515    4.2759 C   0  0  0  0  0  0  0  0  0  0  0  0
  -90.5900   24.5625    2.1539 C   0  0  0  0  0  0  0  0  0  0  0  0
  -91.2814   25.2913    1.3579 O   0  0  0  0  0  0  0  0  0  0  0  0
  -91.0574   23.1991    2.3036 C   0  0  0  0  0  0  0  0  0  0  0  0
  -92.2914   22.9643    2.0541 O   0  0  0  0  0  0  0  0  0  0  0  0
  -90.2297   22.1254    2.7055 N   0  0  0  0  0  0  0  0  0  0  0  0
  -89.2267   22.3357    2.9028 H   0  0  0  0  0  0  0  0  0  0  0  0
  -90.7263   20.7717    2.8465 C   0  0  0  0  0  0  0  0  0  0  0  0
  -90.6222   19.8418    1.6619 C   0  0  0  0  0  0  0  0  0  0  0  0
  -89.8404   19.6125    2.9430 C   0  0  0  0  0  0  0  0  0  0  0  0
  -84.8246   28.7628    1.9149 C   0  0  0  0  0  0  0  0  0  0  0  0
  -84.5130   28.7961    3.4221 C   0  0  0  0  0  0  0  0  0  0  0  0
  -83.7809   27.9188    2.5186 C   0  0  0  0  0  0  0  0  0  0  0  0
  -84.4838   30.0708    1.2926 C   0  0  0  0  0  0  0  0  0  0  0  0
  -83.4240   30.1593    0.4367 C   0  0  0  0  0  0  0  0  0  0  0  0
  -83.0551   31.3686   -0.1655 C   0  0  0  0  0  0  0  0  0  0  0  0
  -83.7810   32.4996    0.1120 C   0  0  0  0  0  0  0  0  0  0  0  0
  -83.3581   34.0567   -0.6218 Cl  0  0  0  0  0  0  0  0  0  0  0  0
  -84.8503   32.4264    0.9712 C   0  0  0  0  0  0  0  0  0  0  0  0
  -85.1960   31.2017    1.5601 C   0  0  0  0  0  0  0  0  0  0  0  0
  -88.7273   30.1242   -2.2942 S   0  0  0  0  0  0  0  0  0  0  0  0
  -89.0139   29.4955   -3.6375 O   0  0  0  0  0  0  0  0  0  0  0  0
  -89.9880   29.9662   -1.4532 O   0  0  0  0  0  0  0  0  0  0  0  0
  -88.3614   31.8078   -2.4790 C   0  0  0  0  0  0  0  0  0  0  0  0
  -89.3397   32.7440   -2.6833 C   0  0  0  0  0  0  0  0  0  0  0  0
  -89.0405   34.0975   -2.8147 C   0  0  0  0  0  0  0  0  0  0  0  0
  -87.7305   34.5178   -2.7387 C   0  0  0  0  0  0  0  0  0  0  0  0
  -86.7685   33.5503   -2.5321 C   0  0  0  0  0  0  0  0  0  0  0  0
  -87.0962   32.2416   -2.4088 N   0  0  0  0  0  0  0  0  0  0  0  0
 13 14  1  0  0  0
 14 12  1  0  0  0
 12  8  1  0  0  0
  8  9  1  0  0  0
  9 10  2  0  0  0
  9  1  1  0  0  0
  1  2  1  0  0  0
  2  3  1  0  0  0
  3  4  1  0  0  0
  4  5  1  0  0  0
  5  6  1  0  0  0
  6  7  2  0  0  0
  6 24  1  0  0  0
 24 25  1  0  0  0
 25 26  1  0  0  0
 24 27  1  0  0  0
 27 28  2  0  0  0
 28 29  1  0  0  0
 29 30  2  0  0  0
 30 31  1  0  0  0
 30 32  1  0  0  0
 32 33  2  0  0  0
  3 34  1  0  0  0
 34 35  2  0  0  0
 34 36  2  0  0  0
 34 37  1  0  0  0
 37 38  2  0  0  0
 38 39  1  0  0  0
 39 40  2  0  0  0
 40 41  1  0  0  0
 41 42  2  0  0  0
 12 15  1  0  0  0
 15 16  2  0  0  0
 15 17  1  0  0  0
 17 18  2  0  0  0
 17 19  1  0  0  0
 19 21  1  0  0  0
 21 22  1  0  0  0
 22 23  1  0  0  0
  5  1  1  0  0  0
 26 24  1  0  0  0
 33 27  1  0  0  0
 42 37  1  0  0  0
 23 21  1  0  0  0
  8 11  1  0  0  0
 19 20  1  0  0  0
M  END
> <minimizedAffinity>
-9.24694

> <CNNscore>
0.4344998002

> <CNNaffinity>
7.6559858322

> <CNN_VS>
3.3265242577

> <CNNaffinity_variance>
0.0802654177

$$$$
[H]c1nc(S(=O)(=O)[C@@]2([H])C([H])([H])N(C(=O)C3(c4c([H])c([H])c(Cl)c([H])c4[H])C([H])([H])C3([H])[H])[C@]([H])(C(=O)N([H])[C@]([H])(C(=O)C(=O)N([H])C3([H])C([H])([H])C3([H])[H])C([H])([H])C([H])([H])[H])C2([H])[H])c([H])c([H])c1[H]


 42 46  0  0  0  0  0  0  0  0999 V2000
  -88.0303   27.1294    0.8527 C   0  0  0  0  0  0  0  0  0  0  0  0
  -87.7519   27.9189    2.1002 C   0  0  0  0  0  0  0  0  0  0  0  0
  -87.1734   29.2353    1.5168 C   0  0  0  0  0  0  0  0  0  0  0  0
  -87.3741   29.0878   -0.0066 C   0  0  0  0  0  0  0  0  0  0  0  0
  -88.5095   28.2238   -0.0155 N   0  0  0  0  0  0  0  0  0  0  0  0
  -89.7505   28.3327   -0.6232 C   0  0  0  0  0  0  0  0  0  0  0  0
  -90.6312   27.3781   -0.3998 O   0  0  0  0  0  0  0  0  0  0  0  0
  -89.8745   25.8873    1.9773 N   0  0  0  0  0  0  0  0  0  0  0  0
  -88.8810   25.9833    0.9716 C   0  0  0  0  0  0  0  0  0  0  0  0
  -88.7673   25.0208    0.1708 O   0  0  0  0  0  0  0  0  0  0  0  0
  -90.0506   26.6227    2.6884 H   0  0  0  0  0  0  0  0  0  0  0  0
  -90.7528   24.6956    2.0813 C   0  0  0  0  0  0  0  0  0  0  0  0
  -91.3821   22.8583    0.4519 C   0  0  0  0  0  0  0  0  0  0  0  0
  -90.2690   23.6735    1.0550 C   0  0  0  0  0  0  0  0  0  0  0  0
  -90.6089   24.1615    3.4358 C   0  0  0  0  0  0  0  0  0  0  0  0
  -91.5441   23.4087    3.8846 O   0  0  0  0  0  0  0  0  0  0  0  0
  -89.5070   24.3865    4.3497 C   0  0  0  0  0  0  0  0  0  0  0  0
  -89.2836   25.5906    4.7244 O   0  0  0  0  0  0  0  0  0  0  0  0
  -88.6752   23.3559    4.8450 N   0  0  0  0  0  0  0  0  0  0  0  0
  -88.8736   22.3809    4.5298 H   0  0  0  0  0  0  0  0  0  0  0  0
  -87.5802   23.6122    5.7584 C   0  0  0  0  0  0  0  0  0  0  0  0
  -87.9058   24.0845    7.1547 C   0  0  0  0  0  0  0  0  0  0  0  0
  -87.2699   22.7327    6.8844 C   0  0  0  0  0  0  0  0  0  0  0  0
  -90.2944   29.3712   -1.5211 C   0  0  0  0  0  0  0  0  0  0  0  0
  -90.9807   28.9399   -2.8298 C   0  0  0  0  0  0  0  0  0  0  0  0
  -91.7555   29.4158   -1.6919 C   0  0  0  0  0  0  0  0  0  0  0  0
  -89.4609   30.5814   -1.7549 C   0  0  0  0  0  0  0  0  0  0  0  0
  -89.6295   31.6838   -0.9675 C   0  0  0  0  0  0  0  0  0  0  0  0
  -88.8788   32.8512   -1.1541 C   0  0  0  0  0  0  0  0  0  0  0  0
  -87.9443   32.8888   -2.1582 C   0  0  0  0  0  0  0  0  0  0  0  0
  -86.9667   34.3405   -2.4393 Cl  0  0  0  0  0  0  0  0  0  0  0  0
  -87.7629   31.7873   -2.9587 C   0  0  0  0  0  0  0  0  0  0  0  0
  -88.5297   30.6323   -2.7489 C   0  0  0  0  0  0  0  0  0  0  0  0
  -85.4584   29.2114    1.8536 S   0  0  0  0  0  0  0  0  0  0  0  0
  -85.2791   29.2821    3.3518 O   0  0  0  0  0  0  0  0  0  0  0  0
  -84.9411   27.8488    1.4094 O   0  0  0  0  0  0  0  0  0  0  0  0
  -84.5442   30.4602    1.0744 C   0  0  0  0  0  0  0  0  0  0  0  0
  -83.1748   30.4675    1.0810 C   0  0  0  0  0  0  0  0  0  0  0  0
  -82.4458   31.4652    0.4390 C   0  0  0  0  0  0  0  0  0  0  0  0
  -83.1079   32.4759   -0.2233 C   0  0  0  0  0  0  0  0  0  0  0  0
  -84.4874   32.4399   -0.2116 C   0  0  0  0  0  0  0  0  0  0  0  0
  -85.1641   31.4533    0.4238 N   0  0  0  0  0  0  0  0  0  0  0  0
 13 14  1  0  0  0
 14 12  1  0  0  0
 12  8  1  0  0  0
  8  9  1  0  0  0
  9 10  2  0  0  0
  9  1  1  0  0  0
  1  2  1  0  0  0
  2  3  1  0  0  0
  3  4  1  0  0  0
  4  5  1  0  0  0
  5  6  1  0  0  0
  6  7  2  0  0  0
  6 24  1  0  0  0
 24 25  1  0  0  0
 25 26  1  0  0  0
 24 27  1  0  0  0
 27 28  2  0  0  0
 28 29  1  0  0  0
 29 30  2  0  0  0
 30 31  1  0  0  0
 30 32  1  0  0  0
 32 33  2  0  0  0
  3 34  1  0  0  0
 34 35  2  0  0  0
 34 36  2  0  0  0
 34 37  1  0  0  0
 37 38  2  0  0  0
 38 39  1  0  0  0
 39 40  2  0  0  0
 40 41  1  0  0  0
 41 42  2  0  0  0
 12 15  1  0  0  0
 15 16  2  0  0  0
 15 17  1  0  0  0
 17 18  2  0  0  0
 17 19  1  0  0  0
 19 21  1  0  0  0
 21 22  1  0  0  0
 22 23  1  0  0  0
  5  1  1  0  0  0
 26 24  1  0  0  0
 33 27  1  0  0  0
 42 37  1  0  0  0
 23 21  1  0  0  0
  8 11  1  0  0  0
 19 20  1  0  0  0
M  END
> <minimizedAffinity>
-9.52479

> <CNNscore>
0.4214158952

> <CNNaffinity>
7.6399946213

> <CNN_VS>
3.2196152210

> <CNNaffinity_variance>
0.0880140066

$$$$
[H]c1nc(S(=O)(=O)[C@@]2([H])C([H])([H])N(C(=O)C3(c4c([H])c([H])c(Cl)c([H])c4[H])C([H])([H])C3([H])[H])[C@]([H])(C(=O)N([H])[C@]([H])(C(=O)C(=O)N([H])C3([H])C([H])([H])C3([H])[H])C([H])([H])C([H])([H])[H])C2([H])[H])c([H])c([H])c1[H]


 42 46  0  0  0  0  0  0  0  0999 V2000
  -88.2080   27.6643    0.1024 C   0  0  0  0  0  0  0  0  0  0  0  0
  -87.9131   27.5266   -1.3642 C   0  0  0  0  0  0  0  0  0  0  0  0
  -87.2592   28.8970   -1.6837 C   0  0  0  0  0  0  0  0  0  0  0  0
  -87.1012   29.5660   -0.3015 C   0  0  0  0  0  0  0  0  0  0  0  0
  -86.9974   28.4019    0.5168 N   0  0  0  0  0  0  0  0  0  0  0  0
  -86.0440   28.0016    1.4399 C   0  0  0  0  0  0  0  0  0  0  0  0
  -86.1963   26.8237    2.0109 O   0  0  0  0  0  0  0  0  0  0  0  0
  -89.2001   26.5003    2.0696 N   0  0  0  0  0  0  0  0  0  0  0  0
  -88.5138   26.4693    0.8304 C   0  0  0  0  0  0  0  0  0  0  0  0
  -88.1783   25.3453    0.3778 O   0  0  0  0  0  0  0  0  0  0  0  0
  -89.5198   27.3730    2.5319 H   0  0  0  0  0  0  0  0  0  0  0  0
  -89.5159   25.2517    2.8070 C   0  0  0  0  0  0  0  0  0  0  0  0
  -90.2286   27.0813    4.4105 C   0  0  0  0  0  0  0  0  0  0  0  0
  -89.8392   25.6357    4.2492 C   0  0  0  0  0  0  0  0  0  0  0  0
  -90.6859   24.6489    2.1681 C   0  0  0  0  0  0  0  0  0  0  0  0
  -91.5332   25.4324    1.6106 O   0  0  0  0  0  0  0  0  0  0  0  0
  -91.0057   23.2378    2.0875 C   0  0  0  0  0  0  0  0  0  0  0  0
  -92.2422   22.9132    2.0122 O   0  0  0  0  0  0  0  0  0  0  0  0
  -90.0330   22.2115    2.0865 N   0  0  0  0  0  0  0  0  0  0  0  0
  -89.0305   22.4954    2.1468 H   0  0  0  0  0  0  0  0  0  0  0  0
  -90.3838   20.8082    2.0049 C   0  0  0  0  0  0  0  0  0  0  0  0
  -89.3722   19.7874    2.4668 C   0  0  0  0  0  0  0  0  0  0  0  0
  -90.6923   20.0022    3.1851 C   0  0  0  0  0  0  0  0  0  0  0  0
  -84.8299   28.6862    1.9277 C   0  0  0  0  0  0  0  0  0  0  0  0
  -84.5561   28.7292    3.4419 C   0  0  0  0  0  0  0  0  0  0  0  0
  -83.7955   27.8529    2.5613 C   0  0  0  0  0  0  0  0  0  0  0  0
  -84.4833   29.9936    1.3075 C   0  0  0  0  0  0  0  0  0  0  0  0
  -83.3758   30.0967    0.5161 C   0  0  0  0  0  0  0  0  0  0  0  0
  -83.0000   31.3065   -0.0810 C   0  0  0  0  0  0  0  0  0  0  0  0
  -83.7683   32.4227    0.1348 C   0  0  0  0  0  0  0  0  0  0  0  0
  -83.3389   33.9797   -0.5956 Cl  0  0  0  0  0  0  0  0  0  0  0  0
  -84.8860   32.3348    0.9286 C   0  0  0  0  0  0  0  0  0  0  0  0
  -85.2375   31.1100    1.5140 C   0  0  0  0  0  0  0  0  0  0  0  0
  -88.4374   29.8020   -2.6046 S   0  0  0  0  0  0  0  0  0  0  0  0
  -88.3078   31.2572   -2.2205 O   0  0  0  0  0  0  0  0  0  0  0  0
  -88.0306   29.6925   -4.0689 O   0  0  0  0  0  0  0  0  0  0  0  0
  -90.0756   29.2696   -2.4171 C   0  0  0  0  0  0  0  0  0  0  0  0
  -90.6630   28.4060   -3.3030 C   0  0  0  0  0  0  0  0  0  0  0  0
  -91.9748   27.9691   -3.1376 C   0  0  0  0  0  0  0  0  0  0  0  0
  -92.7104   28.4097   -2.0591 C   0  0  0  0  0  0  0  0  0  0  0  0
  -92.0901   29.2788   -1.1850 C   0  0  0  0  0  0  0  0  0  0  0  0
  -90.8115   29.6830   -1.3773 N   0  0  0  0  0  0  0  0  0  0  0  0
 13 14  1  0  0  0
 14 12  1  0  0  0
 12  8  1  0  0  0
  8  9  1  0  0  0
  9 10  2  0  0  0
  9  1  1  0  0  0
  1  2  1  0  0  0
  2  3  1  0  0  0
  3  4  1  0  0  0
  4  5  1  0  0  0
  5  6  1  0  0  0
  6  7  2  0  0  0
  6 24  1  0  0  0
 24 25  1  0  0  0
 25 26  1  0  0  0
 24 27  1  0  0  0
 27 28  2  0  0  0
 28 29  1  0  0  0
 29 30  2  0  0  0
 30 31  1  0  0  0
 30 32  1  0  0  0
 32 33  2  0  0  0
  3 34  1  0  0  0
 34 35  2  0  0  0
 34 36  2  0  0  0
 34 37  1  0  0  0
 37 38  2  0  0  0
 38 39  1  0  0  0
 39 40  2  0  0  0
 40 41  1  0  0  0
 41 42  2  0  0  0
 12 15  1  0  0  0
 15 16  2  0  0  0
 15 17  1  0  0  0
 17 18  2  0  0  0
 17 19  1  0  0  0
 19 21  1  0  0  0
 21 22  1  0  0  0
 22 23  1  0  0  0
  5  1  1  0  0  0
 26 24  1  0  0  0
 33 27  1  0  0  0
 42 37  1  0  0  0
 23 21  1  0  0  0
  8 11  1  0  0  0
 19 20  1  0  0  0
M  END
> <minimizedAffinity>
-8.71493

> <CNNscore>
0.3572400510

> <CNNaffinity>
7.3877916336

> <CNN_VS>
2.6392149925

> <CNNaffinity_variance>
0.0850813240

$$$$
[H]c1nc(S(=O)(=O)[C@@]2([H])C([H])([H])N(C(=O)C3(c4c([H])c([H])c(Cl)c([H])c4[H])C([H])([H])C3([H])[H])[C@]([H])(C(=O)N([H])[C@]([H])(C(=O)C(=O)N([H])C3([H])C([H])([H])C3([H])[H])C([H])([H])C([H])([H])[H])C2([H])[H])c([H])c([H])c1[H]


 42 46  0  0  0  0  0  0  0  0999 V2000
  -87.3712   29.3228   -0.1146 C   0  0  0  0  0  0  0  0  0  0  0  0
  -85.9860   28.7431   -0.1598 C   0  0  0  0  0  0  0  0  0  0  0  0
  -85.8479   28.1464    1.2659 C   0  0  0  0  0  0  0  0  0  0  0  0
  -87.2570   28.3072    1.8755 C   0  0  0  0  0  0  0  0  0  0  0  0
  -88.0386   28.2737    0.6823 N   0  0  0  0  0  0  0  0  0  0  0  0
  -89.1149   27.4869    0.3030 C   0  0  0  0  0  0  0  0  0  0  0  0
  -89.6039   27.6556   -0.9091 O   0  0  0  0  0  0  0  0  0  0  0  0
  -89.0189   30.6340   -1.4468 N   0  0  0  0  0  0  0  0  0  0  0  0
  -87.9836   29.6704   -1.3618 C   0  0  0  0  0  0  0  0  0  0  0  0
  -87.6081   29.1225   -2.4293 O   0  0  0  0  0  0  0  0  0  0  0  0
  -89.4036   31.1432   -0.6281 H   0  0  0  0  0  0  0  0  0  0  0  0
  -89.6371   30.9880   -2.7487 C   0  0  0  0  0  0  0  0  0  0  0  0
  -88.4025   31.4457   -4.9150 C   0  0  0  0  0  0  0  0  0  0  0  0
  -88.7397   30.4331   -3.8527 C   0  0  0  0  0  0  0  0  0  0  0  0
  -90.9533   30.3510   -2.7969 C   0  0  0  0  0  0  0  0  0  0  0  0
  -91.8868   30.8512   -2.0750 O   0  0  0  0  0  0  0  0  0  0  0  0
  -91.3352   29.1960   -3.5844 C   0  0  0  0  0  0  0  0  0  0  0  0
  -91.6699   29.3944   -4.8045 O   0  0  0  0  0  0  0  0  0  0  0  0
  -91.3561   27.8749   -3.0808 N   0  0  0  0  0  0  0  0  0  0  0  0
  -91.0785   27.7327   -2.0847 H   0  0  0  0  0  0  0  0  0  0  0  0
  -91.7429   26.7394   -3.8931 C   0  0  0  0  0  0  0  0  0  0  0  0
  -92.1039   25.4490   -3.1977 C   0  0  0  0  0  0  0  0  0  0  0  0
  -93.1225   26.2623   -3.9762 C   0  0  0  0  0  0  0  0  0  0  0  0
  -89.8531   26.4443    1.0437 C   0  0  0  0  0  0  0  0  0  0  0  0
  -91.2602   26.0444    0.5642 C   0  0  0  0  0  0  0  0  0  0  0  0
  -90.1118   25.1760    0.3433 C   0  0  0  0  0  0  0  0  0  0  0  0
  -89.8159   26.5021    2.5301 C   0  0  0  0  0  0  0  0  0  0  0  0
  -90.2820   27.6098    3.1779 C   0  0  0  0  0  0  0  0  0  0  0  0
  -90.2583   27.7183    4.5739 C   0  0  0  0  0  0  0  0  0  0  0  0
  -89.7521   26.6798    5.3142 C   0  0  0  0  0  0  0  0  0  0  0  0
  -89.6973   26.7639    7.0839 Cl  0  0  0  0  0  0  0  0  0  0  0  0
  -89.2795   25.5584    4.6768 C   0  0  0  0  0  0  0  0  0  0  0  0
  -89.3153   25.4781    3.2773 C   0  0  0  0  0  0  0  0  0  0  0  0
  -84.7477   29.1919    2.1329 S   0  0  0  0  0  0  0  0  0  0  0  0
  -85.4304   29.6283    3.4077 O   0  0  0  0  0  0  0  0  0  0  0  0
  -83.5548   28.3358    2.5399 O   0  0  0  0  0  0  0  0  0  0  0  0
  -84.1941   30.5698    1.2399 C   0  0  0  0  0  0  0  0  0  0  0  0
  -82.8946   30.6902    0.8249 C   0  0  0  0  0  0  0  0  0  0  0  0
  -82.4597   31.7924    0.0934 C   0  0  0  0  0  0  0  0  0  0  0  0
  -83.3503   32.7937   -0.2273 C   0  0  0  0  0  0  0  0  0  0  0  0
  -84.6520   32.6426    0.2054 C   0  0  0  0  0  0  0  0  0  0  0  0
  -85.0400   31.5562    0.9155 N   0  0  0  0  0  0  0  0  0  0  0  0
 13 14  1  0  0  0
 14 12  1  0  0  0
 12  8  1  0  0  0
  8  9  1  0  0  0
  9 10  2  0  0  0
  9  1  1  0  0  0
  1  2  1  0  0  0
  2  3  1  0  0  0
  3  4  1  0  0  0
  4  5  1  0  0  0
  5  6  1  0  0  0
  6  7  2  0  0  0
  6 24  1  0  0  0
 24 25  1  0  0  0
 25 26  1  0  0  0
 24 27  1  0  0  0
 27 28  2  0  0  0
 28 29  1  0  0  0
 29 30  2  0  0  0
 30 31  1  0  0  0
 30 32  1  0  0  0
 32 33  2  0  0  0
  3 34  1  0  0  0
 34 35  2  0  0  0
 34 36  2  0  0  0
 34 37  1  0  0  0
 37 38  2  0  0  0
 38 39  1  0  0  0
 39 40  2  0  0  0
 40 41  1  0  0  0
 41 42  2  0  0  0
 12 15  1  0  0  0
 15 16  2  0  0  0
 15 17  1  0  0  0
 17 18  2  0  0  0
 17 19  1  0  0  0
 19 21  1  0  0  0
 21 22  1  0  0  0
 22 23  1  0  0  0
  5  1  1  0  0  0
 26 24  1  0  0  0
 33 27  1  0  0  0
 42 37  1  0  0  0
 23 21  1  0  0  0
  8 11  1  0  0  0
 19 20  1  0  0  0
M  END
> <minimizedAffinity>
-9.12008

> <CNNscore>
0.2853851020

> <CNNaffinity>
7.4715194702

> <CNN_VS>
2.1322603226

> <CNNaffinity_variance>
0.0886087269

$$$$
[H]c1nc(S(=O)(=O)[C@@]2([H])C([H])([H])N(C(=O)C3(c4c([H])c([H])c(Cl)c([H])c4[H])C([H])([H])C3([H])[H])[C@]([H])(C(=O)N([H])[C@]([H])(C(=O)C(=O)N([H])C3([H])C([H])([H])C3([H])[H])C([H])([H])C([H])([H])[H])C2([H])[H])c([H])c([H])c1[H]


 42 46  0  0  0  0  0  0  0  0999 V2000
  -87.2202   29.0744   -0.1592 C   0  0  0  0  0  0  0  0  0  0  0  0
  -85.8569   28.4585   -0.0204 C   0  0  0  0  0  0  0  0  0  0  0  0
  -85.8550   28.0315    1.4714 C   0  0  0  0  0  0  0  0  0  0  0  0
  -87.3021   28.2990    1.9376 C   0  0  0  0  0  0  0  0  0  0  0  0
  -87.9858   28.1442    0.6950 N   0  0  0  0  0  0  0  0  0  0  0  0
  -89.0550   27.3455    0.3202 C   0  0  0  0  0  0  0  0  0  0  0  0
  -89.4386   27.3819   -0.9400 O   0  0  0  0  0  0  0  0  0  0  0  0
  -88.6830   30.2835   -1.7738 N   0  0  0  0  0  0  0  0  0  0  0  0
  -87.7176   29.2873   -1.4854 C   0  0  0  0  0  0  0  0  0  0  0  0
  -87.2997   28.5862   -2.4417 O   0  0  0  0  0  0  0  0  0  0  0  0
  -89.0943   30.9143   -1.0594 H   0  0  0  0  0  0  0  0  0  0  0  0
  -89.1819   30.4959   -3.1553 C   0  0  0  0  0  0  0  0  0  0  0  0
  -91.6679   30.5004   -2.6588 C   0  0  0  0  0  0  0  0  0  0  0  0
  -90.4672   31.3150   -3.0619 C   0  0  0  0  0  0  0  0  0  0  0  0
  -88.1557   31.2436   -3.8822 C   0  0  0  0  0  0  0  0  0  0  0  0
  -87.6804   30.7219   -4.9521 O   0  0  0  0  0  0  0  0  0  0  0  0
  -87.6022   32.5352   -3.5280 C   0  0  0  0  0  0  0  0  0  0  0  0
  -87.0452   32.6473   -2.3803 O   0  0  0  0  0  0  0  0  0  0  0  0
  -87.6438   33.6660   -4.3759 N   0  0  0  0  0  0  0  0  0  0  0  0
  -88.1002   33.5549   -5.3079 H   0  0  0  0  0  0  0  0  0  0  0  0
  -87.0814   34.9453   -3.9937 C   0  0  0  0  0  0  0  0  0  0  0  0
  -87.1737   36.0911   -4.9721 C   0  0  0  0  0  0  0  0  0  0  0  0
  -87.9096   36.0984   -3.6443 C   0  0  0  0  0  0  0  0  0  0  0  0
  -89.8864   26.4170    1.1121 C   0  0  0  0  0  0  0  0  0  0  0  0
  -89.3259   25.8546    2.4310 C   0  0  0  0  0  0  0  0  0  0  0  0
  -90.3546   26.8859    2.4263 C   0  0  0  0  0  0  0  0  0  0  0  0
  -90.6217   25.3546    0.3740 C   0  0  0  0  0  0  0  0  0  0  0  0
  -91.9726   25.4565    0.2053 C   0  0  0  0  0  0  0  0  0  0  0  0
  -92.7121   24.4783   -0.4710 C   0  0  0  0  0  0  0  0  0  0  0  0
  -92.0598   23.3841   -0.9808 C   0  0  0  0  0  0  0  0  0  0  0  0
  -92.9463   22.1156   -1.8452 Cl  0  0  0  0  0  0  0  0  0  0  0  0
  -90.7006   23.2674   -0.8193 C   0  0  0  0  0  0  0  0  0  0  0  0
  -89.9862   24.2624   -0.1368 C   0  0  0  0  0  0  0  0  0  0  0  0
  -84.7922   29.1442    2.3007 S   0  0  0  0  0  0  0  0  0  0  0  0
  -85.5039   29.6265    3.5427 O   0  0  0  0  0  0  0  0  0  0  0  0
  -83.5864   28.3375    2.7662 O   0  0  0  0  0  0  0  0  0  0  0  0
  -84.2569   30.4891    1.3483 C   0  0  0  0  0  0  0  0  0  0  0  0
  -82.9599   30.6066    0.9247 C   0  0  0  0  0  0  0  0  0  0  0  0
  -82.5397   31.6817    0.1458 C   0  0  0  0  0  0  0  0  0  0  0  0
  -83.4427   32.6581   -0.2145 C   0  0  0  0  0  0  0  0  0  0  0  0
  -84.7414   32.5106    0.2281 C   0  0  0  0  0  0  0  0  0  0  0  0
  -85.1150   31.4510    0.9849 N   0  0  0  0  0  0  0  0  0  0  0  0
 13 14  1  0  0  0
 14 12  1  0  0  0
 12  8  1  0  0  0
  8  9  1  0  0  0
  9 10  2  0  0  0
  9  1  1  0  0  0
  1  2  1  0  0  0
  2  3  1  0  0  0
  3  4  1  0  0  0
  4  5  1  0  0  0
  5  6  1  0  0  0
  6  7  2  0  0  0
  6 24  1  0  0  0
 24 25  1  0  0  0
 25 26  1  0  0  0
 24 27  1  0  0  0
 27 28  2  0  0  0
 28 29  1  0  0  0
 29 30  2  0  0  0
 30 31  1  0  0  0
 30 32  1  0  0  0
 32 33  2  0  0  0
  3 34  1  0  0  0
 34 35  2  0  0  0
 34 36  2  0  0  0
 34 37  1  0  0  0
 37 38  2  0  0  0
 38 39  1  0  0  0
 39 40  2  0  0  0
 40 41  1  0  0  0
 41 42  2  0  0  0
 12 15  1  0  0  0
 15 16  2  0  0  0
 15 17  1  0  0  0
 17 18  2  0  0  0
 17 19  1  0  0  0
 19 21  1  0  0  0
 21 22  1  0  0  0
 22 23  1  0  0  0
  5  1  1  0  0  0
 26 24  1  0  0  0
 33 27  1  0  0  0
 42 37  1  0  0  0
 23 21  1  0  0  0
  8 11  1  0  0  0
 19 20  1  0  0  0
M  END
> <minimizedAffinity>
-9.18283

> <CNNscore>
0.2810361087

> <CNNaffinity>
7.4194450378

> <CNN_VS>
2.0851318836

> <CNNaffinity_variance>
0.1234014630

$$$$
[H]c1nc(S(=O)(=O)[C@@]2([H])C([H])([H])N(C(=O)C3(c4c([H])c([H])c(Cl)c([H])c4[H])C([H])([H])C3([H])[H])[C@]([H])(C(=O)N([H])[C@]([H])(C(=O)C(=O)N([H])C3([H])C([H])([H])C3([H])[H])C([H])([H])C([H])([H])[H])C2([H])[H])c([H])c([H])c1[H]


 42 46  0  0  0  0  0  0  0  0999 V2000
  -90.1279   29.9689   -3.3004 C   0  0  0  0  0  0  0  0  0  0  0  0
  -91.2433   30.6782   -2.5865 C   0  0  0  0  0  0  0  0  0  0  0  0
  -92.1340   29.4903   -2.1356 C   0  0  0  0  0  0  0  0  0  0  0  0
  -91.3017   28.2417   -2.4980 C   0  0  0  0  0  0  0  0  0  0  0  0
  -89.9898   28.7963   -2.4132 N   0  0  0  0  0  0  0  0  0  0  0  0
  -88.8662   28.4100   -1.6993 C   0  0  0  0  0  0  0  0  0  0  0  0
  -87.7921   29.1689   -1.7840 O   0  0  0  0  0  0  0  0  0  0  0  0
  -88.5458   31.8207   -2.7746 N   0  0  0  0  0  0  0  0  0  0  0  0
  -88.9356   30.7151   -3.5704 C   0  0  0  0  0  0  0  0  0  0  0  0
  -88.1920   30.3993   -4.5337 O   0  0  0  0  0  0  0  0  0  0  0  0
  -89.0872   32.1654   -1.9587 H   0  0  0  0  0  0  0  0  0  0  0  0
  -87.3028   32.5781   -3.0638 C   0  0  0  0  0  0  0  0  0  0  0  0
  -89.0528   34.3872   -3.3665 C   0  0  0  0  0  0  0  0  0  0  0  0
  -87.7023   33.8657   -3.7811 C   0  0  0  0  0  0  0  0  0  0  0  0
  -86.6693   32.8873   -1.7818 C   0  0  0  0  0  0  0  0  0  0  0  0
  -86.0846   34.0215   -1.6615 O   0  0  0  0  0  0  0  0  0  0  0  0
  -86.6259   32.0439   -0.6043 C   0  0  0  0  0  0  0  0  0  0  0  0
  -87.7426   31.6762   -0.0965 O   0  0  0  0  0  0  0  0  0  0  0  0
  -85.4267   31.6093    0.0061 N   0  0  0  0  0  0  0  0  0  0  0  0
  -84.5266   31.9177   -0.4228 H   0  0  0  0  0  0  0  0  0  0  0  0
  -85.4153   30.7657    1.1839 C   0  0  0  0  0  0  0  0  0  0  0  0
  -84.1175   30.1046    1.5807 C   0  0  0  0  0  0  0  0  0  0  0  0
  -84.7793   31.1692    2.4371 C   0  0  0  0  0  0  0  0  0  0  0  0
  -88.6383   27.2462   -0.8195 C   0  0  0  0  0  0  0  0  0  0  0  0
  -89.0160   25.8428   -1.3272 C   0  0  0  0  0  0  0  0  0  0  0  0
  -87.6250   26.2677   -1.2461 C   0  0  0  0  0  0  0  0  0  0  0  0
  -89.0066   27.3879    0.6152 C   0  0  0  0  0  0  0  0  0  0  0  0
  -90.2746   27.7615    0.9564 C   0  0  0  0  0  0  0  0  0  0  0  0
  -90.6680   27.9203    2.2910 C   0  0  0  0  0  0  0  0  0  0  0  0
  -89.7519   27.6928    3.2870 C   0  0  0  0  0  0  0  0  0  0  0  0
  -90.1954   27.8794    4.9930 Cl  0  0  0  0  0  0  0  0  0  0  0  0
  -88.4721   27.3162    2.9595 C   0  0  0  0  0  0  0  0  0  0  0  0
  -88.1065   27.1657    1.6141 C   0  0  0  0  0  0  0  0  0  0  0  0
  -93.5531   29.5240   -3.1555 S   0  0  0  0  0  0  0  0  0  0  0  0
  -94.7655   29.3666   -2.2683 O   0  0  0  0  0  0  0  0  0  0  0  0
  -93.6266   30.9196   -3.7623 O   0  0  0  0  0  0  0  0  0  0  0  0
  -93.5707   28.3404   -4.4209 C   0  0  0  0  0  0  0  0  0  0  0  0
  -92.9151   28.5376   -5.6069 C   0  0  0  0  0  0  0  0  0  0  0  0
  -92.9195   27.5755   -6.6136 C   0  0  0  0  0  0  0  0  0  0  0  0
  -93.5969   26.3909   -6.4231 C   0  0  0  0  0  0  0  0  0  0  0  0
  -94.2471   26.2228   -5.2175 C   0  0  0  0  0  0  0  0  0  0  0  0
  -94.2215   27.1809   -4.2602 N   0  0  0  0  0  0  0  0  0  0  0  0
 13 14  1  0  0  0
 14 12  1  0  0  0
 12  8  1  0  0  0
  8  9  1  0  0  0
  9 10  2  0  0  0
  9  1  1  0  0  0
  1  2  1  0  0  0
  2  3  1  0  0  0
  3  4  1  0  0  0
  4  5  1  0  0  0
  5  6  1  0  0  0
  6  7  2  0  0  0
  6 24  1  0  0  0
 24 25  1  0  0  0
 25 26  1  0  0  0
 24 27  1  0  0  0
 27 28  2  0  0  0
 28 29  1  0  0  0
 29 30  2  0  0  0
 30 31  1  0  0  0
 30 32  1  0  0  0
 32 33  2  0  0  0
  3 34  1  0  0  0
 34 35  2  0  0  0
 34 36  2  0  0  0
 34 37  1  0  0  0
 37 38  2  0  0  0
 38 39  1  0  0  0
 39 40  2  0  0  0
 40 41  1  0  0  0
 41 42  2  0  0  0
 12 15  1  0  0  0
 15 16  2  0  0  0
 15 17  1  0  0  0
 17 18  2  0  0  0
 17 19  1  0  0  0
 19 21  1  0  0  0
 21 22  1  0  0  0
 22 23  1  0  0  0
  5  1  1  0  0  0
 26 24  1  0  0  0
 33 27  1  0  0  0
 42 37  1  0  0  0
 23 21  1  0  0  0
  8 11  1  0  0  0
 19 20  1  0  0  0
M  END
> <minimizedAffinity>
-8.24853

> <CNNscore>
0.1977367103

> <CNNaffinity>
7.2106337547

> <CNN_VS>
1.4258069992

> <CNNaffinity_variance>
0.1307512820

$$$$
[H]c1nc(S(=O)(=O)[C@@]2([H])C([H])([H])N(C(=O)C3(c4c([H])c([H])c(Cl)c([H])c4[H])C([H])([H])C3([H])[H])[C@]([H])(C(=O)N([H])[C@]([H])(C(=O)C(=O)N([H])C3([H])C([H])([H])C3([H])[H])C([H])([H])C([H])([H])[H])C2([H])[H])c([H])c([H])c1[H]


 42 46  0  0  0  0  0  0  0  0999 V2000
  -87.9885   27.0399    1.2481 C   0  0  0  0  0  0  0  0  0  0  0  0
  -87.6958   27.9741    2.3876 C   0  0  0  0  0  0  0  0  0  0  0  0
  -87.0963   29.1978    1.6453 C   0  0  0  0  0  0  0  0  0  0  0  0
  -87.3011   28.8649    0.1519 C   0  0  0  0  0  0  0  0  0  0  0  0
  -88.4506   28.0254    0.2497 N   0  0  0  0  0  0  0  0  0  0  0  0
  -89.6903   28.0782   -0.3680 C   0  0  0  0  0  0  0  0  0  0  0  0
  -90.5864   27.1736   -0.0282 O   0  0  0  0  0  0  0  0  0  0  0  0
  -89.0698   24.9045    0.5557 N   0  0  0  0  0  0  0  0  0  0  0  0
  -88.8580   25.9318    1.5082 C   0  0  0  0  0  0  0  0  0  0  0  0
  -89.4609   25.8408    2.6076 O   0  0  0  0  0  0  0  0  0  0  0  0
  -88.6236   24.8836   -0.3813 H   0  0  0  0  0  0  0  0  0  0  0  0
  -89.9682   23.7592    0.8447 C   0  0  0  0  0  0  0  0  0  0  0  0
  -92.4086   23.2823    1.3386 C   0  0  0  0  0  0  0  0  0  0  0  0
  -91.3289   24.3275    1.2414 C   0  0  0  0  0  0  0  0  0  0  0  0
  -90.0855   22.9729   -0.3835 C   0  0  0  0  0  0  0  0  0  0  0  0
  -89.6295   21.7751   -0.3730 O   0  0  0  0  0  0  0  0  0  0  0  0
  -90.6721   23.3978   -1.6386 C   0  0  0  0  0  0  0  0  0  0  0  0
  -90.0714   24.3213   -2.2916 O   0  0  0  0  0  0  0  0  0  0  0  0
  -91.8604   22.8502   -2.1747 N   0  0  0  0  0  0  0  0  0  0  0  0
  -92.3350   22.0974   -1.6293 H   0  0  0  0  0  0  0  0  0  0  0  0
  -92.4232   23.2960   -3.4331 C   0  0  0  0  0  0  0  0  0  0  0  0
  -93.8683   22.9739   -3.7275 C   0  0  0  0  0  0  0  0  0  0  0  0
  -93.3808   24.3971   -3.5230 C   0  0  0  0  0  0  0  0  0  0  0  0
  -90.2180   29.0054   -1.3889 C   0  0  0  0  0  0  0  0  0  0  0  0
  -90.7292   28.4324   -2.7231 C   0  0  0  0  0  0  0  0  0  0  0  0
  -91.6526   28.9139   -1.7046 C   0  0  0  0  0  0  0  0  0  0  0  0
  -89.4621   30.2645   -1.6286 C   0  0  0  0  0  0  0  0  0  0  0  0
  -89.6785   31.3487   -0.8278 C   0  0  0  0  0  0  0  0  0  0  0  0
  -89.0018   32.5597   -1.0190 C   0  0  0  0  0  0  0  0  0  0  0  0
  -88.0925   32.6604   -2.0417 C   0  0  0  0  0  0  0  0  0  0  0  0
  -87.2080   34.1693   -2.3295 Cl  0  0  0  0  0  0  0  0  0  0  0  0
  -87.8636   31.5779   -2.8559 C   0  0  0  0  0  0  0  0  0  0  0  0
  -88.5567   30.3780   -2.6410 C   0  0  0  0  0  0  0  0  0  0  0  0
  -85.3816   29.1877    1.9841 S   0  0  0  0  0  0  0  0  0  0  0  0
  -85.2041   29.2842    3.4811 O   0  0  0  0  0  0  0  0  0  0  0  0
  -84.8573   27.8204    1.5632 O   0  0  0  0  0  0  0  0  0  0  0  0
  -84.4726   30.4278    1.1851 C   0  0  0  0  0  0  0  0  0  0  0  0
  -83.1033   30.4476    1.2017 C   0  0  0  0  0  0  0  0  0  0  0  0
  -82.3784   31.4378    0.5439 C   0  0  0  0  0  0  0  0  0  0  0  0
  -83.0443   32.4281   -0.1449 C   0  0  0  0  0  0  0  0  0  0  0  0
  -84.4234   32.3799   -0.1427 C   0  0  0  0  0  0  0  0  0  0  0  0
  -85.0962   31.4010    0.5086 N   0  0  0  0  0  0  0  0  0  0  0  0
 13 14  1  0  0  0
 14 12  1  0  0  0
 12  8  1  0  0  0
  8  9  1  0  0  0
  9 10  2  0  0  0
  9  1  1  0  0  0
  1  2  1  0  0  0
  2  3  1  0  0  0
  3  4  1  0  0  0
  4  5  1  0  0  0
  5  6  1  0  0  0
  6  7  2  0  0  0
  6 24  1  0  0  0
 24 25  1  0  0  0
 25 26  1  0  0  0
 24 27  1  0  0  0
 27 28  2  0  0  0
 28 29  1  0  0  0
 29 30  2  0  0  0
 30 31  1  0  0  0
 30 32  1  0  0  0
 32 33  2  0  0  0
  3 34  1  0  0  0
 34 35  2  0  0  0
 34 36  2  0  0  0
 34 37  1  0  0  0
 37 38  2  0  0  0
 38 39  1  0  0  0
 39 40  2  0  0  0
 40 41  1  0  0  0
 41 42  2  0  0  0
 12 15  1  0  0  0
 15 16  2  0  0  0
 15 17  1  0  0  0
 17 18  2  0  0  0
 17 19  1  0  0  0
 19 21  1  0  0  0
 21 22  1  0  0  0
 22 23  1  0  0  0
  5  1  1  0  0  0
 26 24  1  0  0  0
 33 27  1  0  0  0
 42 37  1  0  0  0
 23 21  1  0  0  0
  8 11  1  0  0  0
 19 20  1  0  0  0
M  END
> <minimizedAffinity>
-8.46061

> <CNNscore>
0.1960306019

> <CNNaffinity>
7.1864266396

> <CNN_VS>
1.4087595940

> <CNNaffinity_variance>
0.1775241047

$$$$
[H]c1nc(S(=O)(=O)[C@@]2([H])C([H])([H])N(C(=O)C3(c4c([H])c([H])c(Cl)c([H])c4[H])C([H])([H])C3([H])[H])[C@]([H])(C(=O)N([H])[C@]([H])(C(=O)C(=O)N([H])C3([H])C([H])([H])C3([H])[H])C([H])([H])C([H])([H])[H])C2([H])[H])c([H])c([H])c1[H]


 42 46  0  0  0  0  0  0  0  0999 V2000
  -87.8376   27.3192    2.6743 C   0  0  0  0  0  0  0  0  0  0  0  0
  -88.0062   25.8324    2.5407 C   0  0  0  0  0  0  0  0  0  0  0  0
  -89.5303   25.7111    2.2755 C   0  0  0  0  0  0  0  0  0  0  0  0
  -89.9973   27.1731    2.1094 C   0  0  0  0  0  0  0  0  0  0  0  0
  -88.7868   27.7576    1.6312 N   0  0  0  0  0  0  0  0  0  0  0  0
  -88.5061   28.5117    0.5025 C   0  0  0  0  0  0  0  0  0  0  0  0
  -87.2551   28.8725    0.2987 O   0  0  0  0  0  0  0  0  0  0  0  0
  -86.1985   29.1699    2.9863 N   0  0  0  0  0  0  0  0  0  0  0  0
  -86.5071   27.8436    2.5947 C   0  0  0  0  0  0  0  0  0  0  0  0
  -85.5650   27.1264    2.1720 O   0  0  0  0  0  0  0  0  0  0  0  0
  -86.9002   29.8445    3.3469 H   0  0  0  0  0  0  0  0  0  0  0  0
  -84.8127   29.6947    2.9046 C   0  0  0  0  0  0  0  0  0  0  0  0
  -82.5979   28.8323    2.0228 C   0  0  0  0  0  0  0  0  0  0  0  0
  -84.0866   28.9144    1.8111 C   0  0  0  0  0  0  0  0  0  0  0  0
  -84.9003   31.1101    2.5447 C   0  0  0  0  0  0  0  0  0  0  0  0
  -84.9839   31.9651    3.4958 O   0  0  0  0  0  0  0  0  0  0  0  0
  -84.9013   31.6721    1.2091 C   0  0  0  0  0  0  0  0  0  0  0  0
  -83.7872   32.1006    0.7449 O   0  0  0  0  0  0  0  0  0  0  0  0
  -86.0566   31.7699    0.3997 N   0  0  0  0  0  0  0  0  0  0  0  0
  -86.9549   31.4140    0.7942 H   0  0  0  0  0  0  0  0  0  0  0  0
  -86.0263   32.3374   -0.9330 C   0  0  0  0  0  0  0  0  0  0  0  0
  -87.1978   33.1765   -1.3827 C   0  0  0  0  0  0  0  0  0  0  0  0
  -85.8123   33.7626   -1.1789 C   0  0  0  0  0  0  0  0  0  0  0  0
  -89.3943   29.0122   -0.5657 C   0  0  0  0  0  0  0  0  0  0  0  0
  -90.2402   30.2712   -0.3027 C   0  0  0  0  0  0  0  0  0  0  0  0
  -89.0636   30.3173   -1.1602 C   0  0  0  0  0  0  0  0  0  0  0  0
  -90.1914   28.0086   -1.3218 C   0  0  0  0  0  0  0  0  0  0  0  0
  -91.4845   27.7589   -0.9623 C   0  0  0  0  0  0  0  0  0  0  0  0
  -92.2728   26.8161   -1.6337 C   0  0  0  0  0  0  0  0  0  0  0  0
  -91.7302   26.1222   -2.6858 C   0  0  0  0  0  0  0  0  0  0  0  0
  -92.6824   24.9172   -3.5708 Cl  0  0  0  0  0  0  0  0  0  0  0  0
  -90.4303   26.3626   -3.0596 C   0  0  0  0  0  0  0  0  0  0  0  0
  -89.6645   27.3121   -2.3682 C   0  0  0  0  0  0  0  0  0  0  0  0
  -90.2353   25.0684    3.7402 S   0  0  0  0  0  0  0  0  0  0  0  0
  -90.4956   26.2254    4.6759 O   0  0  0  0  0  0  0  0  0  0  0  0
  -91.5935   24.4924    3.3595 O   0  0  0  0  0  0  0  0  0  0  0  0
  -89.2905   23.8503    4.5313 C   0  0  0  0  0  0  0  0  0  0  0  0
  -89.3925   22.5253    4.2004 C   0  0  0  0  0  0  0  0  0  0  0  0
  -88.6185   21.5531    4.8287 C   0  0  0  0  0  0  0  0  0  0  0  0
  -87.7235   21.9213    5.8095 C   0  0  0  0  0  0  0  0  0  0  0  0
  -87.6445   23.2637    6.1197 C   0  0  0  0  0  0  0  0  0  0  0  0
  -88.4135   24.1824    5.4875 N   0  0  0  0  0  0  0  0  0  0  0  0
 13 14  1  0  0  0
 14 12  1  0  0  0
 12  8  1  0  0  0
  8  9  1  0  0  0
  9 10  2  0  0  0
  9  1  1  0  0  0
  1  2  1  0  0  0
  2  3  1  0  0  0
  3  4  1  0  0  0
  4  5  1  0  0  0
  5  6  1  0  0  0
  6  7  2  0  0  0
  6 24  1  0  0  0
 24 25  1  0  0  0
 25 26  1  0  0  0
 24 27  1  0  0  0
 27 28  2  0  0  0
 28 29  1  0  0  0
 29 30  2  0  0  0
 30 31  1  0  0  0
 30 32  1  0  0  0
 32 33  2  0  0  0
  3 34  1  0  0  0
 34 35  2  0  0  0
 34 36  2  0  0  0
 34 37  1  0  0  0
 37 38  2  0  0  0
 38 39  1  0  0  0
 39 40  2  0  0  0
 40 41  1  0  0  0
 41 42  2  0  0  0
 12 15  1  0  0  0
 15 16  2  0  0  0
 15 17  1  0  0  0
 17 18  2  0  0  0
 17 19  1  0  0  0
 19 21  1  0  0  0
 21 22  1  0  0  0
 22 23  1  0  0  0
  5  1  1  0  0  0
 26 24  1  0  0  0
 33 27  1  0  0  0
 42 37  1  0  0  0
 23 21  1  0  0  0
  8 11  1  0  0  0
 19 20  1  0  0  0
M  END
> <minimizedAffinity>
-8.50251

> <CNNscore>
0.1634037644

> <CNNaffinity>
7.2056684494

> <CNN_VS>
1.1774333715

> <CNNaffinity_variance>
0.1338934302

$$$$
[H]c1c([H])c([H])c2c(c1[H])Sc1c([H])c([H])c(-c3c(C([H])([H])[H])c([H])c([H])c([H])c3C([H])([H])[H])c([H])c1C([H])(N1C([H])([H])C([H])([H])N(C([H])([H])[H])C([H])([H])C1([H])[H])C2([H])[H]


 30 34  0  0  0  0  0  0  0  0999 V2000
  -86.8024   32.8195    0.1400 C   0  0  0  0  0  0  0  0  0  0  0  0
  -86.0284   31.9860    1.0235 C   0  0  0  0  0  0  0  0  0  0  0  0
  -84.7262   31.4347    0.7098 C   0  0  0  0  0  0  0  0  0  0  0  0
  -84.3584   30.6175    1.7806 C   0  0  0  0  0  0  0  0  0  0  0  0
  -83.1797   29.9195    1.8410 C   0  0  0  0  0  0  0  0  0  0  0  0
  -82.2787   30.0190    0.7786 C   0  0  0  0  0  0  0  0  0  0  0  0
  -82.6082   30.8144   -0.2909 C   0  0  0  0  0  0  0  0  0  0  0  0
  -83.7954   31.4933   -0.3103 C   0  0  0  0  0  0  0  0  0  0  0  0
  -84.0432   32.4733   -1.7923 S   0  0  0  0  0  0  0  0  0  0  0  0
  -85.7731   32.5017   -2.1812 C   0  0  0  0  0  0  0  0  0  0  0  0
  -85.9688   32.3471   -3.5501 C   0  0  0  0  0  0  0  0  0  0  0  0
  -87.2619   32.3187   -4.0561 C   0  0  0  0  0  0  0  0  0  0  0  0
  -88.3439   32.4423   -3.2087 C   0  0  0  0  0  0  0  0  0  0  0  0
  -88.0905   32.5928   -1.8704 C   0  0  0  0  0  0  0  0  0  0  0  0
  -86.8134   32.6293   -1.3023 C   0  0  0  0  0  0  0  0  0  0  0  0
  -89.7372   32.4075   -3.7199 C   0  0  0  0  0  0  0  0  0  0  0  0
  -90.3577   33.4867   -4.2421 C   0  0  0  0  0  0  0  0  0  0  0  0
  -89.6768   34.8034   -4.3216 C   0  0  0  0  0  0  0  0  0  0  0  0
  -91.6713   33.3776   -4.7119 C   0  0  0  0  0  0  0  0  0  0  0  0
  -92.3535   32.1771   -4.6525 C   0  0  0  0  0  0  0  0  0  0  0  0
  -91.7172   31.0816   -4.1209 C   0  0  0  0  0  0  0  0  0  0  0  0
  -90.4329   31.1941   -3.6627 C   0  0  0  0  0  0  0  0  0  0  0  0
  -89.7584   29.9973   -3.1064 C   0  0  0  0  0  0  0  0  0  0  0  0
  -85.9002   38.1088    1.4480 C   0  0  0  0  0  0  0  0  0  0  0  0
  -86.6770   36.9102    1.0683 N   0  0  0  0  0  0  0  0  0  0  0  0
  -86.6223   35.9585    2.1270 C   0  0  0  0  0  0  0  0  0  0  0  0
  -86.2148   34.5730    1.6755 C   0  0  0  0  0  0  0  0  0  0  0  0
  -86.8814   34.2373    0.4378 N   0  0  0  0  0  0  0  0  0  0  0  0
  -86.5663   35.1082   -0.6344 C   0  0  0  0  0  0  0  0  0  0  0  0
  -86.1222   36.4832   -0.1819 C   0  0  0  0  0  0  0  0  0  0  0  0
 24 25  1  0  0  0
 25 26  1  0  0  0
 26 27  1  0  0  0
 27 28  1  0  0  0
 28 29  1  0  0  0
 29 30  1  0  0  0
 28  1  1  0  0  0
  1  2  1  0  0  0
  2  3  1  0  0  0
  3  4  2  0  0  0
  4  5  1  0  0  0
  5  6  2  0  0  0
  6  7  1  0  0  0
  7  8  2  0  0  0
  8  9  1  0  0  0
  9 10  1  0  0  0
 10 11  2  0  0  0
 11 12  1  0  0  0
 12 13  2  0  0  0
 13 14  1  0  0  0
 14 15  2  0  0  0
 13 16  1  0  0  0
 16 17  2  0  0  0
 17 18  1  0  0  0
 17 19  1  0  0  0
 19 20  2  0  0  0
 20 21  1  0  0  0
 21 22  2  0  0  0
 22 23  1  0  0  0
 30 25  1  0  0  0
 15  1  1  0  0  0
 22 16  1  0  0  0
  8  3  1  0  0  0
 15 10  1  0  0  0
M  END
> <minimizedAffinity>
21.80322

> <CNNscore>
0.3803445995

> <CNNaffinity>
6.0318326950

> <CNN_VS>
2.2941749096

> <CNNaffinity_variance>
0.9154826999

$$$$
[H]c1c([H])c([H])c2c(c1[H])Sc1c([H])c([H])c(-c3c(C([H])([H])[H])c([H])c([H])c([H])c3C([H])([H])[H])c([H])c1C([H])(N1C([H])([H])C([H])([H])N(C([H])([H])[H])C([H])([H])C1([H])[H])C2([H])[H]


 30 34  0  0  0  0  0  0  0  0999 V2000
  -86.1925   32.9764    0.7481 C   0  0  0  0  0  0  0  0  0  0  0  0
  -85.7460   31.9224    1.6222 C   0  0  0  0  0  0  0  0  0  0  0  0
  -84.5820   31.0924    1.3885 C   0  0  0  0  0  0  0  0  0  0  0  0
  -84.5457   30.1408    2.4096 C   0  0  0  0  0  0  0  0  0  0  0  0
  -83.5796   29.1741    2.5208 C   0  0  0  0  0  0  0  0  0  0  0  0
  -82.5615   29.1214    1.5664 C   0  0  0  0  0  0  0  0  0  0  0  0
  -82.5661   30.0426    0.5483 C   0  0  0  0  0  0  0  0  0  0  0  0
  -83.5497   30.9901    0.4751 C   0  0  0  0  0  0  0  0  0  0  0  0
  -83.3834   32.0974   -0.9264 S   0  0  0  0  0  0  0  0  0  0  0  0
  -84.9999   32.5725   -1.4798 C   0  0  0  0  0  0  0  0  0  0  0  0
  -85.0633   32.5619   -2.8697 C   0  0  0  0  0  0  0  0  0  0  0  0
  -86.2578   32.8834   -3.5013 C   0  0  0  0  0  0  0  0  0  0  0  0
  -87.3727   33.2102   -2.7569 C   0  0  0  0  0  0  0  0  0  0  0  0
  -87.2510   33.2050   -1.3920 C   0  0  0  0  0  0  0  0  0  0  0  0
  -86.0774   32.8911   -0.6997 C   0  0  0  0  0  0  0  0  0  0  0  0
  -88.6648   33.5503   -3.4041 C   0  0  0  0  0  0  0  0  0  0  0  0
  -89.5762   32.6214   -3.7630 C   0  0  0  0  0  0  0  0  0  0  0  0
  -89.3287   31.1742   -3.5438 C   0  0  0  0  0  0  0  0  0  0  0  0
  -90.7772   33.0167   -4.3628 C   0  0  0  0  0  0  0  0  0  0  0  0
  -91.0529   34.3505   -4.5977 C   0  0  0  0  0  0  0  0  0  0  0  0
  -90.1223   35.2919   -4.2298 C   0  0  0  0  0  0  0  0  0  0  0  0
  -88.9496   34.8997   -3.6440 C   0  0  0  0  0  0  0  0  0  0  0  0
  -87.9648   35.9313   -3.2408 C   0  0  0  0  0  0  0  0  0  0  0  0
  -85.8132   38.4634    1.2479 C   0  0  0  0  0  0  0  0  0  0  0  0
  -85.6755   37.0447    1.6384 N   0  0  0  0  0  0  0  0  0  0  0  0
  -84.7486   36.4040    0.7666 C   0  0  0  0  0  0  0  0  0  0  0  0
  -85.2729   35.1190    0.1638 C   0  0  0  0  0  0  0  0  0  0  0  0
  -85.9707   34.3476    1.1673 N   0  0  0  0  0  0  0  0  0  0  0  0
  -87.0954   35.0110    1.7170 C   0  0  0  0  0  0  0  0  0  0  0  0
  -87.0087   36.5198    1.6241 C   0  0  0  0  0  0  0  0  0  0  0  0
 24 25  1  0  0  0
 25 26  1  0  0  0
 26 27  1  0  0  0
 27 28  1  0  0  0
 28 29  1  0  0  0
 29 30  1  0  0  0
 28  1  1  0  0  0
  1  2  1  0  0  0
  2  3  1  0  0  0
  3  4  2  0  0  0
  4  5  1  0  0  0
  5  6  2  0  0  0
  6  7  1  0  0  0
  7  8  2  0  0  0
  8  9  1  0  0  0
  9 10  1  0  0  0
 10 11  2  0  0  0
 11 12  1  0  0  0
 12 13  2  0  0  0
 13 14  1  0  0  0
 14 15  2  0  0  0
 13 16  1  0  0  0
 16 17  2  0  0  0
 17 18  1  0  0  0
 17 19  1  0  0  0
 19 20  2  0  0  0
 20 21  1  0  0  0
 21 22  2  0  0  0
 22 23  1  0  0  0
 30 25  1  0  0  0
 15  1  1  0  0  0
 22 16  1  0  0  0
  8  3  1  0  0  0
 15 10  1  0  0  0
M  END
> <minimizedAffinity>
23.69590

> <CNNscore>
0.3566635847

> <CNNaffinity>
6.1170387268

> <CNN_VS>
2.1817250252

> <CNNaffinity_variance>
0.7235283256

$$$$
[H]c1c([H])c([H])c2c(c1[H])Sc1c([H])c([H])c(-c3c(C([H])([H])[H])c([H])c([H])c([H])c3C([H])([H])[H])c([H])c1C([H])(N1C([H])([H])C([H])([H])N(C([H])([H])[H])C([H])([H])C1([H])[H])C2([H])[H]


 30 34  0  0  0  0  0  0  0  0999 V2000
  -88.9331   27.3600   -0.3963 C   0  0  0  0  0  0  0  0  0  0  0  0
  -88.5929   26.5156    0.7198 C   0  0  0  0  0  0  0  0  0  0  0  0
  -89.2154   26.5816    2.0260 C   0  0  0  0  0  0  0  0  0  0  0  0
  -88.5476   25.6689    2.8448 C   0  0  0  0  0  0  0  0  0  0  0  0
  -88.8589   25.4525    4.1626 C   0  0  0  0  0  0  0  0  0  0  0  0
  -89.9037   26.1777    4.7394 C   0  0  0  0  0  0  0  0  0  0  0  0
  -90.5826   27.0839    3.9627 C   0  0  0  0  0  0  0  0  0  0  0  0
  -90.2386   27.2686    2.6519 C   0  0  0  0  0  0  0  0  0  0  0  0
  -91.2390   28.4957    1.8084 S   0  0  0  0  0  0  0  0  0  0  0  0
  -90.2384   29.3227    0.6002 C   0  0  0  0  0  0  0  0  0  0  0  0
  -90.4926   30.6906    0.6088 C   0  0  0  0  0  0  0  0  0  0  0  0
  -89.7888   31.5214   -0.2534 C   0  0  0  0  0  0  0  0  0  0  0  0
  -88.8447   30.9951   -1.1112 C   0  0  0  0  0  0  0  0  0  0  0  0
  -88.6373   29.6410   -1.0762 C   0  0  0  0  0  0  0  0  0  0  0  0
  -89.3137   28.7546   -0.2324 C   0  0  0  0  0  0  0  0  0  0  0  0
  -88.0715   31.8594   -2.0379 C   0  0  0  0  0  0  0  0  0  0  0  0
  -86.9395   32.5000   -1.6765 C   0  0  0  0  0  0  0  0  0  0  0  0
  -86.3990   32.3907   -0.2982 C   0  0  0  0  0  0  0  0  0  0  0  0
  -86.2585   33.2932   -2.6067 C   0  0  0  0  0  0  0  0  0  0  0  0
  -86.7244   33.4360   -3.9001 C   0  0  0  0  0  0  0  0  0  0  0  0
  -87.8764   32.7813   -4.2630 C   0  0  0  0  0  0  0  0  0  0  0  0
  -88.5384   32.0074   -3.3493 C   0  0  0  0  0  0  0  0  0  0  0  0
  -89.7713   31.2972   -3.7643 C   0  0  0  0  0  0  0  0  0  0  0  0
  -92.8116   25.4867   -3.8531 C   0  0  0  0  0  0  0  0  0  0  0  0
  -91.4494   25.7578   -3.3479 N   0  0  0  0  0  0  0  0  0  0  0  0
  -91.2379   25.0232   -2.1457 C   0  0  0  0  0  0  0  0  0  0  0  0
  -90.7170   25.8678   -1.0035 C   0  0  0  0  0  0  0  0  0  0  0  0
  -89.7004   26.7774   -1.4811 N   0  0  0  0  0  0  0  0  0  0  0  0
  -90.1646   27.6876   -2.4626 C   0  0  0  0  0  0  0  0  0  0  0  0
  -91.3695   27.1834   -3.2286 C   0  0  0  0  0  0  0  0  0  0  0  0
 24 25  1  0  0  0
 25 26  1  0  0  0
 26 27  1  0  0  0
 27 28  1  0  0  0
 28 29  1  0  0  0
 29 30  1  0  0  0
 28  1  1  0  0  0
  1  2  1  0  0  0
  2  3  1  0  0  0
  3  4  2  0  0  0
  4  5  1  0  0  0
  5  6  2  0  0  0
  6  7  1  0  0  0
  7  8  2  0  0  0
  8  9  1  0  0  0
  9 10  1  0  0  0
 10 11  2  0  0  0
 11 12  1  0  0  0
 12 13  2  0  0  0
 13 14  1  0  0  0
 14 15  2  0  0  0
 13 16  1  0  0  0
 16 17  2  0  0  0
 17 18  1  0  0  0
 17 19  1  0  0  0
 19 20  2  0  0  0
 20 21  1  0  0  0
 21 22  2  0  0  0
 22 23  1  0  0  0
 30 25  1  0  0  0
 15  1  1  0  0  0
 22 16  1  0  0  0
  8  3  1  0  0  0
 15 10  1  0  0  0
M  END
> <minimizedAffinity>
-7.15481

> <CNNscore>
0.2610471845

> <CNNaffinity>
6.2258062363

> <CNN_VS>
1.6252292395

> <CNNaffinity_variance>
0.1079824343

$$$$
[H]c1c([H])c([H])c2c(c1[H])Sc1c([H])c([H])c(-c3c(C([H])([H])[H])c([H])c([H])c([H])c3C([H])([H])[H])c([H])c1C([H])(N1C([H])([H])C([H])([H])N(C([H])([H])[H])C([H])([H])C1([H])[H])C2([H])[H]


 30 34  0  0  0  0  0  0  0  0999 V2000
  -89.8812   26.5732    0.1424 C   0  0  0  0  0  0  0  0  0  0  0  0
  -89.3663   25.8173    1.2549 C   0  0  0  0  0  0  0  0  0  0  0  0
  -89.5999   26.1350    2.6487 C   0  0  0  0  0  0  0  0  0  0  0  0
  -88.8614   25.2237    3.4061 C   0  0  0  0  0  0  0  0  0  0  0  0
  -88.8317   25.2144    4.7770 C   0  0  0  0  0  0  0  0  0  0  0  0
  -89.5786   26.1645    5.4768 C   0  0  0  0  0  0  0  0  0  0  0  0
  -90.3171   27.0761    4.7635 C   0  0  0  0  0  0  0  0  0  0  0  0
  -90.3178   27.0497    3.3960 C   0  0  0  0  0  0  0  0  0  0  0  0
  -91.3392   28.3214    2.6494 S   0  0  0  0  0  0  0  0  0  0  0  0
  -90.6019   28.8266    1.1178 C   0  0  0  0  0  0  0  0  0  0  0  0
  -90.6634   30.2097    0.9785 C   0  0  0  0  0  0  0  0  0  0  0  0
  -90.1155   30.8076   -0.1490 C   0  0  0  0  0  0  0  0  0  0  0  0
  -89.5145   30.0368   -1.1231 C   0  0  0  0  0  0  0  0  0  0  0  0
  -89.4841   28.6801   -0.9327 C   0  0  0  0  0  0  0  0  0  0  0  0
  -90.0180   28.0211    0.1790 C   0  0  0  0  0  0  0  0  0  0  0  0
  -88.9135   30.6486   -2.3348 C   0  0  0  0  0  0  0  0  0  0  0  0
  -89.5532   30.7146   -3.5217 C   0  0  0  0  0  0  0  0  0  0  0  0
  -90.9162   30.1523   -3.6945 C   0  0  0  0  0  0  0  0  0  0  0  0
  -88.9267   31.3134   -4.6204 C   0  0  0  0  0  0  0  0  0  0  0  0
  -87.6548   31.8438   -4.5154 C   0  0  0  0  0  0  0  0  0  0  0  0
  -87.0083   31.7748   -3.3051 C   0  0  0  0  0  0  0  0  0  0  0  0
  -87.6256   31.1880   -2.2342 C   0  0  0  0  0  0  0  0  0  0  0  0
  -86.9177   31.1365   -0.9331 C   0  0  0  0  0  0  0  0  0  0  0  0
  -93.3312   23.4476   -2.8291 C   0  0  0  0  0  0  0  0  0  0  0  0
  -92.8595   24.6404   -2.0950 N   0  0  0  0  0  0  0  0  0  0  0  0
  -91.7368   25.1971   -2.7726 C   0  0  0  0  0  0  0  0  0  0  0  0
  -90.5460   25.4423   -1.8718 C   0  0  0  0  0  0  0  0  0  0  0  0
  -90.9816   26.0060   -0.6143 N   0  0  0  0  0  0  0  0  0  0  0  0
  -91.8589   25.1654    0.1145 C   0  0  0  0  0  0  0  0  0  0  0  0
  -92.6173   24.1871   -0.7574 C   0  0  0  0  0  0  0  0  0  0  0  0
 24 25  1  0  0  0
 25 26  1  0  0  0
 26 27  1  0  0  0
 27 28  1  0  0  0
 28 29  1  0  0  0
 29 30  1  0  0  0
 28  1  1  0  0  0
  1  2  1  0  0  0
  2  3  1  0  0  0
  3  4  2  0  0  0
  4  5  1  0  0  0
  5  6  2  0  0  0
  6  7  1  0  0  0
  7  8  2  0  0  0
  8  9  1  0  0  0
  9 10  1  0  0  0
 10 11  2  0  0  0
 11 12  1  0  0  0
 12 13  2  0  0  0
 13 14  1  0  0  0
 14 15  2  0  0  0
 13 16  1  0  0  0
 16 17  2  0  0  0
 17 18  1  0  0  0
 17 19  1  0  0  0
 19 20  2  0  0  0
 20 21  1  0  0  0
 21 22  2  0  0  0
 22 23  1  0  0  0
 30 25  1  0  0  0
 15  1  1  0  0  0
 22 16  1  0  0  0
  8  3  1  0  0  0
 15 10  1  0  0  0
M  END
> <minimizedAffinity>
-6.49178

> <CNNscore>
0.2290208191

> <CNNaffinity>
6.0008678436

> <CNN_VS>
1.3743237257

> <CNNaffinity_variance>
0.1256692111

$$$$
[H]c1c([H])c([H])c2c(c1[H])Sc1c([H])c([H])c(-c3c(C([H])([H])[H])c([H])c([H])c([H])c3C([H])([H])[H])c([H])c1C([H])(N1C([H])([H])C([H])([H])N(C([H])([H])[H])C([H])([H])C1([H])[H])C2([H])[H]


 30 34  0  0  0  0  0  0  0  0999 V2000
  -88.5595   32.0972   -0.9291 C   0  0  0  0  0  0  0  0  0  0  0  0
  -89.1566   30.9307   -0.3315 C   0  0  0  0  0  0  0  0  0  0  0  0
  -89.3442   29.6617   -1.0043 C   0  0  0  0  0  0  0  0  0  0  0  0
  -90.0328   28.8276   -0.1212 C   0  0  0  0  0  0  0  0  0  0  0  0
  -90.3937   27.5370   -0.4116 C   0  0  0  0  0  0  0  0  0  0  0  0
  -90.0615   27.0055   -1.6596 C   0  0  0  0  0  0  0  0  0  0  0  0
  -89.3838   27.7981   -2.5527 C   0  0  0  0  0  0  0  0  0  0  0  0
  -89.0434   29.0808   -2.2219 C   0  0  0  0  0  0  0  0  0  0  0  0
  -88.1670   29.9537   -3.5211 S   0  0  0  0  0  0  0  0  0  0  0  0
  -88.5983   31.6724   -3.4523 C   0  0  0  0  0  0  0  0  0  0  0  0
  -88.8019   32.1768   -4.7330 C   0  0  0  0  0  0  0  0  0  0  0  0
  -89.1726   33.5057   -4.8927 C   0  0  0  0  0  0  0  0  0  0  0  0
  -89.3381   34.3194   -3.7905 C   0  0  0  0  0  0  0  0  0  0  0  0
  -89.1231   33.7685   -2.5544 C   0  0  0  0  0  0  0  0  0  0  0  0
  -88.7488   32.4400   -2.3302 C   0  0  0  0  0  0  0  0  0  0  0  0
  -89.7415   35.7412   -3.9300 C   0  0  0  0  0  0  0  0  0  0  0  0
  -91.0090   36.1255   -4.1908 C   0  0  0  0  0  0  0  0  0  0  0  0
  -92.0937   35.1289   -4.3751 C   0  0  0  0  0  0  0  0  0  0  0  0
  -91.3176   37.4859   -4.3017 C   0  0  0  0  0  0  0  0  0  0  0  0
  -90.3431   38.4539   -4.1482 C   0  0  0  0  0  0  0  0  0  0  0  0
  -89.0548   38.0575   -3.8821 C   0  0  0  0  0  0  0  0  0  0  0  0
  -88.7587   36.7260   -3.7751 C   0  0  0  0  0  0  0  0  0  0  0  0
  -87.3660   36.3191   -3.4729 C   0  0  0  0  0  0  0  0  0  0  0  0
  -83.1074   32.6313   -0.2287 C   0  0  0  0  0  0  0  0  0  0  0  0
  -84.5446   32.8842    0.0050 N   0  0  0  0  0  0  0  0  0  0  0  0
  -85.1544   31.7015    0.5140 C   0  0  0  0  0  0  0  0  0  0  0  0
  -86.4029   31.2926   -0.2367 C   0  0  0  0  0  0  0  0  0  0  0  0
  -87.2126   32.4545   -0.5252 N   0  0  0  0  0  0  0  0  0  0  0  0
  -86.5624   33.4154   -1.3385 C   0  0  0  0  0  0  0  0  0  0  0  0
  -85.0521   33.3560   -1.2492 C   0  0  0  0  0  0  0  0  0  0  0  0
 24 25  1  0  0  0
 25 26  1  0  0  0
 26 27  1  0  0  0
 27 28  1  0  0  0
 28 29  1  0  0  0
 29 30  1  0  0  0
 28  1  1  0  0  0
  1  2  1  0  0  0
  2  3  1  0  0  0
  3  4  2  0  0  0
  4  5  1  0  0  0
  5  6  2  0  0  0
  6  7  1  0  0  0
  7  8  2  0  0  0
  8  9  1  0  0  0
  9 10  1  0  0  0
 10 11  2  0  0  0
 11 12  1  0  0  0
 12 13  2  0  0  0
 13 14  1  0  0  0
 14 15  2  0  0  0
 13 16  1  0  0  0
 16 17  2  0  0  0
 17 18  1  0  0  0
 17 19  1  0  0  0
 19 20  2  0  0  0
 20 21  1  0  0  0
 21 22  2  0  0  0
 22 23  1  0  0  0
 30 25  1  0  0  0
 15  1  1  0  0  0
 22 16  1  0  0  0
  8  3  1  0  0  0
 15 10  1  0  0  0
M  END
> <minimizedAffinity>
-8.79402

> <CNNscore>
0.1802293658

> <CNNaffinity>
5.8375802040

> <CNN_VS>
1.0521034002

> <CNNaffinity_variance>
0.6326408386

$$$$
[H]c1c([H])c([H])c2c(c1[H])Sc1c([H])c([H])c(-c3c(C([H])([H])[H])c([H])c([H])c([H])c3C([H])([H])[H])c([H])c1C([H])(N1C([H])([H])C([H])([H])N(C([H])([H])[H])C([H])([H])C1([H])[H])C2([H])[H]


 30 34  0  0  0  0  0  0  0  0999 V2000
  -88.7730   31.4009   -0.7647 C   0  0  0  0  0  0  0  0  0  0  0  0
  -89.4453   30.2520   -0.2147 C   0  0  0  0  0  0  0  0  0  0  0  0
  -89.5642   28.9689   -0.8763 C   0  0  0  0  0  0  0  0  0  0  0  0
  -90.3577   28.1595   -0.0609 C   0  0  0  0  0  0  0  0  0  0  0  0
  -90.6934   26.8646   -0.3624 C   0  0  0  0  0  0  0  0  0  0  0  0
  -90.2231   26.3025   -1.5512 C   0  0  0  0  0  0  0  0  0  0  0  0
  -89.4396   27.0703   -2.3769 C   0  0  0  0  0  0  0  0  0  0  0  0
  -89.1291   28.3583   -2.0374 C   0  0  0  0  0  0  0  0  0  0  0  0
  -88.1004   29.1958   -3.2451 S   0  0  0  0  0  0  0  0  0  0  0  0
  -88.5222   30.9182   -3.2652 C   0  0  0  0  0  0  0  0  0  0  0  0
  -88.5716   31.3940   -4.5719 C   0  0  0  0  0  0  0  0  0  0  0  0
  -88.9099   32.7210   -4.8031 C   0  0  0  0  0  0  0  0  0  0  0  0
  -89.1954   33.5609   -3.7460 C   0  0  0  0  0  0  0  0  0  0  0  0
  -89.1300   33.0374   -2.4813 C   0  0  0  0  0  0  0  0  0  0  0  0
  -88.7955   31.7124   -2.1856 C   0  0  0  0  0  0  0  0  0  0  0  0
  -89.5678   34.9815   -3.9631 C   0  0  0  0  0  0  0  0  0  0  0  0
  -88.7234   36.0086   -3.7299 C   0  0  0  0  0  0  0  0  0  0  0  0
  -87.3506   35.7756   -3.2152 C   0  0  0  0  0  0  0  0  0  0  0  0
  -89.1413   37.3233   -3.9645 C   0  0  0  0  0  0  0  0  0  0  0  0
  -90.4122   37.5954   -4.4346 C   0  0  0  0  0  0  0  0  0  0  0  0
  -91.2674   36.5465   -4.6711 C   0  0  0  0  0  0  0  0  0  0  0  0
  -90.8535   35.2630   -4.4397 C   0  0  0  0  0  0  0  0  0  0  0  0
  -91.7857   34.1441   -4.7151 C   0  0  0  0  0  0  0  0  0  0  0  0
  -83.4198   32.1858    0.3434 C   0  0  0  0  0  0  0  0  0  0  0  0
  -84.8814   32.2633    0.5479 N   0  0  0  0  0  0  0  0  0  0  0  0
  -85.4007   30.9504    0.7382 C   0  0  0  0  0  0  0  0  0  0  0  0
  -86.5794   30.6300   -0.1548 C   0  0  0  0  0  0  0  0  0  0  0  0
  -87.4790   31.7596   -0.2151 N   0  0  0  0  0  0  0  0  0  0  0  0
  -86.8886   32.9314   -0.7495 C   0  0  0  0  0  0  0  0  0  0  0  0
  -85.3832   32.9722   -0.5917 C   0  0  0  0  0  0  0  0  0  0  0  0
 24 25  1  0  0  0
 25 26  1  0  0  0
 26 27  1  0  0  0
 27 28  1  0  0  0
 28 29  1  0  0  0
 29 30  1  0  0  0
 28  1  1  0  0  0
  1  2  1  0  0  0
  2  3  1  0  0  0
  3  4  2  0  0  0
  4  5  1  0  0  0
  5  6  2  0  0  0
  6  7  1  0  0  0
  7  8  2  0  0  0
  8  9  1  0  0  0
  9 10  1  0  0  0
 10 11  2  0  0  0
 11 12  1  0  0  0
 12 13  2  0  0  0
 13 14  1  0  0  0
 14 15  2  0  0  0
 13 16  1  0  0  0
 16 17  2  0  0  0
 17 18  1  0  0  0
 17 19  1  0  0  0
 19 20  2  0  0  0
 20 21  1  0  0  0
 21 22  2  0  0  0
 22 23  1  0  0  0
 30 25  1  0  0  0
 15  1  1  0  0  0
 22 16  1  0  0  0
  8  3  1  0  0  0
 15 10  1  0  0  0
M  END
> <minimizedAffinity>
-8.60702

> <CNNscore>
0.1240599602

> <CNNaffinity>
5.8319940567

> <CNN_VS>
0.7235169411

> <CNNaffinity_variance>
0.5141838789

$$$$
[H]c1c([H])c([H])c2c(c1[H])Sc1c([H])c([H])c(-c3c(C([H])([H])[H])c([H])c([H])c([H])c3C([H])([H])[H])c([H])c1C([H])(N1C([H])([H])C([H])([H])N(C([H])([H])[H])C([H])([H])C1([H])[H])C2([H])[H]


 30 34  0  0  0  0  0  0  0  0999 V2000
  -90.8712   28.9179   -1.4403 C   0  0  0  0  0  0  0  0  0  0  0  0
  -92.2700   29.2598   -1.4095 C   0  0  0  0  0  0  0  0  0  0  0  0
  -92.9585   30.0167   -2.4348 C   0  0  0  0  0  0  0  0  0  0  0  0
  -94.2681   30.2107   -1.9911 C   0  0  0  0  0  0  0  0  0  0  0  0
  -95.2235   30.8920   -2.7005 C   0  0  0  0  0  0  0  0  0  0  0  0
  -94.8872   31.4314   -3.9440 C   0  0  0  0  0  0  0  0  0  0  0  0
  -93.6078   31.2592   -4.4114 C   0  0  0  0  0  0  0  0  0  0  0  0
  -92.6856   30.5726   -3.6705 C   0  0  0  0  0  0  0  0  0  0  0  0
  -91.0734   30.4588   -4.4489 S   0  0  0  0  0  0  0  0  0  0  0  0
  -89.8245   30.4644   -3.1900 C   0  0  0  0  0  0  0  0  0  0  0  0
  -88.7548   31.2708   -3.5663 C   0  0  0  0  0  0  0  0  0  0  0  0
  -87.6795   31.4264   -2.7012 C   0  0  0  0  0  0  0  0  0  0  0  0
  -87.6718   30.7872   -1.4783 C   0  0  0  0  0  0  0  0  0  0  0  0
  -88.7518   30.0053   -1.1617 C   0  0  0  0  0  0  0  0  0  0  0  0
  -89.8616   29.8098   -1.9895 C   0  0  0  0  0  0  0  0  0  0  0  0
  -86.5401   30.9413   -0.5299 C   0  0  0  0  0  0  0  0  0  0  0  0
  -86.0305   32.1413   -0.1794 C   0  0  0  0  0  0  0  0  0  0  0  0
  -86.5703   33.4027   -0.7462 C   0  0  0  0  0  0  0  0  0  0  0  0
  -84.9667   32.2104    0.7271 C   0  0  0  0  0  0  0  0  0  0  0  0
  -84.4214   31.0655    1.2767 C   0  0  0  0  0  0  0  0  0  0  0  0
  -84.9442   29.8468    0.9172 C   0  0  0  0  0  0  0  0  0  0  0  0
  -85.9842   29.7852    0.0302 C   0  0  0  0  0  0  0  0  0  0  0  0
  -86.5440   28.4620   -0.3336 C   0  0  0  0  0  0  0  0  0  0  0  0
  -90.3828   23.4270   -1.7760 C   0  0  0  0  0  0  0  0  0  0  0  0
  -90.0817   24.8442   -2.0675 N   0  0  0  0  0  0  0  0  0  0  0  0
  -89.5842   25.4720   -0.8893 C   0  0  0  0  0  0  0  0  0  0  0  0
  -90.2943   26.7630   -0.5450 C   0  0  0  0  0  0  0  0  0  0  0  0
  -90.5131   27.5444   -1.7410 N   0  0  0  0  0  0  0  0  0  0  0  0
  -91.3230   26.8960   -2.7060 C   0  0  0  0  0  0  0  0  0  0  0  0
  -91.2987   25.3862   -2.5952 C   0  0  0  0  0  0  0  0  0  0  0  0
 24 25  1  0  0  0
 25 26  1  0  0  0
 26 27  1  0  0  0
 27 28  1  0  0  0
 28 29  1  0  0  0
 29 30  1  0  0  0
 28  1  1  0  0  0
  1  2  1  0  0  0
  2  3  1  0  0  0
  3  4  2  0  0  0
  4  5  1  0  0  0
  5  6  2  0  0  0
  6  7  1  0  0  0
  7  8  2  0  0  0
  8  9  1  0  0  0
  9 10  1  0  0  0
 10 11  2  0  0  0
 11 12  1  0  0  0
 12 13  2  0  0  0
 13 14  1  0  0  0
 14 15  2  0  0  0
 13 16  1  0  0  0
 16 17  2  0  0  0
 17 18  1  0  0  0
 17 19  1  0  0  0
 19 20  2  0  0  0
 20 21  1  0  0  0
 21 22  2  0  0  0
 22 23  1  0  0  0
 30 25  1  0  0  0
 15  1  1  0  0  0
 22 16  1  0  0  0
  8  3  1  0  0  0
 15 10  1  0  0  0
M  END
> <minimizedAffinity>
-8.54472

> <CNNscore>
0.0758722052

> <CNNaffinity>
5.8970193863

> <CNN_VS>
0.4474198520

> <CNNaffinity_variance>
0.2342300415

$$$$
[H]c1c([H])c([H])c2c(c1[H])Sc1c([H])c([H])c(-c3c(C([H])([H])[H])c([H])c([H])c([H])c3C([H])([H])[H])c([H])c1C([H])(N1C([H])([H])C([H])([H])N(C([H])([H])[H])C([H])([H])C1([H])[H])C2([H])[H]


 30 34  0  0  0  0  0  0  0  0999 V2000
  -90.9162   28.9772   -1.4637 C   0  0  0  0  0  0  0  0  0  0  0  0
  -92.3074   29.3489   -1.4369 C   0  0  0  0  0  0  0  0  0  0  0  0
  -92.9773   30.1179   -2.4655 C   0  0  0  0  0  0  0  0  0  0  0  0
  -94.2835   30.3408   -2.0252 C   0  0  0  0  0  0  0  0  0  0  0  0
  -95.2225   31.0408   -2.7383 C   0  0  0  0  0  0  0  0  0  0  0  0
  -94.8721   31.5700   -3.9822 C   0  0  0  0  0  0  0  0  0  0  0  0
  -93.5956   31.3694   -4.4463 C   0  0  0  0  0  0  0  0  0  0  0  0
  -92.6899   30.6650   -3.7018 C   0  0  0  0  0  0  0  0  0  0  0  0
  -91.0788   30.5150   -4.4763 S   0  0  0  0  0  0  0  0  0  0  0  0
  -89.8328   30.4969   -3.2145 C   0  0  0  0  0  0  0  0  0  0  0  0
  -88.7454   31.2794   -3.5903 C   0  0  0  0  0  0  0  0  0  0  0  0
  -87.6689   31.4140   -2.7231 C   0  0  0  0  0  0  0  0  0  0  0  0
  -87.6775   30.7777   -1.4987 C   0  0  0  0  0  0  0  0  0  0  0  0
  -88.7746   30.0198   -1.1828 C   0  0  0  0  0  0  0  0  0  0  0  0
  -89.8865   29.8461   -2.0127 C   0  0  0  0  0  0  0  0  0  0  0  0
  -86.5449   30.9099   -0.5482 C   0  0  0  0  0  0  0  0  0  0  0  0
  -85.9573   29.8517    0.0497 C   0  0  0  0  0  0  0  0  0  0  0  0
  -86.4294   28.4664   -0.1987 C   0  0  0  0  0  0  0  0  0  0  0  0
  -84.8881   30.0519    0.9300 C   0  0  0  0  0  0  0  0  0  0  0  0
  -84.4161   31.3219    1.2030 C   0  0  0  0  0  0  0  0  0  0  0  0
  -85.0171   32.3953    0.5913 C   0  0  0  0  0  0  0  0  0  0  0  0
  -86.0624   32.1938   -0.2683 C   0  0  0  0  0  0  0  0  0  0  0  0
  -86.6878   33.3634   -0.9297 C   0  0  0  0  0  0  0  0  0  0  0  0
  -90.5910   23.4768   -1.8397 C   0  0  0  0  0  0  0  0  0  0  0  0
  -90.2267   24.8861   -2.0954 N   0  0  0  0  0  0  0  0  0  0  0  0
  -89.7782   25.4841   -0.8826 C   0  0  0  0  0  0  0  0  0  0  0  0
  -90.4641   26.7946   -0.5637 C   0  0  0  0  0  0  0  0  0  0  0  0
  -90.5868   27.5956   -1.7605 N   0  0  0  0  0  0  0  0  0  0  0  0
  -91.3601   26.9853   -2.7788 C   0  0  0  0  0  0  0  0  0  0  0  0
  -91.3922   25.4744   -2.6858 C   0  0  0  0  0  0  0  0  0  0  0  0
 24 25  1  0  0  0
 25 26  1  0  0  0
 26 27  1  0  0  0
 27 28  1  0  0  0
 28 29  1  0  0  0
 29 30  1  0  0  0
 28  1  1  0  0  0
  1  2  1  0  0  0
  2  3  1  0  0  0
  3  4  2  0  0  0
  4  5  1  0  0  0
  5  6  2  0  0  0
  6  7  1  0  0  0
  7  8  2  0  0  0
  8  9  1  0  0  0
  9 10  1  0  0  0
 10 11  2  0  0  0
 11 12  1  0  0  0
 12 13  2  0  0  0
 13 14  1  0  0  0
 14 15  2  0  0  0
 13 16  1  0  0  0
 16 17  2  0  0  0
 17 18  1  0  0  0
 17 19  1  0  0  0
 19 20  2  0  0  0
 20 21  1  0  0  0
 21 22  2  0  0  0
 22 23  1  0  0  0
 30 25  1  0  0  0
 15  1  1  0  0  0
 22 16  1  0  0  0
  8  3  1  0  0  0
 15 10  1  0  0  0
M  END
> <minimizedAffinity>
-8.37241

> <CNNscore>
0.0738237053

> <CNNaffinity>
5.8987679482

> <CNN_VS>
0.4354689121

> <CNNaffinity_variance>
0.2201308757

$$$$
[H]c1c([H])c([H])c2c(c1[H])Sc1c([H])c([H])c(-c3c(C([H])([H])[H])c([H])c([H])c([H])c3C([H])([H])[H])c([H])c1C([H])(N1C([H])([H])C([H])([H])N(C([H])([H])[H])C([H])([H])C1([H])[H])C2([H])[H]


 30 34  0  0  0  0  0  0  0  0999 V2000
  -90.6195   28.8660    0.2203 C   0  0  0  0  0  0  0  0  0  0  0  0
  -91.7822   29.1186   -0.5913 C   0  0  0  0  0  0  0  0  0  0  0  0
  -92.0593   28.4776   -1.8603 C   0  0  0  0  0  0  0  0  0  0  0  0
  -93.2244   29.0573   -2.3664 C   0  0  0  0  0  0  0  0  0  0  0  0
  -93.7981   28.7046   -3.5608 C   0  0  0  0  0  0  0  0  0  0  0  0
  -93.1974   27.7075   -4.3323 C   0  0  0  0  0  0  0  0  0  0  0  0
  -92.0503   27.1156   -3.8646 C   0  0  0  0  0  0  0  0  0  0  0  0
  -91.5113   27.4982   -2.6672 C   0  0  0  0  0  0  0  0  0  0  0  0
  -90.0135   26.6116   -2.2328 S   0  0  0  0  0  0  0  0  0  0  0  0
  -88.9460   27.6962   -1.3223 C   0  0  0  0  0  0  0  0  0  0  0  0
  -87.6271   27.5477   -1.7399 C   0  0  0  0  0  0  0  0  0  0  0  0
  -86.6356   28.3299   -1.1620 C   0  0  0  0  0  0  0  0  0  0  0  0
  -86.9555   29.2473   -0.1821 C   0  0  0  0  0  0  0  0  0  0  0  0
  -88.2704   29.3493    0.1897 C   0  0  0  0  0  0  0  0  0  0  0  0
  -89.3115   28.5905   -0.3540 C   0  0  0  0  0  0  0  0  0  0  0  0
  -85.9183   30.1025    0.4477 C   0  0  0  0  0  0  0  0  0  0  0  0
  -85.7313   31.3981    0.1176 C   0  0  0  0  0  0  0  0  0  0  0  0
  -86.5562   32.0533   -0.9283 C   0  0  0  0  0  0  0  0  0  0  0  0
  -84.7378   32.1459    0.7594 C   0  0  0  0  0  0  0  0  0  0  0  0
  -83.9362   31.5812    1.7334 C   0  0  0  0  0  0  0  0  0  0  0  0
  -84.1311   30.2625    2.0662 C   0  0  0  0  0  0  0  0  0  0  0  0
  -85.1038   29.5360    1.4352 C   0  0  0  0  0  0  0  0  0  0  0  0
  -85.3084   28.1191    1.8187 C   0  0  0  0  0  0  0  0  0  0  0  0
  -90.1079   26.1798    5.0187 C   0  0  0  0  0  0  0  0  0  0  0  0
  -90.7678   26.6570    3.7854 N   0  0  0  0  0  0  0  0  0  0  0  0
  -90.1090   26.0985    2.6523 C   0  0  0  0  0  0  0  0  0  0  0  0
  -89.7185   27.1253    1.6118 C   0  0  0  0  0  0  0  0  0  0  0  0
  -90.7899   28.0775    1.4263 N   0  0  0  0  0  0  0  0  0  0  0  0
  -91.1132   28.8078    2.5966 C   0  0  0  0  0  0  0  0  0  0  0  0
  -90.7457   28.0868    3.8763 C   0  0  0  0  0  0  0  0  0  0  0  0
 24 25  1  0  0  0
 25 26  1  0  0  0
 26 27  1  0  0  0
 27 28  1  0  0  0
 28 29  1  0  0  0
 29 30  1  0  0  0
 28  1  1  0  0  0
  1  2  1  0  0  0
  2  3  1  0  0  0
  3  4  2  0  0  0
  4  5  1  0  0  0
  5  6  2  0  0  0
  6  7  1  0  0  0
  7  8  2  0  0  0
  8  9  1  0  0  0
  9 10  1  0  0  0
 10 11  2  0  0  0
 11 12  1  0  0  0
 12 13  2  0  0  0
 13 14  1  0  0  0
 14 15  2  0  0  0
 13 16  1  0  0  0
 16 17  2  0  0  0
 17 18  1  0  0  0
 17 19  1  0  0  0
 19 20  2  0  0  0
 20 21  1  0  0  0
 21 22  2  0  0  0
 22 23  1  0  0  0
 30 25  1  0  0  0
 15  1  1  0  0  0
 22 16  1  0  0  0
  8  3  1  0  0  0
 15 10  1  0  0  0
M  END
> <minimizedAffinity>
-10.39570

> <CNNscore>
0.0676425397

> <CNNaffinity>
5.8947649002

> <CNN_VS>
0.3987368643

> <CNNaffinity_variance>
0.4697333276

$$$$
[H]OC(=O)c1c([H])c(N([H])S(=O)(=O)c2c([H])c([H])c(C(C([H])([H])[H])(C([H])([H])[H])C([H])([H])[H])c([H])c2[H])c([H])c([H])c1F


 26 27  0  0  0  0  0  0  0  0999 V2000
  -88.7521   29.2992   -2.0664 S   0  0  0  0  0  0  0  0  0  0  0  0
  -89.4953   30.4933   -2.6490 O   0  0  0  0  0  0  0  0  0  0  0  0
  -88.1709   28.6041   -3.2924 O   0  0  0  0  0  0  0  0  0  0  0  0
  -85.1566   30.5048    0.5235 C   0  0  0  0  0  0  0  0  0  0  0  0
  -85.4041   29.2034    0.0921 C   0  0  0  0  0  0  0  0  0  0  0  0
  -86.4857   28.8719   -0.6761 C   0  0  0  0  0  0  0  0  0  0  0  0
  -87.4262   29.8427   -1.0804 C   0  0  0  0  0  0  0  0  0  0  0  0
  -87.1840   31.1202   -0.6559 C   0  0  0  0  0  0  0  0  0  0  0  0
  -86.0759   31.4568    0.1295 C   0  0  0  0  0  0  0  0  0  0  0  0
  -84.3644   31.6308    2.5372 C   0  0  0  0  0  0  0  0  0  0  0  0
  -83.9499   30.7994    1.3293 C   0  0  0  0  0  0  0  0  0  0  0  0
  -83.2728   29.5226    1.8162 C   0  0  0  0  0  0  0  0  0  0  0  0
  -82.9409   31.5822    0.5431 C   0  0  0  0  0  0  0  0  0  0  0  0
  -89.7747   28.2482   -1.2584 N   0  0  0  0  0  0  0  0  0  0  0  0
  -90.2747   27.5077   -1.8680 H   0  0  0  0  0  0  0  0  0  0  0  0
  -90.0882   28.1912    0.1078 C   0  0  0  0  0  0  0  0  0  0  0  0
  -90.9501   28.9844    0.8046 C   0  0  0  0  0  0  0  0  0  0  0  0
  -91.1753   28.8557    2.1680 C   0  0  0  0  0  0  0  0  0  0  0  0
  -90.4980   27.8774    2.8531 C   0  0  0  0  0  0  0  0  0  0  0  0
  -90.6441   27.6625    4.1888 F   0  0  0  0  0  0  0  0  0  0  0  0
  -89.6059   27.0294    2.2005 C   0  0  0  0  0  0  0  0  0  0  0  0
  -89.4099   27.1881    0.8612 C   0  0  0  0  0  0  0  0  0  0  0  0
  -88.8693   25.9767    2.9125 C   0  0  0  0  0  0  0  0  0  0  0  0
  -87.4671   25.9854    2.7515 O   0  0  0  0  0  0  0  0  0  0  0  0
  -89.4024   25.1231    3.6127 O   0  0  0  0  0  0  0  0  0  0  0  0
  -87.0665   25.7387    1.8295 H   0  0  0  0  0  0  0  0  0  0  0  0
 10 11  1  0  0  0
 11 12  1  0  0  0
 11 13  1  0  0  0
 11  4  1  0  0  0
  4  5  2  0  0  0
  5  6  1  0  0  0
  6  7  2  0  0  0
  7  8  1  0  0  0
  8  9  2  0  0  0
  7  1  1  0  0  0
  1  2  2  0  0  0
  1  3  2  0  0  0
  1 14  1  0  0  0
 14 16  1  0  0  0
 16 17  2  0  0  0
 17 18  1  0  0  0
 18 19  2  0  0  0
 19 20  1  0  0  0
 19 21  1  0  0  0
 21 22  2  0  0  0
 21 23  1  0  0  0
 23 24  1  0  0  0
 23 25  2  0  0  0
  9  4  1  0  0  0
 22 16  1  0  0  0
 14 15  1  0  0  0
 24 26  1  0  0  0
M  END
> <minimizedAffinity>
-8.85255

> <CNNscore>
0.4579191804

> <CNNaffinity>
6.0391960144

> <CNN_VS>
2.7654635906

> <CNNaffinity_variance>
0.1302933991

$$$$
[H]OC(=O)c1c([H])c(N([H])S(=O)(=O)c2c([H])c([H])c(C(C([H])([H])[H])(C([H])([H])[H])C([H])([H])[H])c([H])c2[H])c([H])c([H])c1F


 26 27  0  0  0  0  0  0  0  0999 V2000
  -88.9243   27.2091   -0.9851 S   0  0  0  0  0  0  0  0  0  0  0  0
  -89.1289   27.8353   -2.3576 O   0  0  0  0  0  0  0  0  0  0  0  0
  -88.5932   25.7545   -1.2992 O   0  0  0  0  0  0  0  0  0  0  0  0
  -85.2855   29.2672    0.9153 C   0  0  0  0  0  0  0  0  0  0  0  0
  -85.9367   29.7335   -0.2246 C   0  0  0  0  0  0  0  0  0  0  0  0
  -87.0169   29.0981   -0.7716 C   0  0  0  0  0  0  0  0  0  0  0  0
  -87.5401   27.9167   -0.2049 C   0  0  0  0  0  0  0  0  0  0  0  0
  -86.9001   27.4580    0.9135 C   0  0  0  0  0  0  0  0  0  0  0  0
  -85.7953   28.1108    1.4716 C   0  0  0  0  0  0  0  0  0  0  0  0
  -84.6601   30.9837    2.5318 C   0  0  0  0  0  0  0  0  0  0  0  0
  -84.1390   30.0208    1.4719 C   0  0  0  0  0  0  0  0  0  0  0  0
  -83.1113   29.0919    2.1096 C   0  0  0  0  0  0  0  0  0  0  0  0
  -83.4397   30.8201    0.4131 C   0  0  0  0  0  0  0  0  0  0  0  0
  -90.3071   27.2785   -0.0437 N   0  0  0  0  0  0  0  0  0  0  0  0
  -91.2372   27.4312   -0.5744 H   0  0  0  0  0  0  0  0  0  0  0  0
  -90.4375   27.1747    1.3492 C   0  0  0  0  0  0  0  0  0  0  0  0
  -90.5355   28.1836    2.2603 C   0  0  0  0  0  0  0  0  0  0  0  0
  -90.6423   27.9714    3.6276 C   0  0  0  0  0  0  0  0  0  0  0  0
  -90.6529   26.6785    4.0898 C   0  0  0  0  0  0  0  0  0  0  0  0
  -90.7552   26.3567    5.4079 F   0  0  0  0  0  0  0  0  0  0  0  0
  -90.5608   25.6007    3.2118 C   0  0  0  0  0  0  0  0  0  0  0  0
  -90.4552   25.8495    1.8761 C   0  0  0  0  0  0  0  0  0  0  0  0
  -90.5689   24.2095    3.6830 C   0  0  0  0  0  0  0  0  0  0  0  0
  -89.3158   23.6726    4.0487 O   0  0  0  0  0  0  0  0  0  0  0  0
  -91.5803   23.5217    3.7668 O   0  0  0  0  0  0  0  0  0  0  0  0
  -88.6128   23.4919    3.3107 H   0  0  0  0  0  0  0  0  0  0  0  0
 10 11  1  0  0  0
 11 12  1  0  0  0
 11 13  1  0  0  0
 11  4  1  0  0  0
  4  5  2  0  0  0
  5  6  1  0  0  0
  6  7  2  0  0  0
  7  8  1  0  0  0
  8  9  2  0  0  0
  7  1  1  0  0  0
  1  2  2  0  0  0
  1  3  2  0  0  0
  1 14  1  0  0  0
 14 16  1  0  0  0
 16 17  2  0  0  0
 17 18  1  0  0  0
 18 19  2  0  0  0
 19 20  1  0  0  0
 19 21  1  0  0  0
 21 22  2  0  0  0
 21 23  1  0  0  0
 23 24  1  0  0  0
 23 25  2  0  0  0
  9  4  1  0  0  0
 22 16  1  0  0  0
 14 15  1  0  0  0
 24 26  1  0  0  0
M  END
> <minimizedAffinity>
-9.14282

> <CNNscore>
0.3160086572

> <CNNaffinity>
5.6920399666

> <CNN_VS>
1.7987339497

> <CNNaffinity_variance>
0.2728845477

$$$$
[H]OC(=O)c1c([H])c(N([H])S(=O)(=O)c2c([H])c([H])c(C(C([H])([H])[H])(C([H])([H])[H])C([H])([H])[H])c([H])c2[H])c([H])c([H])c1F


 26 27  0  0  0  0  0  0  0  0999 V2000
  -89.1073   30.8869   -2.3849 S   0  0  0  0  0  0  0  0  0  0  0  0
  -90.2069   31.0178   -1.3402 O   0  0  0  0  0  0  0  0  0  0  0  0
  -89.7036   29.9374   -3.4178 O   0  0  0  0  0  0  0  0  0  0  0  0
  -88.4775   35.0437   -4.2322 C   0  0  0  0  0  0  0  0  0  0  0  0
  -89.1097   34.8220   -3.0106 C   0  0  0  0  0  0  0  0  0  0  0  0
  -89.2869   33.5719   -2.4856 C   0  0  0  0  0  0  0  0  0  0  0  0
  -88.8339   32.4192   -3.1612 C   0  0  0  0  0  0  0  0  0  0  0  0
  -88.2144   32.6366   -4.3612 C   0  0  0  0  0  0  0  0  0  0  0  0
  -88.0336   33.9171   -4.8958 C   0  0  0  0  0  0  0  0  0  0  0  0
  -87.9703   37.3282   -3.5434 C   0  0  0  0  0  0  0  0  0  0  0  0
  -88.2928   36.4263   -4.7286 C   0  0  0  0  0  0  0  0  0  0  0  0
  -87.1554   36.5136   -5.7408 C   0  0  0  0  0  0  0  0  0  0  0  0
  -89.5353   36.9443   -5.3895 C   0  0  0  0  0  0  0  0  0  0  0  0
  -87.7078   30.2199   -1.7526 N   0  0  0  0  0  0  0  0  0  0  0  0
  -87.4468   29.2331   -2.1106 H   0  0  0  0  0  0  0  0  0  0  0  0
  -86.8178   30.7555   -0.8098 C   0  0  0  0  0  0  0  0  0  0  0  0
  -86.3253   32.0248   -0.7473 C   0  0  0  0  0  0  0  0  0  0  0  0
  -85.4284   32.4501    0.2226 C   0  0  0  0  0  0  0  0  0  0  0  0
  -85.0157   31.5482    1.1720 C   0  0  0  0  0  0  0  0  0  0  0  0
  -84.1418   31.8583    2.1678 F   0  0  0  0  0  0  0  0  0  0  0  0
  -85.4841   30.2361    1.1685 C   0  0  0  0  0  0  0  0  0  0  0  0
  -86.3625   29.8555    0.1985 C   0  0  0  0  0  0  0  0  0  0  0  0
  -85.0560   29.2536    2.1729 C   0  0  0  0  0  0  0  0  0  0  0  0
  -85.4538   29.5136    3.5019 O   0  0  0  0  0  0  0  0  0  0  0  0
  -84.3916   28.2561    1.9142 O   0  0  0  0  0  0  0  0  0  0  0  0
  -85.0321   30.3145    4.0041 H   0  0  0  0  0  0  0  0  0  0  0  0
 10 11  1  0  0  0
 11 12  1  0  0  0
 11 13  1  0  0  0
 11  4  1  0  0  0
  4  5  2  0  0  0
  5  6  1  0  0  0
  6  7  2  0  0  0
  7  8  1  0  0  0
  8  9  2  0  0  0
  7  1  1  0  0  0
  1  2  2  0  0  0
  1  3  2  0  0  0
  1 14  1  0  0  0
 14 16  1  0  0  0
 16 17  2  0  0  0
 17 18  1  0  0  0
 18 19  2  0  0  0
 19 20  1  0  0  0
 19 21  1  0  0  0
 21 22  2  0  0  0
 21 23  1  0  0  0
 23 24  1  0  0  0
 23 25  2  0  0  0
  9  4  1  0  0  0
 22 16  1  0  0  0
 14 15  1  0  0  0
 24 26  1  0  0  0
M  END
> <minimizedAffinity>
-7.20758

> <CNNscore>
0.2314083874

> <CNNaffinity>
5.3414559364

> <CNN_VS>
1.2360577583

> <CNNaffinity_variance>
0.1696252674

$$$$
[H]OC(=O)c1c([H])c(N([H])S(=O)(=O)c2c([H])c([H])c(C(C([H])([H])[H])(C([H])([H])[H])C([H])([H])[H])c([H])c2[H])c([H])c([H])c1F


 26 27  0  0  0  0  0  0  0  0999 V2000
  -88.4069   30.0610   -2.6809 S   0  0  0  0  0  0  0  0  0  0  0  0
  -88.4114   28.6605   -3.2779 O   0  0  0  0  0  0  0  0  0  0  0  0
  -89.8293   30.2347   -2.1605 O   0  0  0  0  0  0  0  0  0  0  0  0
  -85.4955   29.9994    0.8699 C   0  0  0  0  0  0  0  0  0  0  0  0
  -85.8085   28.8812    0.1000 C   0  0  0  0  0  0  0  0  0  0  0  0
  -86.6825   28.9276   -0.9506 C   0  0  0  0  0  0  0  0  0  0  0  0
  -87.3269   30.1274   -1.3191 C   0  0  0  0  0  0  0  0  0  0  0  0
  -87.0207   31.2250   -0.5625 C   0  0  0  0  0  0  0  0  0  0  0  0
  -86.1252   31.1749    0.5116 C   0  0  0  0  0  0  0  0  0  0  0  0
  -84.8866   30.8950    3.0557 C   0  0  0  0  0  0  0  0  0  0  0  0
  -84.5177   29.8851    1.9758 C   0  0  0  0  0  0  0  0  0  0  0  0
  -84.5178   28.4870    2.5849 C   0  0  0  0  0  0  0  0  0  0  0  0
  -83.1233   30.1822    1.5104 C   0  0  0  0  0  0  0  0  0  0  0  0
  -88.0816   31.2379   -3.8264 N   0  0  0  0  0  0  0  0  0  0  0  0
  -87.8626   30.8831   -4.8245 H   0  0  0  0  0  0  0  0  0  0  0  0
  -88.0428   32.6324   -3.6786 C   0  0  0  0  0  0  0  0  0  0  0  0
  -87.0675   33.3879   -3.0994 C   0  0  0  0  0  0  0  0  0  0  0  0
  -87.1362   34.7694   -2.9866 C   0  0  0  0  0  0  0  0  0  0  0  0
  -88.2420   35.4120   -3.4860 C   0  0  0  0  0  0  0  0  0  0  0  0
  -88.4114   36.7610   -3.4304 F   0  0  0  0  0  0  0  0  0  0  0  0
  -89.2733   34.6999   -4.0945 C   0  0  0  0  0  0  0  0  0  0  0  0
  -89.1704   33.3440   -4.1847 C   0  0  0  0  0  0  0  0  0  0  0  0
  -90.4661   35.3653   -4.6348 C   0  0  0  0  0  0  0  0  0  0  0  0
  -90.5562   35.4275   -6.0420 O   0  0  0  0  0  0  0  0  0  0  0  0
  -91.3518   35.8514   -3.9402 O   0  0  0  0  0  0  0  0  0  0  0  0
  -89.8972   36.0346   -6.5604 H   0  0  0  0  0  0  0  0  0  0  0  0
 10 11  1  0  0  0
 11 12  1  0  0  0
 11 13  1  0  0  0
 11  4  1  0  0  0
  4  5  2  0  0  0
  5  6  1  0  0  0
  6  7  2  0  0  0
  7  8  1  0  0  0
  8  9  2  0  0  0
  7  1  1  0  0  0
  1  2  2  0  0  0
  1  3  2  0  0  0
  1 14  1  0  0  0
 14 16  1  0  0  0
 16 17  2  0  0  0
 17 18  1  0  0  0
 18 19  2  0  0  0
 19 20  1  0  0  0
 19 21  1  0  0  0
 21 22  2  0  0  0
 21 23  1  0  0  0
 23 24  1  0  0  0
 23 25  2  0  0  0
  9  4  1  0  0  0
 22 16  1  0  0  0
 14 15  1  0  0  0
 24 26  1  0  0  0
M  END
> <minimizedAffinity>
-8.05372

> <CNNscore>
0.1886700839

> <CNNaffinity>
5.2714815140

> <CNN_VS>
0.9945708513

> <CNNaffinity_variance>
0.2524728179

$$$$
[H]OC(=O)c1c([H])c(N([H])S(=O)(=O)c2c([H])c([H])c(C(C([H])([H])[H])(C([H])([H])[H])C([H])([H])[H])c([H])c2[H])c([H])c([H])c1F


 26 27  0  0  0  0  0  0  0  0999 V2000
  -88.4065   29.1909   -2.5198 S   0  0  0  0  0  0  0  0  0  0  0  0
  -89.7278   29.9319   -2.3691 O   0  0  0  0  0  0  0  0  0  0  0  0
  -87.9021   29.6299   -3.8898 O   0  0  0  0  0  0  0  0  0  0  0  0
  -85.3113   30.4293    0.6385 C   0  0  0  0  0  0  0  0  0  0  0  0
  -85.4972   29.1194    0.2020 C   0  0  0  0  0  0  0  0  0  0  0  0
  -86.4297   28.7783   -0.7382 C   0  0  0  0  0  0  0  0  0  0  0  0
  -87.2691   29.7473   -1.3272 C   0  0  0  0  0  0  0  0  0  0  0  0
  -87.0876   31.0332   -0.8978 C   0  0  0  0  0  0  0  0  0  0  0  0
  -86.1320   31.3797    0.0639 C   0  0  0  0  0  0  0  0  0  0  0  0
  -83.5040   29.4494    1.9514 C   0  0  0  0  0  0  0  0  0  0  0  0
  -84.2628   30.7333    1.6387 C   0  0  0  0  0  0  0  0  0  0  0  0
  -83.2780   31.7770    1.1223 C   0  0  0  0  0  0  0  0  0  0  0  0
  -84.8541   31.2531    2.9151 C   0  0  0  0  0  0  0  0  0  0  0  0
  -88.6057   27.5286   -2.5021 N   0  0  0  0  0  0  0  0  0  0  0  0
  -87.9859   26.9676   -3.1884 H   0  0  0  0  0  0  0  0  0  0  0  0
  -89.4743   26.7480   -1.7248 C   0  0  0  0  0  0  0  0  0  0  0  0
  -89.6009   26.7322   -0.3679 C   0  0  0  0  0  0  0  0  0  0  0  0
  -90.4840   25.9020    0.3081 C   0  0  0  0  0  0  0  0  0  0  0  0
  -91.2748   25.0528   -0.4258 C   0  0  0  0  0  0  0  0  0  0  0  0
  -92.1748   24.1990    0.1334 F   0  0  0  0  0  0  0  0  0  0  0  0
  -91.1988   25.0219   -1.8166 C   0  0  0  0  0  0  0  0  0  0  0  0
  -90.3178   25.8509   -2.4442 C   0  0  0  0  0  0  0  0  0  0  0  0
  -92.0337   24.1213   -2.6225 C   0  0  0  0  0  0  0  0  0  0  0  0
  -91.5545   22.8022   -2.7729 O   0  0  0  0  0  0  0  0  0  0  0  0
  -93.0883   24.4560   -3.1505 O   0  0  0  0  0  0  0  0  0  0  0  0
  -90.7059   22.6387   -3.3428 H   0  0  0  0  0  0  0  0  0  0  0  0
 10 11  1  0  0  0
 11 12  1  0  0  0
 11 13  1  0  0  0
 11  4  1  0  0  0
  4  5  2  0  0  0
  5  6  1  0  0  0
  6  7  2  0  0  0
  7  8  1  0  0  0
  8  9  2  0  0  0
  7  1  1  0  0  0
  1  2  2  0  0  0
  1  3  2  0  0  0
  1 14  1  0  0  0
 14 16  1  0  0  0
 16 17  2  0  0  0
 17 18  1  0  0  0
 18 19  2  0  0  0
 19 20  1  0  0  0
 19 21  1  0  0  0
 21 22  2  0  0  0
 21 23  1  0  0  0
 23 24  1  0  0  0
 23 25  2  0  0  0
  9  4  1  0  0  0
 22 16  1  0  0  0
 14 15  1  0  0  0
 24 26  1  0  0  0
M  END
> <minimizedAffinity>
-8.27842

> <CNNscore>
0.1654420942

> <CNNaffinity>
5.2840375900

> <CNN_VS>
0.8742022514

> <CNNaffinity_variance>
0.3034616709

$$$$
[H]OC(=O)c1c([H])c(N([H])S(=O)(=O)c2c([H])c([H])c(C(C([H])([H])[H])(C([H])([H])[H])C([H])([H])[H])c([H])c2[H])c([H])c([H])c1F


 26 27  0  0  0  0  0  0  0  0999 V2000
  -88.7968   26.7223    1.0602 S   0  0  0  0  0  0  0  0  0  0  0  0
  -89.4014   26.4900    2.4380 O   0  0  0  0  0  0  0  0  0  0  0  0
  -89.8316   27.5919    0.3553 O   0  0  0  0  0  0  0  0  0  0  0  0
  -85.0333   29.3420    1.3078 C   0  0  0  0  0  0  0  0  0  0  0  0
  -86.1913   29.7053    0.6238 C   0  0  0  0  0  0  0  0  0  0  0  0
  -87.2972   28.9032    0.5635 C   0  0  0  0  0  0  0  0  0  0  0  0
  -87.3282   27.6439    1.1989 C   0  0  0  0  0  0  0  0  0  0  0  0
  -86.1908   27.2866    1.8694 C   0  0  0  0  0  0  0  0  0  0  0  0
  -85.0608   28.1097    1.9302 C   0  0  0  0  0  0  0  0  0  0  0  0
  -83.6353   30.8135   -0.0453 C   0  0  0  0  0  0  0  0  0  0  0  0
  -83.8819   30.2716    1.3574 C   0  0  0  0  0  0  0  0  0  0  0  0
  -84.1429   31.4409    2.3010 C   0  0  0  0  0  0  0  0  0  0  0  0
  -82.6349   29.5788    1.8200 C   0  0  0  0  0  0  0  0  0  0  0  0
  -88.5906   25.2952    0.2091 N   0  0  0  0  0  0  0  0  0  0  0  0
  -87.5753   24.9309    0.1295 H   0  0  0  0  0  0  0  0  0  0  0  0
  -89.5513   24.4976   -0.4303 C   0  0  0  0  0  0  0  0  0  0  0  0
  -89.7370   24.3184   -1.7685 C   0  0  0  0  0  0  0  0  0  0  0  0
  -90.7367   23.5165   -2.3011 C   0  0  0  0  0  0  0  0  0  0  0  0
  -91.5829   22.8662   -1.4373 C   0  0  0  0  0  0  0  0  0  0  0  0
  -92.5945   22.0553   -1.8505 F   0  0  0  0  0  0  0  0  0  0  0  0
  -91.4453   23.0024   -0.0576 C   0  0  0  0  0  0  0  0  0  0  0  0
  -90.4526   23.8003    0.4273 C   0  0  0  0  0  0  0  0  0  0  0  0
  -92.3391   22.3176    0.8856 C   0  0  0  0  0  0  0  0  0  0  0  0
  -93.4622   23.0540    1.3198 O   0  0  0  0  0  0  0  0  0  0  0  0
  -92.1557   21.1771    1.2965 O   0  0  0  0  0  0  0  0  0  0  0  0
  -93.3178   23.8696    1.9407 H   0  0  0  0  0  0  0  0  0  0  0  0
 10 11  1  0  0  0
 11 12  1  0  0  0
 11 13  1  0  0  0
 11  4  1  0  0  0
  4  5  2  0  0  0
  5  6  1  0  0  0
  6  7  2  0  0  0
  7  8  1  0  0  0
  8  9  2  0  0  0
  7  1  1  0  0  0
  1  2  2  0  0  0
  1  3  2  0  0  0
  1 14  1  0  0  0
 14 16  1  0  0  0
 16 17  2  0  0  0
 17 18  1  0  0  0
 18 19  2  0  0  0
 19 20  1  0  0  0
 19 21  1  0  0  0
 21 22  2  0  0  0
 21 23  1  0  0  0
 23 24  1  0  0  0
 23 25  2  0  0  0
  9  4  1  0  0  0
 22 16  1  0  0  0
 14 15  1  0  0  0
 24 26  1  0  0  0
M  END
> <minimizedAffinity>
-7.90614

> <CNNscore>
0.1476081163

> <CNNaffinity>
5.2159051895

> <CNN_VS>
0.7699099183

> <CNNaffinity_variance>
0.1952935755

$$$$
[H]OC(=O)c1c([H])c(N([H])S(=O)(=O)c2c([H])c([H])c(C(C([H])([H])[H])(C([H])([H])[H])C([H])([H])[H])c([H])c2[H])c([H])c([H])c1F


 26 27  0  0  0  0  0  0  0  0999 V2000
  -88.9290   26.9287    0.2544 S   0  0  0  0  0  0  0  0  0  0  0  0
  -89.0823   25.7066    1.1492 O   0  0  0  0  0  0  0  0  0  0  0  0
  -90.1078   27.8121    0.6469 O   0  0  0  0  0  0  0  0  0  0  0  0
  -85.1428   29.3656    1.1569 C   0  0  0  0  0  0  0  0  0  0  0  0
  -86.1193   29.7540    0.2423 C   0  0  0  0  0  0  0  0  0  0  0  0
  -87.2362   29.0064   -0.0095 C   0  0  0  0  0  0  0  0  0  0  0  0
  -87.4658   27.7812    0.6513 C   0  0  0  0  0  0  0  0  0  0  0  0
  -86.5065   27.3990    1.5483 C   0  0  0  0  0  0  0  0  0  0  0  0
  -85.3649   28.1665    1.8048 C   0  0  0  0  0  0  0  0  0  0  0  0
  -83.5636   30.8847    0.0850 C   0  0  0  0  0  0  0  0  0  0  0  0
  -83.9719   30.2377    1.4029 C   0  0  0  0  0  0  0  0  0  0  0  0
  -84.2890   31.3335    2.4149 C   0  0  0  0  0  0  0  0  0  0  0  0
  -82.8034   29.4558    1.9249 C   0  0  0  0  0  0  0  0  0  0  0  0
  -89.0353   26.5420   -1.3712 N   0  0  0  0  0  0  0  0  0  0  0  0
  -88.1013   26.5149   -1.9161 H   0  0  0  0  0  0  0  0  0  0  0  0
  -90.1716   26.2526   -2.1412 C   0  0  0  0  0  0  0  0  0  0  0  0
  -90.8711   27.0940   -2.9538 C   0  0  0  0  0  0  0  0  0  0  0  0
  -92.0011   26.7095   -3.6618 C   0  0  0  0  0  0  0  0  0  0  0  0
  -92.4384   25.4135   -3.5416 C   0  0  0  0  0  0  0  0  0  0  0  0
  -93.5322   24.9303   -4.1910 F   0  0  0  0  0  0  0  0  0  0  0  0
  -91.7667   24.5007   -2.7312 C   0  0  0  0  0  0  0  0  0  0  0  0
  -90.6620   24.9165   -2.0502 C   0  0  0  0  0  0  0  0  0  0  0  0
  -92.2164   23.1099   -2.5862 C   0  0  0  0  0  0  0  0  0  0  0  0
  -92.7907   22.7716   -1.3420 O   0  0  0  0  0  0  0  0  0  0  0  0
  -92.1158   22.2632   -3.4672 O   0  0  0  0  0  0  0  0  0  0  0  0
  -92.1853   22.7367   -0.5031 H   0  0  0  0  0  0  0  0  0  0  0  0
 10 11  1  0  0  0
 11 12  1  0  0  0
 11 13  1  0  0  0
 11  4  1  0  0  0
  4  5  2  0  0  0
  5  6  1  0  0  0
  6  7  2  0  0  0
  7  8  1  0  0  0
  8  9  2  0  0  0
  7  1  1  0  0  0
  1  2  2  0  0  0
  1  3  2  0  0  0
  1 14  1  0  0  0
 14 16  1  0  0  0
 16 17  2  0  0  0
 17 18  1  0  0  0
 18 19  2  0  0  0
 19 20  1  0  0  0
 19 21  1  0  0  0
 21 22  2  0  0  0
 21 23  1  0  0  0
 23 24  1  0  0  0
 23 25  2  0  0  0
  9  4  1  0  0  0
 22 16  1  0  0  0
 14 15  1  0  0  0
 24 26  1  0  0  0
M  END
> <minimizedAffinity>
-7.72556

> <CNNscore>
0.1425394714

> <CNNaffinity>
4.9260435104

> <CNN_VS>
0.7021556497

> <CNNaffinity_variance>
0.2633694708

$$$$
[H]OC(=O)c1c([H])c(N([H])S(=O)(=O)c2c([H])c([H])c(C(C([H])([H])[H])(C([H])([H])[H])C([H])([H])[H])c([H])c2[H])c([H])c([H])c1F


 26 27  0  0  0  0  0  0  0  0999 V2000
  -88.6667   26.6532    0.6057 S   0  0  0  0  0  0  0  0  0  0  0  0
  -88.7524   25.8090    1.8697 O   0  0  0  0  0  0  0  0  0  0  0  0
  -89.9457   27.4822    0.6393 O   0  0  0  0  0  0  0  0  0  0  0  0
  -85.0724   29.4670    1.1078 C   0  0  0  0  0  0  0  0  0  0  0  0
  -85.6210   28.7122    2.1423 C   0  0  0  0  0  0  0  0  0  0  0  0
  -86.6947   27.8843    1.9650 C   0  0  0  0  0  0  0  0  0  0  0  0
  -87.3175   27.7464    0.7066 C   0  0  0  0  0  0  0  0  0  0  0  0
  -86.7799   28.4884   -0.3089 C   0  0  0  0  0  0  0  0  0  0  0  0
  -85.6805   29.3342   -0.1249 C   0  0  0  0  0  0  0  0  0  0  0  0
  -82.7639   29.4446    1.8955 C   0  0  0  0  0  0  0  0  0  0  0  0
  -83.8905   30.3215    1.3626 C   0  0  0  0  0  0  0  0  0  0  0  0
  -83.4159   31.0191    0.0923 C   0  0  0  0  0  0  0  0  0  0  0  0
  -84.1861   31.3795    2.3835 C   0  0  0  0  0  0  0  0  0  0  0  0
  -88.6421   25.7169   -0.7821 N   0  0  0  0  0  0  0  0  0  0  0  0
  -87.6725   25.5657   -1.2372 H   0  0  0  0  0  0  0  0  0  0  0  0
  -89.7075   25.0991   -1.4538 C   0  0  0  0  0  0  0  0  0  0  0  0
  -90.0477   23.7793   -1.4527 C   0  0  0  0  0  0  0  0  0  0  0  0
  -91.1171   23.2648   -2.1721 C   0  0  0  0  0  0  0  0  0  0  0  0
  -91.8759   24.1282   -2.9230 C   0  0  0  0  0  0  0  0  0  0  0  0
  -92.9462   23.7320   -3.6640 F   0  0  0  0  0  0  0  0  0  0  0  0
  -91.5854   25.4902   -2.9645 C   0  0  0  0  0  0  0  0  0  0  0  0
  -90.5258   25.9574   -2.2461 C   0  0  0  0  0  0  0  0  0  0  0  0
  -92.3820   26.4325   -3.7614 C   0  0  0  0  0  0  0  0  0  0  0  0
  -91.7419   26.9808   -4.8937 O   0  0  0  0  0  0  0  0  0  0  0  0
  -93.5350   26.7510   -3.4928 O   0  0  0  0  0  0  0  0  0  0  0  0
  -90.9628   27.6482   -4.7554 H   0  0  0  0  0  0  0  0  0  0  0  0
 10 11  1  0  0  0
 11 12  1  0  0  0
 11 13  1  0  0  0
 11  4  1  0  0  0
  4  5  2  0  0  0
  5  6  1  0  0  0
  6  7  2  0  0  0
  7  8  1  0  0  0
  8  9  2  0  0  0
  7  1  1  0  0  0
  1  2  2  0  0  0
  1  3  2  0  0  0
  1 14  1  0  0  0
 14 16  1  0  0  0
 16 17  2  0  0  0
 17 18  1  0  0  0
 18 19  2  0  0  0
 19 20  1  0  0  0
 19 21  1  0  0  0
 21 22  2  0  0  0
 21 23  1  0  0  0
 23 24  1  0  0  0
 23 25  2  0  0  0
  9  4  1  0  0  0
 22 16  1  0  0  0
 14 15  1  0  0  0
 24 26  1  0  0  0
M  END
> <minimizedAffinity>
-8.02691

> <CNNscore>
0.1403414607

> <CNNaffinity>
4.9076080322

> <CNN_VS>
0.6887409091

> <CNNaffinity_variance>
0.3439126015

$$$$
[H]OC(=O)c1c([H])c(N([H])S(=O)(=O)c2c([H])c([H])c(C(C([H])([H])[H])(C([H])([H])[H])C([H])([H])[H])c([H])c2[H])c([H])c([H])c1F


 26 27  0  0  0  0  0  0  0  0999 V2000
  -88.6174   28.5629   -1.3524 S   0  0  0  0  0  0  0  0  0  0  0  0
  -89.0295   27.8358   -2.6249 O   0  0  0  0  0  0  0  0  0  0  0  0
  -89.5426   29.7739   -1.3144 O   0  0  0  0  0  0  0  0  0  0  0  0
  -89.7007   26.1383    2.3941 C   0  0  0  0  0  0  0  0  0  0  0  0
  -90.1834   27.4178    2.1280 C   0  0  0  0  0  0  0  0  0  0  0  0
  -89.8411   28.1188    1.0050 C   0  0  0  0  0  0  0  0  0  0  0  0
  -88.9664   27.5788    0.0387 C   0  0  0  0  0  0  0  0  0  0  0  0
  -88.4913   26.3231    0.3004 C   0  0  0  0  0  0  0  0  0  0  0  0
  -88.8439   25.6076    1.4501 C   0  0  0  0  0  0  0  0  0  0  0  0
  -90.8749   26.4064    4.5154 C   0  0  0  0  0  0  0  0  0  0  0  0
  -90.1352   25.4236    3.6158 C   0  0  0  0  0  0  0  0  0  0  0  0
  -91.0633   24.2592    3.2866 C   0  0  0  0  0  0  0  0  0  0  0  0
  -88.9658   24.8763    4.3785 C   0  0  0  0  0  0  0  0  0  0  0  0
  -87.0245   29.0760   -1.4024 N   0  0  0  0  0  0  0  0  0  0  0  0
  -86.4552   28.7770   -2.2722 H   0  0  0  0  0  0  0  0  0  0  0  0
  -86.3089   29.8387   -0.4675 C   0  0  0  0  0  0  0  0  0  0  0  0
  -86.3205   31.1916   -0.3033 C   0  0  0  0  0  0  0  0  0  0  0  0
  -85.5549   31.8533    0.6464 C   0  0  0  0  0  0  0  0  0  0  0  0
  -84.7442   31.1086    1.4670 C   0  0  0  0  0  0  0  0  0  0  0  0
  -83.9543   31.6534    2.4318 F   0  0  0  0  0  0  0  0  0  0  0  0
  -84.6885   29.7210    1.3552 C   0  0  0  0  0  0  0  0  0  0  0  0
  -85.4538   29.1076    0.4090 C   0  0  0  0  0  0  0  0  0  0  0  0
  -83.8281   28.9038    2.2210 C   0  0  0  0  0  0  0  0  0  0  0  0
  -82.4376   29.0520    2.0291 O   0  0  0  0  0  0  0  0  0  0  0  0
  -84.2521   28.1271    3.0696 O   0  0  0  0  0  0  0  0  0  0  0  0
  -82.0115   28.6987    1.1543 H   0  0  0  0  0  0  0  0  0  0  0  0
 10 11  1  0  0  0
 11 12  1  0  0  0
 11 13  1  0  0  0
 11  4  1  0  0  0
  4  5  2  0  0  0
  5  6  1  0  0  0
  6  7  2  0  0  0
  7  8  1  0  0  0
  8  9  2  0  0  0
  7  1  1  0  0  0
  1  2  2  0  0  0
  1  3  2  0  0  0
  1 14  1  0  0  0
 14 16  1  0  0  0
 16 17  2  0  0  0
 17 18  1  0  0  0
 18 19  2  0  0  0
 19 20  1  0  0  0
 19 21  1  0  0  0
 21 22  2  0  0  0
 21 23  1  0  0  0
 23 24  1  0  0  0
 23 25  2  0  0  0
  9  4  1  0  0  0
 22 16  1  0  0  0
 14 15  1  0  0  0
 24 26  1  0  0  0
M  END
> <minimizedAffinity>
-8.01965

> <CNNscore>
0.1373542100

> <CNNaffinity>
5.4216566086

> <CNN_VS>
0.7446873784

> <CNNaffinity_variance>
0.2458814830

$$$$
[H]ON([H])C(=O)C([H])([H])C([H])([H])C([H])([H])C([H])([H])C([H])([H])C([H])([H])C(=O)N([H])c1c([H])c([H])c([H])c(-c2c([H])nnn2C([H])([H])c2c([H])c([H])c(F)c([H])c2[H])c1[H]


 35 37  0  0  0  0  0  0  0  0999 V2000
  -87.4040   31.3856   -0.4785 C   0  0  0  0  0  0  0  0  0  0  0  0
  -88.4347   32.2523   -0.7019 C   0  0  0  0  0  0  0  0  0  0  0  0
  -89.7145   31.7264   -0.9089 C   0  0  0  0  0  0  0  0  0  0  0  0
  -89.9209   30.3491   -0.8857 C   0  0  0  0  0  0  0  0  0  0  0  0
  -88.9151   29.4630   -0.6652 C   0  0  0  0  0  0  0  0  0  0  0  0
  -87.6663   30.0092   -0.4654 C   0  0  0  0  0  0  0  0  0  0  0  0
  -89.0448   27.9943   -0.5347 C   0  0  0  0  0  0  0  0  0  0  0  0
  -88.1375   27.1204   -1.1691 C   0  0  0  0  0  0  0  0  0  0  0  0
  -88.5014   25.8952   -0.8155 N   0  0  0  0  0  0  0  0  0  0  0  0
  -89.5248   25.9417   -0.0400 N   0  0  0  0  0  0  0  0  0  0  0  0
  -89.8749   27.2289    0.1474 N   0  0  0  0  0  0  0  0  0  0  0  0
  -90.9419   27.5466    1.0445 C   0  0  0  0  0  0  0  0  0  0  0  0
  -90.6327   27.2829    2.4665 C   0  0  0  0  0  0  0  0  0  0  0  0
  -90.6434   26.0123    3.0077 C   0  0  0  0  0  0  0  0  0  0  0  0
  -90.3678   25.7578    4.3244 C   0  0  0  0  0  0  0  0  0  0  0  0
  -90.0610   26.7939    5.1806 C   0  0  0  0  0  0  0  0  0  0  0  0
  -89.7863   26.5607    6.4858 F   0  0  0  0  0  0  0  0  0  0  0  0
  -90.0440   28.0697    4.6642 C   0  0  0  0  0  0  0  0  0  0  0  0
  -90.3294   28.3109    3.3116 C   0  0  0  0  0  0  0  0  0  0  0  0
  -85.4180   32.9206   -0.8298 C   0  0  0  0  0  0  0  0  0  0  0  0
  -85.8345   33.6933   -1.7166 O   0  0  0  0  0  0  0  0  0  0  0  0
  -86.0971   31.8596   -0.2396 N   0  0  0  0  0  0  0  0  0  0  0  0
  -85.5438   31.3204    0.5054 H   0  0  0  0  0  0  0  0  0  0  0  0
  -84.0056   33.2090   -0.3736 C   0  0  0  0  0  0  0  0  0  0  0  0
  -83.1928   31.9438   -0.2658 C   0  0  0  0  0  0  0  0  0  0  0  0
  -83.1758   31.5612    1.1995 C   0  0  0  0  0  0  0  0  0  0  0  0
  -82.8796   30.0746    1.3410 C   0  0  0  0  0  0  0  0  0  0  0  0
  -83.8469   29.4137    2.2854 C   0  0  0  0  0  0  0  0  0  0  0  0
  -85.1344   29.0260    1.5903 C   0  0  0  0  0  0  0  0  0  0  0  0
  -87.2439   25.9726    2.2269 O   0  0  0  0  0  0  0  0  0  0  0  0
  -86.9016   27.2254    1.8777 N   0  0  0  0  0  0  0  0  0  0  0  0
  -85.5503   27.6421    1.9698 C   0  0  0  0  0  0  0  0  0  0  0  0
  -84.6821   26.8336    2.3782 O   0  0  0  0  0  0  0  0  0  0  0  0
  -88.0802   25.6959    1.7620 H   0  0  0  0  0  0  0  0  0  0  0  0
  -87.6261   27.9013    1.5377 H   0  0  0  0  0  0  0  0  0  0  0  0
 30 31  1  0  0  0
 31 32  1  0  0  0
 32 33  2  0  0  0
 32 29  1  0  0  0
 29 28  1  0  0  0
 28 27  1  0  0  0
 27 26  1  0  0  0
 26 25  1  0  0  0
 25 24  1  0  0  0
 24 20  1  0  0  0
 20 21  2  0  0  0
 20 22  1  0  0  0
 22  1  1  0  0  0
  1  2  2  0  0  0
  2  3  1  0  0  0
  3  4  2  0  0  0
  4  5  1  0  0  0
  5  6  2  0  0  0
  5  7  1  0  0  0
  7  8  2  0  0  0
  8  9  1  0  0  0
  9 10  2  0  0  0
 10 11  1  0  0  0
 11 12  1  0  0  0
 12 13  1  0  0  0
 13 14  2  0  0  0
 14 15  1  0  0  0
 15 16  2  0  0  0
 16 17  1  0  0  0
 16 18  1  0  0  0
 18 19  2  0  0  0
  6  1  1  0  0  0
 11  7  1  0  0  0
 19 13  1  0  0  0
 30 34  1  0  0  0
 31 35  1  0  0  0
 22 23  1  0  0  0
M  END
> <minimizedAffinity>
-9.15820

> <CNNscore>
0.5556905866

> <CNNaffinity>
6.8664565086

> <CNN_VS>
3.8156251907

> <CNNaffinity_variance>
0.4491469264

$$$$
[H]ON([H])C(=O)C([H])([H])C([H])([H])C([H])([H])C([H])([H])C([H])([H])C([H])([H])C(=O)N([H])c1c([H])c([H])c([H])c(-c2c([H])nnn2C([H])([H])c2c([H])c([H])c(F)c([H])c2[H])c1[H]


 35 37  0  0  0  0  0  0  0  0999 V2000
  -85.0656   32.1553   -0.0690 C   0  0  0  0  0  0  0  0  0  0  0  0
  -83.8401   32.7168   -0.2845 C   0  0  0  0  0  0  0  0  0  0  0  0
  -82.7042   32.0222    0.1452 C   0  0  0  0  0  0  0  0  0  0  0  0
  -82.8322   30.7876    0.7770 C   0  0  0  0  0  0  0  0  0  0  0  0
  -84.0378   30.2043    1.0041 C   0  0  0  0  0  0  0  0  0  0  0  0
  -85.1382   30.9110    0.5712 C   0  0  0  0  0  0  0  0  0  0  0  0
  -84.2748   28.8635    1.5849 C   0  0  0  0  0  0  0  0  0  0  0  0
  -83.4081   28.3242    2.5582 C   0  0  0  0  0  0  0  0  0  0  0  0
  -83.9235   27.1503    2.8972 N   0  0  0  0  0  0  0  0  0  0  0  0
  -85.0020   26.9302    2.2342 N   0  0  0  0  0  0  0  0  0  0  0  0
  -85.2374   27.9769    1.4197 N   0  0  0  0  0  0  0  0  0  0  0  0
  -86.4320   28.0053    0.6346 C   0  0  0  0  0  0  0  0  0  0  0  0
  -87.5826   27.3205    1.2626 C   0  0  0  0  0  0  0  0  0  0  0  0
  -88.1664   27.7659    2.4323 C   0  0  0  0  0  0  0  0  0  0  0  0
  -89.2257   27.1347    3.0272 C   0  0  0  0  0  0  0  0  0  0  0  0
  -89.7616   25.9979    2.4606 C   0  0  0  0  0  0  0  0  0  0  0  0
  -90.8088   25.3603    3.0353 F   0  0  0  0  0  0  0  0  0  0  0  0
  -89.1965   25.5345    1.2941 C   0  0  0  0  0  0  0  0  0  0  0  0
  -88.1107   26.1951    0.6992 C   0  0  0  0  0  0  0  0  0  0  0  0
  -87.2112   32.3631   -1.4022 C   0  0  0  0  0  0  0  0  0  0  0  0
  -87.2380   31.2852   -2.0300 O   0  0  0  0  0  0  0  0  0  0  0  0
  -86.2439   32.7985   -0.5021 N   0  0  0  0  0  0  0  0  0  0  0  0
  -86.4186   33.7683   -0.0769 H   0  0  0  0  0  0  0  0  0  0  0  0
  -88.3876   33.2704   -1.6832 C   0  0  0  0  0  0  0  0  0  0  0  0
  -88.1659   34.0889   -2.9298 C   0  0  0  0  0  0  0  0  0  0  0  0
  -89.4913   34.7420   -3.2626 C   0  0  0  0  0  0  0  0  0  0  0  0
  -89.2494   36.0758   -3.9554 C   0  0  0  0  0  0  0  0  0  0  0  0
  -88.9754   35.8859   -5.4229 C   0  0  0  0  0  0  0  0  0  0  0  0
  -90.1995   36.1754   -6.2648 C   0  0  0  0  0  0  0  0  0  0  0  0
  -91.1637   33.7686   -8.9955 O   0  0  0  0  0  0  0  0  0  0  0  0
  -90.7422   34.8916   -8.3874 N   0  0  0  0  0  0  0  0  0  0  0  0
  -90.6633   34.9445   -6.9735 C   0  0  0  0  0  0  0  0  0  0  0  0
  -90.9892   33.9377   -6.2995 O   0  0  0  0  0  0  0  0  0  0  0  0
  -90.8081   33.7191   -9.9245 H   0  0  0  0  0  0  0  0  0  0  0  0
  -90.4710   35.7330   -8.9495 H   0  0  0  0  0  0  0  0  0  0  0  0
 30 31  1  0  0  0
 31 32  1  0  0  0
 32 33  2  0  0  0
 32 29  1  0  0  0
 29 28  1  0  0  0
 28 27  1  0  0  0
 27 26  1  0  0  0
 26 25  1  0  0  0
 25 24  1  0  0  0
 24 20  1  0  0  0
 20 21  2  0  0  0
 20 22  1  0  0  0
 22  1  1  0  0  0
  1  2  2  0  0  0
  2  3  1  0  0  0
  3  4  2  0  0  0
  4  5  1  0  0  0
  5  6  2  0  0  0
  5  7  1  0  0  0
  7  8  2  0  0  0
  8  9  1  0  0  0
  9 10  2  0  0  0
 10 11  1  0  0  0
 11 12  1  0  0  0
 12 13  1  0  0  0
 13 14  2  0  0  0
 14 15  1  0  0  0
 15 16  2  0  0  0
 16 17  1  0  0  0
 16 18  1  0  0  0
 18 19  2  0  0  0
  6  1  1  0  0  0
 11  7  1  0  0  0
 19 13  1  0  0  0
 30 34  1  0  0  0
 31 35  1  0  0  0
 22 23  1  0  0  0
M  END
> <minimizedAffinity>
-8.16963

> <CNNscore>
0.4745607674

> <CNNaffinity>
6.8364791870

> <CNN_VS>
3.2443249226

> <CNNaffinity_variance>
0.1311276406

$$$$
[H]ON([H])C(=O)C([H])([H])C([H])([H])C([H])([H])C([H])([H])C([H])([H])C([H])([H])C(=O)N([H])c1c([H])c([H])c([H])c(-c2c([H])nnn2C([H])([H])c2c([H])c([H])c(F)c([H])c2[H])c1[H]


 35 37  0  0  0  0  0  0  0  0999 V2000
  -85.6016   28.1822    1.2569 C   0  0  0  0  0  0  0  0  0  0  0  0
  -84.7049   27.7186    2.1758 C   0  0  0  0  0  0  0  0  0  0  0  0
  -83.5910   28.5096    2.4776 C   0  0  0  0  0  0  0  0  0  0  0  0
  -83.4109   29.7394    1.8491 C   0  0  0  0  0  0  0  0  0  0  0  0
  -84.2865   30.2265    0.9318 C   0  0  0  0  0  0  0  0  0  0  0  0
  -85.3728   29.4263    0.6541 C   0  0  0  0  0  0  0  0  0  0  0  0
  -84.2320   31.5525    0.2760 C   0  0  0  0  0  0  0  0  0  0  0  0
  -83.0000   32.1656   -0.0332 C   0  0  0  0  0  0  0  0  0  0  0  0
  -83.3007   33.3018   -0.6475 N   0  0  0  0  0  0  0  0  0  0  0  0
  -84.5755   33.4337   -0.7394 N   0  0  0  0  0  0  0  0  0  0  0  0
  -85.1689   32.3632   -0.1768 N   0  0  0  0  0  0  0  0  0  0  0  0
  -86.5921   32.2373   -0.2279 C   0  0  0  0  0  0  0  0  0  0  0  0
  -87.1205   31.9086   -1.5696 C   0  0  0  0  0  0  0  0  0  0  0  0
  -87.4910   30.6280   -1.9307 C   0  0  0  0  0  0  0  0  0  0  0  0
  -87.9725   30.3108   -3.1725 C   0  0  0  0  0  0  0  0  0  0  0  0
  -88.1077   31.2898   -4.1337 C   0  0  0  0  0  0  0  0  0  0  0  0
  -88.5816   30.9941   -5.3672 F   0  0  0  0  0  0  0  0  0  0  0  0
  -87.7448   32.5742   -3.7972 C   0  0  0  0  0  0  0  0  0  0  0  0
  -87.2529   32.8800   -2.5191 C   0  0  0  0  0  0  0  0  0  0  0  0
  -87.9425   27.2894    1.6407 C   0  0  0  0  0  0  0  0  0  0  0  0
  -88.2410   27.7946    2.7418 O   0  0  0  0  0  0  0  0  0  0  0  0
  -86.7553   27.4390    0.9310 N   0  0  0  0  0  0  0  0  0  0  0  0
  -86.7096   26.9079   -0.0006 H   0  0  0  0  0  0  0  0  0  0  0  0
  -89.0280   26.4215    1.0452 C   0  0  0  0  0  0  0  0  0  0  0  0
  -90.3995   26.9057    1.4422 C   0  0  0  0  0  0  0  0  0  0  0  0
  -91.1411   27.2124    0.1578 C   0  0  0  0  0  0  0  0  0  0  0  0
  -90.9276   28.6701   -0.2256 C   0  0  0  0  0  0  0  0  0  0  0  0
  -92.0036   29.1508   -1.1613 C   0  0  0  0  0  0  0  0  0  0  0  0
  -91.4548   30.0916   -2.2123 C   0  0  0  0  0  0  0  0  0  0  0  0
  -92.0385   29.5420   -5.8914 O   0  0  0  0  0  0  0  0  0  0  0  0
  -92.0235   30.1394   -4.6867 N   0  0  0  0  0  0  0  0  0  0  0  0
  -91.4877   29.4585   -3.5652 C   0  0  0  0  0  0  0  0  0  0  0  0
  -91.0302   28.2991   -3.7084 O   0  0  0  0  0  0  0  0  0  0  0  0
  -92.0559   30.2220   -6.6190 H   0  0  0  0  0  0  0  0  0  0  0  0
  -92.4064   31.1070   -4.5661 H   0  0  0  0  0  0  0  0  0  0  0  0
 30 31  1  0  0  0
 31 32  1  0  0  0
 32 33  2  0  0  0
 32 29  1  0  0  0
 29 28  1  0  0  0
 28 27  1  0  0  0
 27 26  1  0  0  0
 26 25  1  0  0  0
 25 24  1  0  0  0
 24 20  1  0  0  0
 20 21  2  0  0  0
 20 22  1  0  0  0
 22  1  1  0  0  0
  1  2  2  0  0  0
  2  3  1  0  0  0
  3  4  2  0  0  0
  4  5  1  0  0  0
  5  6  2  0  0  0
  5  7  1  0  0  0
  7  8  2  0  0  0
  8  9  1  0  0  0
  9 10  2  0  0  0
 10 11  1  0  0  0
 11 12  1  0  0  0
 12 13  1  0  0  0
 13 14  2  0  0  0
 14 15  1  0  0  0
 15 16  2  0  0  0
 16 17  1  0  0  0
 16 18  1  0  0  0
 18 19  2  0  0  0
  6  1  1  0  0  0
 11  7  1  0  0  0
 19 13  1  0  0  0
 30 34  1  0  0  0
 31 35  1  0  0  0
 22 23  1  0  0  0
M  END
> <minimizedAffinity>
-8.55914

> <CNNscore>
0.4388904274

> <CNNaffinity>
6.8850493431

> <CNN_VS>
3.0217821598

> <CNNaffinity_variance>
0.2700617909

$$$$
[H]ON([H])C(=O)C([H])([H])C([H])([H])C([H])([H])C([H])([H])C([H])([H])C([H])([H])C(=O)N([H])c1c([H])c([H])c([H])c(-c2c([H])nnn2C([H])([H])c2c([H])c([H])c(F)c([H])c2[H])c1[H]


 35 37  0  0  0  0  0  0  0  0999 V2000
  -85.2810   32.2287   -0.1465 C   0  0  0  0  0  0  0  0  0  0  0  0
  -84.0803   32.8475   -0.3437 C   0  0  0  0  0  0  0  0  0  0  0  0
  -82.9192   32.2056    0.1005 C   0  0  0  0  0  0  0  0  0  0  0  0
  -82.9981   30.9647    0.7281 C   0  0  0  0  0  0  0  0  0  0  0  0
  -84.1782   30.3251    0.9371 C   0  0  0  0  0  0  0  0  0  0  0  0
  -85.3042   30.9808    0.4902 C   0  0  0  0  0  0  0  0  0  0  0  0
  -84.3604   28.9732    1.5119 C   0  0  0  0  0  0  0  0  0  0  0  0
  -83.4495   28.4496    2.4529 C   0  0  0  0  0  0  0  0  0  0  0  0
  -83.9219   27.2589    2.7961 N   0  0  0  0  0  0  0  0  0  0  0  0
  -85.0139   27.0149    2.1645 N   0  0  0  0  0  0  0  0  0  0  0  0
  -85.3030   28.0618    1.3677 N   0  0  0  0  0  0  0  0  0  0  0  0
  -86.5215   28.0641    0.6198 C   0  0  0  0  0  0  0  0  0  0  0  0
  -87.6253   27.3191    1.2634 C   0  0  0  0  0  0  0  0  0  0  0  0
  -88.1684   27.6937    2.4767 C   0  0  0  0  0  0  0  0  0  0  0  0
  -89.1837   27.0063    3.0858 C   0  0  0  0  0  0  0  0  0  0  0  0
  -89.7143   25.8822    2.4895 C   0  0  0  0  0  0  0  0  0  0  0  0
  -90.7183   25.1898    3.0778 F   0  0  0  0  0  0  0  0  0  0  0  0
  -89.1893   25.4891    1.2794 C   0  0  0  0  0  0  0  0  0  0  0  0
  -88.1482   26.2065    0.6705 C   0  0  0  0  0  0  0  0  0  0  0  0
  -86.8158   33.2975   -1.8571 C   0  0  0  0  0  0  0  0  0  0  0  0
  -86.1037   33.3078   -2.8816 O   0  0  0  0  0  0  0  0  0  0  0  0
  -86.4819   32.8174   -0.5949 N   0  0  0  0  0  0  0  0  0  0  0  0
  -87.2507   32.9115    0.1482 H   0  0  0  0  0  0  0  0  0  0  0  0
  -88.1946   33.8846   -2.0580 C   0  0  0  0  0  0  0  0  0  0  0  0
  -88.7017   33.6331   -3.4554 C   0  0  0  0  0  0  0  0  0  0  0  0
  -89.8215   34.6239   -3.6966 C   0  0  0  0  0  0  0  0  0  0  0  0
  -89.3453   35.7213   -4.6382 C   0  0  0  0  0  0  0  0  0  0  0  0
  -88.0616   35.3340   -5.3213 C   0  0  0  0  0  0  0  0  0  0  0  0
  -86.9697   36.3553   -5.0855 C   0  0  0  0  0  0  0  0  0  0  0  0
  -86.5373   38.1571   -8.3635 O   0  0  0  0  0  0  0  0  0  0  0  0
  -86.4987   37.1797   -7.4406 N   0  0  0  0  0  0  0  0  0  0  0  0
  -86.9966   37.4180   -6.1354 C   0  0  0  0  0  0  0  0  0  0  0  0
  -87.4710   38.5445   -5.8524 O   0  0  0  0  0  0  0  0  0  0  0  0
  -86.5418   37.7714   -9.2817 H   0  0  0  0  0  0  0  0  0  0  0  0
  -86.1017   36.2393   -7.6758 H   0  0  0  0  0  0  0  0  0  0  0  0
 30 31  1  0  0  0
 31 32  1  0  0  0
 32 33  2  0  0  0
 32 29  1  0  0  0
 29 28  1  0  0  0
 28 27  1  0  0  0
 27 26  1  0  0  0
 26 25  1  0  0  0
 25 24  1  0  0  0
 24 20  1  0  0  0
 20 21  2  0  0  0
 20 22  1  0  0  0
 22  1  1  0  0  0
  1  2  2  0  0  0
  2  3  1  0  0  0
  3  4  2  0  0  0
  4  5  1  0  0  0
  5  6  2  0  0  0
  5  7  1  0  0  0
  7  8  2  0  0  0
  8  9  1  0  0  0
  9 10  2  0  0  0
 10 11  1  0  0  0
 11 12  1  0  0  0
 12 13  1  0  0  0
 13 14  2  0  0  0
 14 15  1  0  0  0
 15 16  2  0  0  0
 16 17  1  0  0  0
 16 18  1  0  0  0
 18 19  2  0  0  0
  6  1  1  0  0  0
 11  7  1  0  0  0
 19 13  1  0  0  0
 30 34  1  0  0  0
 31 35  1  0  0  0
 22 23  1  0  0  0
M  END
> <minimizedAffinity>
-8.39178

> <CNNscore>
0.4294849932

> <CNNaffinity>
6.7517137527

> <CNN_VS>
2.8997597694

> <CNNaffinity_variance>
0.0126823541

$$$$
[H]ON([H])C(=O)C([H])([H])C([H])([H])C([H])([H])C([H])([H])C([H])([H])C([H])([H])C(=O)N([H])c1c([H])c([H])c([H])c(-c2c([H])nnn2C([H])([H])c2c([H])c([H])c(F)c([H])c2[H])c1[H]


 35 37  0  0  0  0  0  0  0  0999 V2000
  -86.1316   31.8927   -0.2946 C   0  0  0  0  0  0  0  0  0  0  0  0
  -85.0698   32.7453   -0.3905 C   0  0  0  0  0  0  0  0  0  0  0  0
  -83.8483   32.3536    0.1679 C   0  0  0  0  0  0  0  0  0  0  0  0
  -83.7295   31.1206    0.8047 C   0  0  0  0  0  0  0  0  0  0  0  0
  -84.7680   30.2518    0.9147 C   0  0  0  0  0  0  0  0  0  0  0  0
  -85.9580   30.6642    0.3565 C   0  0  0  0  0  0  0  0  0  0  0  0
  -84.7223   28.8892    1.4912 C   0  0  0  0  0  0  0  0  0  0  0  0
  -83.7177   28.5162    2.4083 C   0  0  0  0  0  0  0  0  0  0  0  0
  -83.9895   27.2670    2.7608 N   0  0  0  0  0  0  0  0  0  0  0  0
  -85.0452   26.8540    2.1559 N   0  0  0  0  0  0  0  0  0  0  0  0
  -85.5141   27.8413    1.3686 N   0  0  0  0  0  0  0  0  0  0  0  0
  -86.7362   27.6516    0.6512 C   0  0  0  0  0  0  0  0  0  0  0  0
  -87.8540   27.1581    1.4845 C   0  0  0  0  0  0  0  0  0  0  0  0
  -88.3160   27.8424    2.5917 C   0  0  0  0  0  0  0  0  0  0  0  0
  -89.3437   27.3903    3.3752 C   0  0  0  0  0  0  0  0  0  0  0  0
  -89.9711   26.1999    3.0757 C   0  0  0  0  0  0  0  0  0  0  0  0
  -90.9887   25.7373    3.8399 F   0  0  0  0  0  0  0  0  0  0  0  0
  -89.5281   25.4996    1.9765 C   0  0  0  0  0  0  0  0  0  0  0  0
  -88.4730   25.9790    1.1854 C   0  0  0  0  0  0  0  0  0  0  0  0
  -87.7173   32.4579   -2.1894 C   0  0  0  0  0  0  0  0  0  0  0  0
  -86.9645   32.4223   -3.1838 O   0  0  0  0  0  0  0  0  0  0  0  0
  -87.3807   32.2242   -0.8599 N   0  0  0  0  0  0  0  0  0  0  0  0
  -88.1906   32.3119   -0.1611 H   0  0  0  0  0  0  0  0  0  0  0  0
  -89.1541   32.7980   -2.5149 C   0  0  0  0  0  0  0  0  0  0  0  0
  -90.1142   31.9504   -1.7195 C   0  0  0  0  0  0  0  0  0  0  0  0
  -90.1173   30.5784   -2.3609 C   0  0  0  0  0  0  0  0  0  0  0  0
  -89.6561   29.5361   -1.3517 C   0  0  0  0  0  0  0  0  0  0  0  0
  -89.5082   28.1834   -1.9942 C   0  0  0  0  0  0  0  0  0  0  0  0
  -90.5602   27.2113   -1.5050 C   0  0  0  0  0  0  0  0  0  0  0  0
  -92.3826   24.5451   -3.4413 O   0  0  0  0  0  0  0  0  0  0  0  0
  -91.9105   25.2571   -2.4026 N   0  0  0  0  0  0  0  0  0  0  0  0
  -91.1015   26.3972   -2.6348 C   0  0  0  0  0  0  0  0  0  0  0  0
  -90.8325   26.7328   -3.8134 O   0  0  0  0  0  0  0  0  0  0  0  0
  -93.2103   24.0553   -3.1824 H   0  0  0  0  0  0  0  0  0  0  0  0
  -92.1338   24.9768   -1.4183 H   0  0  0  0  0  0  0  0  0  0  0  0
 30 31  1  0  0  0
 31 32  1  0  0  0
 32 33  2  0  0  0
 32 29  1  0  0  0
 29 28  1  0  0  0
 28 27  1  0  0  0
 27 26  1  0  0  0
 26 25  1  0  0  0
 25 24  1  0  0  0
 24 20  1  0  0  0
 20 21  2  0  0  0
 20 22  1  0  0  0
 22  1  1  0  0  0
  1  2  2  0  0  0
  2  3  1  0  0  0
  3  4  2  0  0  0
  4  5  1  0  0  0
  5  6  2  0  0  0
  5  7  1  0  0  0
  7  8  2  0  0  0
  8  9  1  0  0  0
  9 10  2  0  0  0
 10 11  1  0  0  0
 11 12  1  0  0  0
 12 13  1  0  0  0
 13 14  2  0  0  0
 14 15  1  0  0  0
 15 16  2  0  0  0
 16 17  1  0  0  0
 16 18  1  0  0  0
 18 19  2  0  0  0
  6  1  1  0  0  0
 11  7  1  0  0  0
 19 13  1  0  0  0
 30 34  1  0  0  0
 31 35  1  0  0  0
 22 23  1  0  0  0
M  END
> <minimizedAffinity>
-7.59253

> <CNNscore>
0.3414821029

> <CNNaffinity>
6.9716200829

> <CNN_VS>
2.3806834221

> <CNNaffinity_variance>
0.1254186928

$$$$
[H]ON([H])C(=O)C([H])([H])C([H])([H])C([H])([H])C([H])([H])C([H])([H])C([H])([H])C(=O)N([H])c1c([H])c([H])c([H])c(-c2c([H])nnn2C([H])([H])c2c([H])c([H])c(F)c([H])c2[H])c1[H]


 35 37  0  0  0  0  0  0  0  0999 V2000
  -85.4772   28.5506    1.9179 C   0  0  0  0  0  0  0  0  0  0  0  0
  -84.3601   27.9796    2.4560 C   0  0  0  0  0  0  0  0  0  0  0  0
  -83.1290   28.6167    2.2664 C   0  0  0  0  0  0  0  0  0  0  0  0
  -83.0563   29.8052    1.5438 C   0  0  0  0  0  0  0  0  0  0  0  0
  -84.1506   30.3967    0.9978 C   0  0  0  0  0  0  0  0  0  0  0  0
  -85.3484   29.7469    1.1998 C   0  0  0  0  0  0  0  0  0  0  0  0
  -84.1918   31.6970    0.2918 C   0  0  0  0  0  0  0  0  0  0  0  0
  -83.0075   32.3899   -0.0350 C   0  0  0  0  0  0  0  0  0  0  0  0
  -83.3888   33.4757   -0.6940 N   0  0  0  0  0  0  0  0  0  0  0  0
  -84.6692   33.5067   -0.7970 N   0  0  0  0  0  0  0  0  0  0  0  0
  -85.1839   32.4164   -0.1963 N   0  0  0  0  0  0  0  0  0  0  0  0
  -86.5931   32.1807   -0.2493 C   0  0  0  0  0  0  0  0  0  0  0  0
  -87.1030   31.8767   -1.6040 C   0  0  0  0  0  0  0  0  0  0  0  0
  -87.1343   32.8161   -2.6160 C   0  0  0  0  0  0  0  0  0  0  0  0
  -87.6126   32.5483   -3.8705 C   0  0  0  0  0  0  0  0  0  0  0  0
  -88.0939   31.2928   -4.1748 C   0  0  0  0  0  0  0  0  0  0  0  0
  -88.5712   31.0103   -5.4101 F   0  0  0  0  0  0  0  0  0  0  0  0
  -88.0730   30.3394   -3.1823 C   0  0  0  0  0  0  0  0  0  0  0  0
  -87.5790   30.6328   -1.9020 C   0  0  0  0  0  0  0  0  0  0  0  0
  -87.3273   26.8855    1.4396 C   0  0  0  0  0  0  0  0  0  0  0  0
  -86.8296   26.1913    0.5301 O   0  0  0  0  0  0  0  0  0  0  0  0
  -86.7483   27.9659    2.0974 N   0  0  0  0  0  0  0  0  0  0  0  0
  -87.3605   28.4240    2.8507 H   0  0  0  0  0  0  0  0  0  0  0  0
  -88.7234   26.4670    1.8418 C   0  0  0  0  0  0  0  0  0  0  0  0
  -89.7660   27.3669    1.2283 C   0  0  0  0  0  0  0  0  0  0  0  0
  -90.6313   26.4915    0.3460 C   0  0  0  0  0  0  0  0  0  0  0  0
  -90.0886   26.4963   -1.0764 C   0  0  0  0  0  0  0  0  0  0  0  0
  -89.7305   25.1062   -1.5278 C   0  0  0  0  0  0  0  0  0  0  0  0
  -90.8552   24.1258   -1.2730 C   0  0  0  0  0  0  0  0  0  0  0  0
  -88.5395   21.5099    0.1318 O   0  0  0  0  0  0  0  0  0  0  0  0
  -88.9872   22.6961   -0.3166 N   0  0  0  0  0  0  0  0  0  0  0  0
  -90.3243   22.8235   -0.7686 C   0  0  0  0  0  0  0  0  0  0  0  0
  -91.0810   21.8230   -0.7457 O   0  0  0  0  0  0  0  0  0  0  0  0
  -87.7754   21.6382    0.7576 H   0  0  0  0  0  0  0  0  0  0  0  0
  -88.3557   23.5316   -0.3371 H   0  0  0  0  0  0  0  0  0  0  0  0
 30 31  1  0  0  0
 31 32  1  0  0  0
 32 33  2  0  0  0
 32 29  1  0  0  0
 29 28  1  0  0  0
 28 27  1  0  0  0
 27 26  1  0  0  0
 26 25  1  0  0  0
 25 24  1  0  0  0
 24 20  1  0  0  0
 20 21  2  0  0  0
 20 22  1  0  0  0
 22  1  1  0  0  0
  1  2  2  0  0  0
  2  3  1  0  0  0
  3  4  2  0  0  0
  4  5  1  0  0  0
  5  6  2  0  0  0
  5  7  1  0  0  0
  7  8  2  0  0  0
  8  9  1  0  0  0
  9 10  2  0  0  0
 10 11  1  0  0  0
 11 12  1  0  0  0
 12 13  1  0  0  0
 13 14  2  0  0  0
 14 15  1  0  0  0
 15 16  2  0  0  0
 16 17  1  0  0  0
 16 18  1  0  0  0
 18 19  2  0  0  0
  6  1  1  0  0  0
 11  7  1  0  0  0
 19 13  1  0  0  0
 30 34  1  0  0  0
 31 35  1  0  0  0
 22 23  1  0  0  0
M  END
> <minimizedAffinity>
-9.41715

> <CNNscore>
0.3120648265

> <CNNaffinity>
6.6813416481

> <CNN_VS>
2.0850117207

> <CNNaffinity_variance>
0.3486186862

$$$$
[H]ON([H])C(=O)C([H])([H])C([H])([H])C([H])([H])C([H])([H])C([H])([H])C([H])([H])C(=O)N([H])c1c([H])c([H])c([H])c(-c2c([H])nnn2C([H])([H])c2c([H])c([H])c(F)c([H])c2[H])c1[H]


 35 37  0  0  0  0  0  0  0  0999 V2000
  -85.1196   32.1482    0.1212 C   0  0  0  0  0  0  0  0  0  0  0  0
  -84.0400   32.8597   -0.3167 C   0  0  0  0  0  0  0  0  0  0  0  0
  -82.7602   32.3820   -0.0145 C   0  0  0  0  0  0  0  0  0  0  0  0
  -82.6028   31.2072    0.7170 C   0  0  0  0  0  0  0  0  0  0  0  0
  -83.6580   30.4783    1.1650 C   0  0  0  0  0  0  0  0  0  0  0  0
  -84.9053   30.9728    0.8533 C   0  0  0  0  0  0  0  0  0  0  0  0
  -83.5974   29.1782    1.8702 C   0  0  0  0  0  0  0  0  0  0  0  0
  -82.3665   28.5333    2.1114 C   0  0  0  0  0  0  0  0  0  0  0  0
  -82.6567   27.4341    2.7940 N   0  0  0  0  0  0  0  0  0  0  0  0
  -83.9244   27.3525    2.9872 N   0  0  0  0  0  0  0  0  0  0  0  0
  -84.5232   28.4207    2.4262 N   0  0  0  0  0  0  0  0  0  0  0  0
  -85.9334   28.6003    2.5791 C   0  0  0  0  0  0  0  0  0  0  0  0
  -86.7422   27.9427    1.5299 C   0  0  0  0  0  0  0  0  0  0  0  0
  -87.6422   28.6326    0.7415 C   0  0  0  0  0  0  0  0  0  0  0  0
  -88.4025   28.0325   -0.2260 C   0  0  0  0  0  0  0  0  0  0  0  0
  -88.2915   26.6772   -0.4526 C   0  0  0  0  0  0  0  0  0  0  0  0
  -89.0360   26.0669   -1.4049 F   0  0  0  0  0  0  0  0  0  0  0  0
  -87.4008   25.9679    0.3209 C   0  0  0  0  0  0  0  0  0  0  0  0
  -86.6301   26.6006    1.3082 C   0  0  0  0  0  0  0  0  0  0  0  0
  -87.3815   31.9895   -1.0112 C   0  0  0  0  0  0  0  0  0  0  0  0
  -87.2641   30.9507   -1.6922 O   0  0  0  0  0  0  0  0  0  0  0  0
  -86.4331   32.5688   -0.1744 N   0  0  0  0  0  0  0  0  0  0  0  0
  -86.7463   33.4704    0.3164 H   0  0  0  0  0  0  0  0  0  0  0  0
  -88.7286   32.6637   -1.1412 C   0  0  0  0  0  0  0  0  0  0  0  0
  -89.8377   31.6534   -1.2903 C   0  0  0  0  0  0  0  0  0  0  0  0
  -90.4853   31.9135   -2.6344 C   0  0  0  0  0  0  0  0  0  0  0  0
  -89.9456   30.9321   -3.6655 C   0  0  0  0  0  0  0  0  0  0  0  0
  -89.4041   31.6514   -4.8713 C   0  0  0  0  0  0  0  0  0  0  0  0
  -87.9682   32.0852   -4.6686 C   0  0  0  0  0  0  0  0  0  0  0  0
  -86.6912   35.5507   -3.9348 O   0  0  0  0  0  0  0  0  0  0  0  0
  -86.7540   34.2083   -3.9858 N   0  0  0  0  0  0  0  0  0  0  0  0
  -87.8657   33.5739   -4.5941 C   0  0  0  0  0  0  0  0  0  0  0  0
  -88.7851   34.2748   -5.0816 O   0  0  0  0  0  0  0  0  0  0  0  0
  -85.7454   35.8543   -3.8622 H   0  0  0  0  0  0  0  0  0  0  0  0
  -85.9873   33.6225   -3.5781 H   0  0  0  0  0  0  0  0  0  0  0  0
 30 31  1  0  0  0
 31 32  1  0  0  0
 32 33  2  0  0  0
 32 29  1  0  0  0
 29 28  1  0  0  0
 28 27  1  0  0  0
 27 26  1  0  0  0
 26 25  1  0  0  0
 25 24  1  0  0  0
 24 20  1  0  0  0
 20 21  2  0  0  0
 20 22  1  0  0  0
 22  1  1  0  0  0
  1  2  2  0  0  0
  2  3  1  0  0  0
  3  4  2  0  0  0
  4  5  1  0  0  0
  5  6  2  0  0  0
  5  7  1  0  0  0
  7  8  2  0  0  0
  8  9  1  0  0  0
  9 10  2  0  0  0
 10 11  1  0  0  0
 11 12  1  0  0  0
 12 13  1  0  0  0
 13 14  2  0  0  0
 14 15  1  0  0  0
 15 16  2  0  0  0
 16 17  1  0  0  0
 16 18  1  0  0  0
 18 19  2  0  0  0
  6  1  1  0  0  0
 11  7  1  0  0  0
 19 13  1  0  0  0
 30 34  1  0  0  0
 31 35  1  0  0  0
 22 23  1  0  0  0
M  END
> <minimizedAffinity>
-8.77154

> <CNNscore>
0.3096815944

> <CNNaffinity>
6.7644834518

> <CNN_VS>
2.0948359966

> <CNNaffinity_variance>
0.3382116258

$$$$
[H]ON([H])C(=O)C([H])([H])C([H])([H])C([H])([H])C([H])([H])C([H])([H])C([H])([H])C(=O)N([H])c1c([H])c([H])c([H])c(-c2c([H])nnn2C([H])([H])c2c([H])c([H])c(F)c([H])c2[H])c1[H]


 35 37  0  0  0  0  0  0  0  0999 V2000
  -85.5537   28.6073    1.8623 C   0  0  0  0  0  0  0  0  0  0  0  0
  -84.4573   28.0310    2.4361 C   0  0  0  0  0  0  0  0  0  0  0  0
  -83.2164   28.6581    2.2796 C   0  0  0  0  0  0  0  0  0  0  0  0
  -83.1135   29.8420    1.5532 C   0  0  0  0  0  0  0  0  0  0  0  0
  -84.1868   30.4384    0.9720 C   0  0  0  0  0  0  0  0  0  0  0  0
  -85.3948   29.7986    1.1420 C   0  0  0  0  0  0  0  0  0  0  0  0
  -84.1974   31.7351    0.2581 C   0  0  0  0  0  0  0  0  0  0  0  0
  -82.9970   32.3947   -0.0787 C   0  0  0  0  0  0  0  0  0  0  0  0
  -83.3529   33.4861   -0.7426 N   0  0  0  0  0  0  0  0  0  0  0  0
  -84.6326   33.5500   -0.8395 N   0  0  0  0  0  0  0  0  0  0  0  0
  -85.1728   32.4773   -0.2296 N   0  0  0  0  0  0  0  0  0  0  0  0
  -86.5879   32.2784   -0.2743 C   0  0  0  0  0  0  0  0  0  0  0  0
  -87.1045   31.9207   -1.6132 C   0  0  0  0  0  0  0  0  0  0  0  0
  -87.5593   30.6537   -1.9217 C   0  0  0  0  0  0  0  0  0  0  0  0
  -88.0309   30.3092   -3.1600 C   0  0  0  0  0  0  0  0  0  0  0  0
  -88.0685   31.2450   -4.1717 C   0  0  0  0  0  0  0  0  0  0  0  0
  -88.5312   30.9219   -5.4026 F   0  0  0  0  0  0  0  0  0  0  0  0
  -87.6204   32.5152   -3.8882 C   0  0  0  0  0  0  0  0  0  0  0  0
  -87.1403   32.8494   -2.6127 C   0  0  0  0  0  0  0  0  0  0  0  0
  -87.6832   27.5060    1.0396 C   0  0  0  0  0  0  0  0  0  0  0  0
  -87.4839   27.4304   -0.1897 O   0  0  0  0  0  0  0  0  0  0  0  0
  -86.8339   28.0329    2.0073 N   0  0  0  0  0  0  0  0  0  0  0  0
  -87.2096   28.0001    3.0122 H   0  0  0  0  0  0  0  0  0  0  0  0
  -89.0158   26.9470    1.4844 C   0  0  0  0  0  0  0  0  0  0  0  0
  -89.4974   25.8646    0.5521 C   0  0  0  0  0  0  0  0  0  0  0  0
  -89.9891   24.7273    1.4231 C   0  0  0  0  0  0  0  0  0  0  0  0
  -89.9096   25.1291    2.8893 C   0  0  0  0  0  0  0  0  0  0  0  0
  -90.5082   24.0719    3.7773 C   0  0  0  0  0  0  0  0  0  0  0  0
  -90.6495   22.7479    3.0574 C   0  0  0  0  0  0  0  0  0  0  0  0
  -87.8954   21.1521    5.0691 O   0  0  0  0  0  0  0  0  0  0  0  0
  -88.7493   22.0813    4.6043 N   0  0  0  0  0  0  0  0  0  0  0  0
  -89.6862   21.7413    3.5969 C   0  0  0  0  0  0  0  0  0  0  0  0
  -89.7098   20.5706    3.1464 O   0  0  0  0  0  0  0  0  0  0  0  0
  -87.5945   21.3830    5.9901 H   0  0  0  0  0  0  0  0  0  0  0  0
  -88.7295   23.0593    4.9792 H   0  0  0  0  0  0  0  0  0  0  0  0
 30 31  1  0  0  0
 31 32  1  0  0  0
 32 33  2  0  0  0
 32 29  1  0  0  0
 29 28  1  0  0  0
 28 27  1  0  0  0
 27 26  1  0  0  0
 26 25  1  0  0  0
 25 24  1  0  0  0
 24 20  1  0  0  0
 20 21  2  0  0  0
 20 22  1  0  0  0
 22  1  1  0  0  0
  1  2  2  0  0  0
  2  3  1  0  0  0
  3  4  2  0  0  0
  4  5  1  0  0  0
  5  6  2  0  0  0
  5  7  1  0  0  0
  7  8  2  0  0  0
  8  9  1  0  0  0
  9 10  2  0  0  0
 10 11  1  0  0  0
 11 12  1  0  0  0
 12 13  1  0  0  0
 13 14  2  0  0  0
 14 15  1  0  0  0
 15 16  2  0  0  0
 16 17  1  0  0  0
 16 18  1  0  0  0
 18 19  2  0  0  0
  6  1  1  0  0  0
 11  7  1  0  0  0
 19 13  1  0  0  0
 30 34  1  0  0  0
 31 35  1  0  0  0
 22 23  1  0  0  0
M  END
> <minimizedAffinity>
-8.99875

> <CNNscore>
0.2787693143

> <CNNaffinity>
6.6488151550

> <CNN_VS>
1.8534855843

> <CNNaffinity_variance>
0.1110719442

$$$$
[H]ON([H])C(=O)C([H])([H])C([H])([H])C([H])([H])C([H])([H])C([H])([H])C([H])([H])C(=O)N([H])c1c([H])c([H])c([H])c(-c2c([H])nnn2C([H])([H])c2c([H])c([H])c(F)c([H])c2[H])c1[H]


 35 37  0  0  0  0  0  0  0  0999 V2000
  -85.2461   32.1764   -0.0250 C   0  0  0  0  0  0  0  0  0  0  0  0
  -84.1793   32.9226   -0.4359 C   0  0  0  0  0  0  0  0  0  0  0  0
  -82.8925   32.4828   -0.1070 C   0  0  0  0  0  0  0  0  0  0  0  0
  -82.7155   31.3100    0.6231 C   0  0  0  0  0  0  0  0  0  0  0  0
  -83.7575   30.5471    1.0445 C   0  0  0  0  0  0  0  0  0  0  0  0
  -85.0122   31.0047    0.7070 C   0  0  0  0  0  0  0  0  0  0  0  0
  -83.6729   29.2463    1.7458 C   0  0  0  0  0  0  0  0  0  0  0  0
  -82.4272   28.6705    2.0717 C   0  0  0  0  0  0  0  0  0  0  0  0
  -82.7018   27.5503    2.7262 N   0  0  0  0  0  0  0  0  0  0  0  0
  -83.9733   27.3947    2.8273 N   0  0  0  0  0  0  0  0  0  0  0  0
  -84.5909   28.4321    2.2299 N   0  0  0  0  0  0  0  0  0  0  0  0
  -86.0164   28.5295    2.2818 C   0  0  0  0  0  0  0  0  0  0  0  0
  -86.7136   27.7200    1.2591 C   0  0  0  0  0  0  0  0  0  0  0  0
  -86.7259   28.0608   -0.0793 C   0  0  0  0  0  0  0  0  0  0  0  0
  -87.3756   27.3240   -1.0328 C   0  0  0  0  0  0  0  0  0  0  0  0
  -88.0607   26.1817   -0.6777 C   0  0  0  0  0  0  0  0  0  0  0  0
  -88.7094   25.4411   -1.6073 F   0  0  0  0  0  0  0  0  0  0  0  0
  -88.0629   25.8214    0.6508 C   0  0  0  0  0  0  0  0  0  0  0  0
  -87.3912   26.5896    1.6140 C   0  0  0  0  0  0  0  0  0  0  0  0
  -87.1589   32.7233   -1.5953 C   0  0  0  0  0  0  0  0  0  0  0  0
  -86.6346   32.5645   -2.7163 O   0  0  0  0  0  0  0  0  0  0  0  0
  -86.5650   32.5580   -0.3482 N   0  0  0  0  0  0  0  0  0  0  0  0
  -87.2041   32.7524    0.4919 H   0  0  0  0  0  0  0  0  0  0  0  0
  -88.6104   33.1438   -1.6469 C   0  0  0  0  0  0  0  0  0  0  0  0
  -89.4180   32.4675   -0.5683 C   0  0  0  0  0  0  0  0  0  0  0  0
  -89.7844   31.0956   -1.0948 C   0  0  0  0  0  0  0  0  0  0  0  0
  -89.4949   30.0421   -0.0346 C   0  0  0  0  0  0  0  0  0  0  0  0
  -90.7586   29.5969    0.6506 C   0  0  0  0  0  0  0  0  0  0  0  0
  -90.6410   28.1853    1.1839 C   0  0  0  0  0  0  0  0  0  0  0  0
  -91.0866   26.9501    4.7130 O   0  0  0  0  0  0  0  0  0  0  0  0
  -90.7617   26.9661    3.4081 N   0  0  0  0  0  0  0  0  0  0  0  0
  -90.9898   28.1322    2.6357 C   0  0  0  0  0  0  0  0  0  0  0  0
  -91.4953   29.1433    3.1799 O   0  0  0  0  0  0  0  0  0  0  0  0
  -90.5400   26.2759    5.2014 H   0  0  0  0  0  0  0  0  0  0  0  0
  -90.3407   26.1219    2.9527 H   0  0  0  0  0  0  0  0  0  0  0  0
 30 31  1  0  0  0
 31 32  1  0  0  0
 32 33  2  0  0  0
 32 29  1  0  0  0
 29 28  1  0  0  0
 28 27  1  0  0  0
 27 26  1  0  0  0
 26 25  1  0  0  0
 25 24  1  0  0  0
 24 20  1  0  0  0
 20 21  2  0  0  0
 20 22  1  0  0  0
 22  1  1  0  0  0
  1  2  2  0  0  0
  2  3  1  0  0  0
  3  4  2  0  0  0
  4  5  1  0  0  0
  5  6  2  0  0  0
  5  7  1  0  0  0
  7  8  2  0  0  0
  8  9  1  0  0  0
  9 10  2  0  0  0
 10 11  1  0  0  0
 11 12  1  0  0  0
 12 13  1  0  0  0
 13 14  2  0  0  0
 14 15  1  0  0  0
 15 16  2  0  0  0
 16 17  1  0  0  0
 16 18  1  0  0  0
 18 19  2  0  0  0
  6  1  1  0  0  0
 11  7  1  0  0  0
 19 13  1  0  0  0
 30 34  1  0  0  0
 31 35  1  0  0  0
 22 23  1  0  0  0
M  END
> <minimizedAffinity>
-9.25778

> <CNNscore>
0.2513036132

> <CNNaffinity>
6.5992612839

> <CNN_VS>
1.6584181786

> <CNNaffinity_variance>
0.6273162961

$$$$
[H]O[C@@]1([H])C([H])([H])C([H])([H])[C@]2([H])[C@]1(C([H])([H])[H])C([H])([H])C([H])([H])[C@]1([H])[C@@]3(C([H])([H])[H])C(=C([H])C(=O)C([H])([H])C3([H])[H])C([H])([H])C([H])([H])[C@]12[H]


 22 25  0  0  0  0  0  0  0  0999 V2000
  -85.8971   32.5624   -2.6852 C   0  0  0  0  0  0  0  0  0  0  0  0
  -86.6821   32.9462   -1.4805 C   0  0  0  0  0  0  0  0  0  0  0  0
  -85.8591   33.4833   -0.3474 C   0  0  0  0  0  0  0  0  0  0  0  0
  -85.0502   32.3275    0.2028 C   0  0  0  0  0  0  0  0  0  0  0  0
  -85.9370   31.2427    0.7292 C   0  0  0  0  0  0  0  0  0  0  0  0
  -86.7445   30.6673   -0.4329 C   0  0  0  0  0  0  0  0  0  0  0  0
  -87.7483   29.6304    0.0747 C   0  0  0  0  0  0  0  0  0  0  0  0
  -87.1431   28.5545    0.8956 C   0  0  0  0  0  0  0  0  0  0  0  0
  -85.7969   28.8624    1.4166 C   0  0  0  0  0  0  0  0  0  0  0  0
  -85.0676   27.8265    1.8573 C   0  0  0  0  0  0  0  0  0  0  0  0
  -83.7289   28.0191    2.3899 C   0  0  0  0  0  0  0  0  0  0  0  0
  -83.2451   27.1847    3.1733 O   0  0  0  0  0  0  0  0  0  0  0  0
  -82.9649   29.2044    1.9907 C   0  0  0  0  0  0  0  0  0  0  0  0
  -83.7571   30.1097    1.0684 C   0  0  0  0  0  0  0  0  0  0  0  0
  -85.2014   30.1913    1.4942 C   0  0  0  0  0  0  0  0  0  0  0  0
  -85.2425   30.6180    2.9680 C   0  0  0  0  0  0  0  0  0  0  0  0
  -87.5476   31.8069   -0.9519 C   0  0  0  0  0  0  0  0  0  0  0  0
  -88.4106   31.5380   -2.1148 C   0  0  0  0  0  0  0  0  0  0  0  0
  -88.7131   32.9329   -2.6585 C   0  0  0  0  0  0  0  0  0  0  0  0
  -87.7921   33.8814   -1.9121 C   0  0  0  0  0  0  0  0  0  0  0  0
  -87.3509   34.9272   -2.6849 O   0  0  0  0  0  0  0  0  0  0  0  0
  -87.7266   34.9374   -3.6059 H   0  0  0  0  0  0  0  0  0  0  0  0
  2  1  1  0  0  0
  2  3  1  0  0  0
  3  4  1  0  0  0
  4  5  1  0  0  0
  5  6  1  0  0  0
  6  7  1  0  0  0
  7  8  1  0  0  0
  8  9  1  0  0  0
  9 10  2  0  0  0
 10 11  1  0  0  0
 11 12  2  0  0  0
 11 13  1  0  0  0
 13 14  1  0  0  0
 14 15  1  0  0  0
 15 16  1  0  0  0
  6 17  1  0  0  0
 17 18  1  0  0  0
 18 19  1  0  0  0
 19 20  1  0  0  0
 20 21  1  0  0  0
 17  2  1  0  0  0
 20  2  1  0  0  0
 15  5  1  0  0  0
 15  9  1  0  0  0
 21 22  1  0  0  0
M  END
> <minimizedAffinity>
-9.99992

> <CNNscore>
0.6260200143

> <CNNaffinity>
6.3895444870

> <CNN_VS>
3.9999828339

> <CNNaffinity_variance>
0.2515239120

$$$$
[H]O[C@@]1([H])C([H])([H])C([H])([H])[C@]2([H])[C@]1(C([H])([H])[H])C([H])([H])C([H])([H])[C@]1([H])[C@@]3(C([H])([H])[H])C(=C([H])C(=O)C([H])([H])C3([H])[H])C([H])([H])C([H])([H])[C@]12[H]


 22 25  0  0  0  0  0  0  0  0999 V2000
  -84.7123   29.3656    0.1671 C   0  0  0  0  0  0  0  0  0  0  0  0
  -85.7689   30.0622    0.9503 C   0  0  0  0  0  0  0  0  0  0  0  0
  -87.1565   29.5396    0.7244 C   0  0  0  0  0  0  0  0  0  0  0  0
  -87.5539   29.9249   -0.6850 C   0  0  0  0  0  0  0  0  0  0  0  0
  -87.5691   31.4112   -0.8606 C   0  0  0  0  0  0  0  0  0  0  0  0
  -86.1477   31.9382   -0.6720 C   0  0  0  0  0  0  0  0  0  0  0  0
  -86.1316   33.4668   -0.7310 C   0  0  0  0  0  0  0  0  0  0  0  0
  -86.7587   34.0313   -1.9500 C   0  0  0  0  0  0  0  0  0  0  0  0
  -87.6284   33.0923   -2.6849 C   0  0  0  0  0  0  0  0  0  0  0  0
  -87.9362   33.4168   -3.9495 C   0  0  0  0  0  0  0  0  0  0  0  0
  -88.7852   32.5614   -4.7622 C   0  0  0  0  0  0  0  0  0  0  0  0
  -89.4126   33.0394   -5.7224 O   0  0  0  0  0  0  0  0  0  0  0  0
  -88.8882   31.1370   -4.4333 C   0  0  0  0  0  0  0  0  0  0  0  0
  -88.0799   30.7758   -3.2028 C   0  0  0  0  0  0  0  0  0  0  0  0
  -88.1791   31.8520   -2.1511 C   0  0  0  0  0  0  0  0  0  0  0  0
  -89.6655   32.1056   -1.8645 C   0  0  0  0  0  0  0  0  0  0  0  0
  -85.7768   31.5701    0.7209 C   0  0  0  0  0  0  0  0  0  0  0  0
  -84.4218   31.9361    1.1676 C   0  0  0  0  0  0  0  0  0  0  0  0
  -84.2056   31.0530    2.3950 C   0  0  0  0  0  0  0  0  0  0  0  0
  -85.3585   30.0654    2.4079 C   0  0  0  0  0  0  0  0  0  0  0  0
  -85.0023   28.8239    2.8742 O   0  0  0  0  0  0  0  0  0  0  0  0
  -84.0557   28.7594    3.1732 H   0  0  0  0  0  0  0  0  0  0  0  0
  2  1  1  0  0  0
  2  3  1  0  0  0
  3  4  1  0  0  0
  4  5  1  0  0  0
  5  6  1  0  0  0
  6  7  1  0  0  0
  7  8  1  0  0  0
  8  9  1  0  0  0
  9 10  2  0  0  0
 10 11  1  0  0  0
 11 12  2  0  0  0
 11 13  1  0  0  0
 13 14  1  0  0  0
 14 15  1  0  0  0
 15 16  1  0  0  0
  6 17  1  0  0  0
 17 18  1  0  0  0
 18 19  1  0  0  0
 19 20  1  0  0  0
 20 21  1  0  0  0
 17  2  1  0  0  0
 20  2  1  0  0  0
 15  5  1  0  0  0
 15  9  1  0  0  0
 21 22  1  0  0  0
M  END
> <minimizedAffinity>
-8.86869

> <CNNscore>
0.5915265679

> <CNNaffinity>
6.0996041298

> <CNN_VS>
3.6080780029

> <CNNaffinity_variance>
0.1634071618

$$$$
[H]O[C@@]1([H])C([H])([H])C([H])([H])[C@]2([H])[C@]1(C([H])([H])[H])C([H])([H])C([H])([H])[C@]1([H])[C@@]3(C([H])([H])[H])C(=C([H])C(=O)C([H])([H])C3([H])[H])C([H])([H])C([H])([H])[C@]12[H]


 22 25  0  0  0  0  0  0  0  0999 V2000
  -90.2987   31.5460   -2.1538 C   0  0  0  0  0  0  0  0  0  0  0  0
  -89.0455   31.3987   -2.9429 C   0  0  0  0  0  0  0  0  0  0  0  0
  -88.5495   29.9885   -3.0643 C   0  0  0  0  0  0  0  0  0  0  0  0
  -88.0672   29.5659   -1.6926 C   0  0  0  0  0  0  0  0  0  0  0  0
  -86.9396   30.4296   -1.2208 C   0  0  0  0  0  0  0  0  0  0  0  0
  -87.4560   31.8579   -1.0568 C   0  0  0  0  0  0  0  0  0  0  0  0
  -86.3109   32.8012   -0.6835 C   0  0  0  0  0  0  0  0  0  0  0  0
  -85.5341   32.3692    0.5030 C   0  0  0  0  0  0  0  0  0  0  0  0
  -85.7154   30.9521    0.8736 C   0  0  0  0  0  0  0  0  0  0  0  0
  -85.3304   30.5960    2.1082 C   0  0  0  0  0  0  0  0  0  0  0  0
  -85.4656   29.2258    2.5743 C   0  0  0  0  0  0  0  0  0  0  0  0
  -84.7416   28.8072    3.4935 O   0  0  0  0  0  0  0  0  0  0  0  0
  -86.4621   28.3529    1.9476 C   0  0  0  0  0  0  0  0  0  0  0  0
  -87.2021   29.0481    0.8220 C   0  0  0  0  0  0  0  0  0  0  0  0
  -86.2711   29.9149    0.0122 C   0  0  0  0  0  0  0  0  0  0  0  0
  -85.0979   29.0456   -0.4607 C   0  0  0  0  0  0  0  0  0  0  0  0
  -87.9088   32.2672   -2.4135 C   0  0  0  0  0  0  0  0  0  0  0  0
  -88.4915   33.6137   -2.5426 C   0  0  0  0  0  0  0  0  0  0  0  0
  -89.2419   33.5464   -3.8712 C   0  0  0  0  0  0  0  0  0  0  0  0
  -89.2395   32.0840   -4.2791 C   0  0  0  0  0  0  0  0  0  0  0  0
  -90.3895   31.7003   -4.9240 O   0  0  0  0  0  0  0  0  0  0  0  0
  -91.0398   32.4393   -5.0673 H   0  0  0  0  0  0  0  0  0  0  0  0
  2  1  1  0  0  0
  2  3  1  0  0  0
  3  4  1  0  0  0
  4  5  1  0  0  0
  5  6  1  0  0  0
  6  7  1  0  0  0
  7  8  1  0  0  0
  8  9  1  0  0  0
  9 10  2  0  0  0
 10 11  1  0  0  0
 11 12  2  0  0  0
 11 13  1  0  0  0
 13 14  1  0  0  0
 14 15  1  0  0  0
 15 16  1  0  0  0
  6 17  1  0  0  0
 17 18  1  0  0  0
 18 19  1  0  0  0
 19 20  1  0  0  0
 20 21  1  0  0  0
 17  2  1  0  0  0
 20  2  1  0  0  0
 15  5  1  0  0  0
 15  9  1  0  0  0
 21 22  1  0  0  0
M  END
> <minimizedAffinity>
-7.96502

> <CNNscore>
0.4343869090

> <CNNaffinity>
5.8892755508

> <CNN_VS>
2.5582242012

> <CNNaffinity_variance>
0.3205580115

$$$$
[H]O[C@@]1([H])C([H])([H])C([H])([H])[C@]2([H])[C@]1(C([H])([H])[H])C([H])([H])C([H])([H])[C@]1([H])[C@@]3(C([H])([H])[H])C(=C([H])C(=O)C([H])([H])C3([H])[H])C([H])([H])C([H])([H])[C@]12[H]


 22 25  0  0  0  0  0  0  0  0999 V2000
  -86.1763   27.8572   -0.3111 C   0  0  0  0  0  0  0  0  0  0  0  0
  -86.9234   28.7222    0.6421 C   0  0  0  0  0  0  0  0  0  0  0  0
  -88.3469   28.9907    0.2533 C   0  0  0  0  0  0  0  0  0  0  0  0
  -88.3142   29.8847   -0.9683 C   0  0  0  0  0  0  0  0  0  0  0  0
  -87.6460   31.1906   -0.6710 C   0  0  0  0  0  0  0  0  0  0  0  0
  -86.1850   30.9202   -0.3161 C   0  0  0  0  0  0  0  0  0  0  0  0
  -85.4883   32.2153    0.1054 C   0  0  0  0  0  0  0  0  0  0  0  0
  -85.6088   33.3153   -0.8812 C   0  0  0  0  0  0  0  0  0  0  0  0
  -86.6801   33.1308   -1.8795 C   0  0  0  0  0  0  0  0  0  0  0  0
  -86.6170   33.8925   -2.9819 C   0  0  0  0  0  0  0  0  0  0  0  0
  -87.6212   33.7899   -4.0278 C   0  0  0  0  0  0  0  0  0  0  0  0
  -87.8195   34.7467   -4.7956 O   0  0  0  0  0  0  0  0  0  0  0  0
  -88.3900   32.5494   -4.1610 C   0  0  0  0  0  0  0  0  0  0  0  0
  -88.0214   31.5329   -3.0985 C   0  0  0  0  0  0  0  0  0  0  0  0
  -87.7950   32.1980   -1.7642 C   0  0  0  0  0  0  0  0  0  0  0  0
  -89.0419   33.0260   -1.4244 C   0  0  0  0  0  0  0  0  0  0  0  0
  -86.2311   30.0576    0.8950 C   0  0  0  0  0  0  0  0  0  0  0  0
  -84.9391   29.6121    1.4444 C   0  0  0  0  0  0  0  0  0  0  0  0
  -85.3237   28.4333    2.3363 C   0  0  0  0  0  0  0  0  0  0  0  0
  -86.7808   28.1359    2.0309 C   0  0  0  0  0  0  0  0  0  0  0  0
  -87.0836   26.7978    2.0890 O   0  0  0  0  0  0  0  0  0  0  0  0
  -86.3201   26.2208    2.3604 H   0  0  0  0  0  0  0  0  0  0  0  0
  2  1  1  0  0  0
  2  3  1  0  0  0
  3  4  1  0  0  0
  4  5  1  0  0  0
  5  6  1  0  0  0
  6  7  1  0  0  0
  7  8  1  0  0  0
  8  9  1  0  0  0
  9 10  2  0  0  0
 10 11  1  0  0  0
 11 12  2  0  0  0
 11 13  1  0  0  0
 13 14  1  0  0  0
 14 15  1  0  0  0
 15 16  1  0  0  0
  6 17  1  0  0  0
 17 18  1  0  0  0
 18 19  1  0  0  0
 19 20  1  0  0  0
 20 21  1  0  0  0
 17  2  1  0  0  0
 20  2  1  0  0  0
 15  5  1  0  0  0
 15  9  1  0  0  0
 21 22  1  0  0  0
M  END
> <minimizedAffinity>
-8.72857

> <CNNscore>
0.3922667801

> <CNNaffinity>
5.9354047775

> <CNN_VS>
2.3282620907

> <CNNaffinity_variance>
0.1070578098

$$$$
[H]O[C@@]1([H])C([H])([H])C([H])([H])[C@]2([H])[C@]1(C([H])([H])[H])C([H])([H])C([H])([H])[C@]1([H])[C@@]3(C([H])([H])[H])C(=C([H])C(=O)C([H])([H])C3([H])[H])C([H])([H])C([H])([H])[C@]12[H]


 22 25  0  0  0  0  0  0  0  0999 V2000
  -89.2240   27.4498    3.2961 C   0  0  0  0  0  0  0  0  0  0  0  0
  -88.7221   26.7904    2.0599 C   0  0  0  0  0  0  0  0  0  0  0  0
  -87.2347   26.6027    2.0155 C   0  0  0  0  0  0  0  0  0  0  0  0
  -86.6163   27.9772    1.8696 C   0  0  0  0  0  0  0  0  0  0  0  0
  -87.0520   28.6396    0.6001 C   0  0  0  0  0  0  0  0  0  0  0  0
  -88.5610   28.8686    0.6637 C   0  0  0  0  0  0  0  0  0  0  0  0
  -89.0713   29.4421   -0.6596 C   0  0  0  0  0  0  0  0  0  0  0  0
  -88.3587   30.6639   -1.1037 C   0  0  0  0  0  0  0  0  0  0  0  0
  -87.0576   30.8903   -0.4448 C   0  0  0  0  0  0  0  0  0  0  0  0
  -86.5395   32.1242   -0.5374 C   0  0  0  0  0  0  0  0  0  0  0  0
  -85.2636   32.4542    0.0759 C   0  0  0  0  0  0  0  0  0  0  0  0
  -84.5932   33.4067   -0.3572 O   0  0  0  0  0  0  0  0  0  0  0  0
  -84.7846   31.6517    1.2047 C   0  0  0  0  0  0  0  0  0  0  0  0
  -85.7317   30.5167    1.5403 C   0  0  0  0  0  0  0  0  0  0  0  0
  -86.2936   29.8887    0.2897 C   0  0  0  0  0  0  0  0  0  0  0  0
  -85.1188   29.4720   -0.6060 C   0  0  0  0  0  0  0  0  0  0  0  0
  -89.1568   27.5112    0.7878 C   0  0  0  0  0  0  0  0  0  0  0  0
  -90.6234   27.4358    0.9014 C   0  0  0  0  0  0  0  0  0  0  0  0
  -90.8615   26.0333    1.4576 C   0  0  0  0  0  0  0  0  0  0  0  0
  -89.4957   25.5045    1.8572 C   0  0  0  0  0  0  0  0  0  0  0  0
  -89.5295   24.7093    2.9763 O   0  0  0  0  0  0  0  0  0  0  0  0
  -90.4432   24.5607    3.3404 H   0  0  0  0  0  0  0  0  0  0  0  0
  2  1  1  0  0  0
  2  3  1  0  0  0
  3  4  1  0  0  0
  4  5  1  0  0  0
  5  6  1  0  0  0
  6  7  1  0  0  0
  7  8  1  0  0  0
  8  9  1  0  0  0
  9 10  2  0  0  0
 10 11  1  0  0  0
 11 12  2  0  0  0
 11 13  1  0  0  0
 13 14  1  0  0  0
 14 15  1  0  0  0
 15 16  1  0  0  0
  6 17  1  0  0  0
 17 18  1  0  0  0
 18 19  1  0  0  0
 19 20  1  0  0  0
 20 21  1  0  0  0
 17  2  1  0  0  0
 20  2  1  0  0  0
 15  5  1  0  0  0
 15  9  1  0  0  0
 21 22  1  0  0  0
M  END
> <minimizedAffinity>
-8.41019

> <CNNscore>
0.3309999704

> <CNNaffinity>
5.8762888908

> <CNN_VS>
1.9450514317

> <CNNaffinity_variance>
0.1467914730

$$$$
[H]O[C@@]1([H])C([H])([H])C([H])([H])[C@]2([H])[C@]1(C([H])([H])[H])C([H])([H])C([H])([H])[C@]1([H])[C@@]3(C([H])([H])[H])C(=C([H])C(=O)C([H])([H])C3([H])[H])C([H])([H])C([H])([H])[C@]12[H]


 22 25  0  0  0  0  0  0  0  0999 V2000
  -84.9327   32.7181    1.3611 C   0  0  0  0  0  0  0  0  0  0  0  0
  -84.3616   32.0800    0.1439 C   0  0  0  0  0  0  0  0  0  0  0  0
  -84.3410   32.9622   -1.0689 C   0  0  0  0  0  0  0  0  0  0  0  0
  -85.7785   33.1560   -1.5035 C   0  0  0  0  0  0  0  0  0  0  0  0
  -86.4176   31.8536   -1.8714 C   0  0  0  0  0  0  0  0  0  0  0  0
  -86.4765   30.9713   -0.6257 C   0  0  0  0  0  0  0  0  0  0  0  0
  -87.0203   29.5852   -0.9771 C   0  0  0  0  0  0  0  0  0  0  0  0
  -88.3234   29.6083   -1.6836 C   0  0  0  0  0  0  0  0  0  0  0  0
  -88.6774   30.9122   -2.2777 C   0  0  0  0  0  0  0  0  0  0  0  0
  -89.9628   31.0939   -2.6152 C   0  0  0  0  0  0  0  0  0  0  0  0
  -90.4180   32.3411   -3.2070 C   0  0  0  0  0  0  0  0  0  0  0  0
  -91.4486   32.3606   -3.9011 O   0  0  0  0  0  0  0  0  0  0  0  0
  -89.6477   33.5658   -2.9735 C   0  0  0  0  0  0  0  0  0  0  0  0
  -88.4073   33.3093   -2.1406 C   0  0  0  0  0  0  0  0  0  0  0  0
  -87.7499   32.0090   -2.5292 C   0  0  0  0  0  0  0  0  0  0  0  0
  -87.4867   32.0388   -4.0411 C   0  0  0  0  0  0  0  0  0  0  0  0
  -85.0589   30.7733   -0.2205 C   0  0  0  0  0  0  0  0  0  0  0  0
  -84.8189   29.9716    0.9916 C   0  0  0  0  0  0  0  0  0  0  0  0
  -83.3862   30.3356    1.3761 C   0  0  0  0  0  0  0  0  0  0  0  0
  -83.0029   31.5116    0.4957 C   0  0  0  0  0  0  0  0  0  0  0  0
  -82.1833   32.4151    1.1263 O   0  0  0  0  0  0  0  0  0  0  0  0
  -81.9260   32.1526    2.0507 H   0  0  0  0  0  0  0  0  0  0  0  0
  2  1  1  0  0  0
  2  3  1  0  0  0
  3  4  1  0  0  0
  4  5  1  0  0  0
  5  6  1  0  0  0
  6  7  1  0  0  0
  7  8  1  0  0  0
  8  9  1  0  0  0
  9 10  2  0  0  0
 10 11  1  0  0  0
 11 12  2  0  0  0
 11 13  1  0  0  0
 13 14  1  0  0  0
 14 15  1  0  0  0
 15 16  1  0  0  0
  6 17  1  0  0  0
 17 18  1  0  0  0
 18 19  1  0  0  0
 19 20  1  0  0  0
 20 21  1  0  0  0
 17  2  1  0  0  0
 20  2  1  0  0  0
 15  5  1  0  0  0
 15  9  1  0  0  0
 21 22  1  0  0  0
M  END
> <minimizedAffinity>
-7.11050

> <CNNscore>
0.3005752265

> <CNNaffinity>
5.7970705032

> <CNN_VS>
1.7424557209

> <CNNaffinity_variance>
0.1321508586

$$$$
[H]O[C@@]1([H])C([H])([H])C([H])([H])[C@]2([H])[C@]1(C([H])([H])[H])C([H])([H])C([H])([H])[C@]1([H])[C@@]3(C([H])([H])[H])C(=C([H])C(=O)C([H])([H])C3([H])[H])C([H])([H])C([H])([H])[C@]12[H]


 22 25  0  0  0  0  0  0  0  0999 V2000
  -84.0420   29.8568   -0.5160 C   0  0  0  0  0  0  0  0  0  0  0  0
  -84.8388   30.3332    0.6472 C   0  0  0  0  0  0  0  0  0  0  0  0
  -85.8976   29.3766    1.1090 C   0  0  0  0  0  0  0  0  0  0  0  0
  -86.9648   29.3406    0.0354 C   0  0  0  0  0  0  0  0  0  0  0  0
  -87.5894   30.6869   -0.1584 C   0  0  0  0  0  0  0  0  0  0  0  0
  -86.5200   31.6508   -0.6690 C   0  0  0  0  0  0  0  0  0  0  0  0
  -87.0845   33.0686   -0.7755 C   0  0  0  0  0  0  0  0  0  0  0  0
  -88.3264   33.1660   -1.5793 C   0  0  0  0  0  0  0  0  0  0  0  0
  -89.0206   31.8817   -1.7960 C   0  0  0  0  0  0  0  0  0  0  0  0
  -89.9300   31.8447   -2.7814 C   0  0  0  0  0  0  0  0  0  0  0  0
  -90.6701   30.6296   -3.0791 C   0  0  0  0  0  0  0  0  0  0  0  0
  -91.7712   30.6964   -3.6512 O   0  0  0  0  0  0  0  0  0  0  0  0
  -90.1009   29.3344   -2.6966 C   0  0  0  0  0  0  0  0  0  0  0  0
  -88.7773   29.4843   -1.9732 C   0  0  0  0  0  0  0  0  0  0  0  0
  -88.8027   30.6604   -1.0296 C   0  0  0  0  0  0  0  0  0  0  0  0
  -90.0069   30.4959   -0.0922 C   0  0  0  0  0  0  0  0  0  0  0  0
  -85.4881   31.6915    0.4017 C   0  0  0  0  0  0  0  0  0  0  0  0
  -84.3060   32.5349    0.1552 C   0  0  0  0  0  0  0  0  0  0  0  0
  -83.2865   32.0162    1.1674 C   0  0  0  0  0  0  0  0  0  0  0  0
  -83.8810   30.7445    1.7455 C   0  0  0  0  0  0  0  0  0  0  0  0
  -82.9384   29.7873    2.0302 O   0  0  0  0  0  0  0  0  0  0  0  0
  -82.0024   30.0758    1.8562 H   0  0  0  0  0  0  0  0  0  0  0  0
  2  1  1  0  0  0
  2  3  1  0  0  0
  3  4  1  0  0  0
  4  5  1  0  0  0
  5  6  1  0  0  0
  6  7  1  0  0  0
  7  8  1  0  0  0
  8  9  1  0  0  0
  9 10  2  0  0  0
 10 11  1  0  0  0
 11 12  2  0  0  0
 11 13  1  0  0  0
 13 14  1  0  0  0
 14 15  1  0  0  0
 15 16  1  0  0  0
  6 17  1  0  0  0
 17 18  1  0  0  0
 18 19  1  0  0  0
 19 20  1  0  0  0
 20 21  1  0  0  0
 17  2  1  0  0  0
 20  2  1  0  0  0
 15  5  1  0  0  0
 15  9  1  0  0  0
 21 22  1  0  0  0
M  END
> <minimizedAffinity>
-7.92712

> <CNNscore>
0.2897534370

> <CNNaffinity>
5.7906551361

> <CNN_VS>
1.6778622866

> <CNNaffinity_variance>
0.1248441488

$$$$
[H]O[C@@]1([H])C([H])([H])C([H])([H])[C@]2([H])[C@]1(C([H])([H])[H])C([H])([H])C([H])([H])[C@]1([H])[C@@]3(C([H])([H])[H])C(=C([H])C(=O)C([H])([H])C3([H])[H])C([H])([H])C([H])([H])[C@]12[H]


 22 25  0  0  0  0  0  0  0  0999 V2000
  -85.8748   28.2208   -0.0113 C   0  0  0  0  0  0  0  0  0  0  0  0
  -86.7388   29.2161    0.6799 C   0  0  0  0  0  0  0  0  0  0  0  0
  -86.7029   29.1369    2.1772 C   0  0  0  0  0  0  0  0  0  0  0  0
  -87.3915   27.8474    2.5720 C   0  0  0  0  0  0  0  0  0  0  0  0
  -88.8205   27.8337    2.1274 C   0  0  0  0  0  0  0  0  0  0  0  0
  -88.8558   27.8718    0.6007 C   0  0  0  0  0  0  0  0  0  0  0  0
  -90.2982   27.9729    0.1011 C   0  0  0  0  0  0  0  0  0  0  0  0
  -91.1978   26.9225    0.6352 C   0  0  0  0  0  0  0  0  0  0  0  0
  -90.6860   26.2244    1.8306 C   0  0  0  0  0  0  0  0  0  0  0  0
  -91.2690   25.0581    2.1457 C   0  0  0  0  0  0  0  0  0  0  0  0
  -90.8408   24.2894    3.3027 C   0  0  0  0  0  0  0  0  0  0  0  0
  -91.6215   23.4846    3.8383 O   0  0  0  0  0  0  0  0  0  0  0  0
  -89.4837   24.4774    3.8230 C   0  0  0  0  0  0  0  0  0  0  0  0
  -88.7185   25.5347    3.0519 C   0  0  0  0  0  0  0  0  0  0  0  0
  -89.6089   26.6974    2.6924 C   0  0  0  0  0  0  0  0  0  0  0  0
  -90.2592   27.2187    3.9813 C   0  0  0  0  0  0  0  0  0  0  0  0
  -88.1939   29.1506    0.2270 C   0  0  0  0  0  0  0  0  0  0  0  0
  -88.0602   29.4352   -1.2120 C   0  0  0  0  0  0  0  0  0  0  0  0
  -86.9849   30.5190   -1.2578 C   0  0  0  0  0  0  0  0  0  0  0  0
  -86.4050   30.5921    0.1433 C   0  0  0  0  0  0  0  0  0  0  0  0
  -85.0601   30.8690    0.1585 O   0  0  0  0  0  0  0  0  0  0  0  0
  -84.6673   31.0212   -0.7427 H   0  0  0  0  0  0  0  0  0  0  0  0
  2  1  1  0  0  0
  2  3  1  0  0  0
  3  4  1  0  0  0
  4  5  1  0  0  0
  5  6  1  0  0  0
  6  7  1  0  0  0
  7  8  1  0  0  0
  8  9  1  0  0  0
  9 10  2  0  0  0
 10 11  1  0  0  0
 11 12  2  0  0  0
 11 13  1  0  0  0
 13 14  1  0  0  0
 14 15  1  0  0  0
 15 16  1  0  0  0
  6 17  1  0  0  0
 17 18  1  0  0  0
 18 19  1  0  0  0
 19 20  1  0  0  0
 20 21  1  0  0  0
 17  2  1  0  0  0
 20  2  1  0  0  0
 15  5  1  0  0  0
 15  9  1  0  0  0
 21 22  1  0  0  0
M  END
> <minimizedAffinity>
-6.61170

> <CNNscore>
0.2825294733

> <CNNaffinity>
5.6059021950

> <CNN_VS>
1.5838326216

> <CNNaffinity_variance>
0.2944687307

$$$$
[H]O[C@@]1([H])C([H])([H])C([H])([H])[C@]2([H])[C@]1(C([H])([H])[H])C([H])([H])C([H])([H])[C@]1([H])[C@@]3(C([H])([H])[H])C(=C([H])C(=O)C([H])([H])C3([H])[H])C([H])([H])C([H])([H])[C@]12[H]


 22 25  0  0  0  0  0  0  0  0999 V2000
  -85.3475   33.2417    0.8832 C   0  0  0  0  0  0  0  0  0  0  0  0
  -84.8703   32.3603   -0.2169 C   0  0  0  0  0  0  0  0  0  0  0  0
  -85.5427   32.5943   -1.5370 C   0  0  0  0  0  0  0  0  0  0  0  0
  -86.9736   32.1186   -1.3987 C   0  0  0  0  0  0  0  0  0  0  0  0
  -87.0346   30.6565   -1.0844 C   0  0  0  0  0  0  0  0  0  0  0  0
  -86.3870   30.4244    0.2796 C   0  0  0  0  0  0  0  0  0  0  0  0
  -86.3246   28.9287    0.5946 C   0  0  0  0  0  0  0  0  0  0  0  0
  -87.6305   28.2345    0.4926 C   0  0  0  0  0  0  0  0  0  0  0  0
  -88.6614   28.9722   -0.2632 C   0  0  0  0  0  0  0  0  0  0  0  0
  -89.9321   28.5758   -0.0975 C   0  0  0  0  0  0  0  0  0  0  0  0
  -91.0245   29.2348   -0.7944 C   0  0  0  0  0  0  0  0  0  0  0  0
  -92.0910   28.6287   -0.9931 O   0  0  0  0  0  0  0  0  0  0  0  0
  -90.8489   30.6149   -1.2551 C   0  0  0  0  0  0  0  0  0  0  0  0
  -89.4621   31.1459   -0.9502 C   0  0  0  0  0  0  0  0  0  0  0  0
  -88.4126   30.0859   -1.1711 C   0  0  0  0  0  0  0  0  0  0  0  0
  -88.5701   29.5466   -2.5994 C   0  0  0  0  0  0  0  0  0  0  0  0
  -84.9786   30.8778    0.1249 C   0  0  0  0  0  0  0  0  0  0  0  0
  -84.1177   30.7939    1.3171 C   0  0  0  0  0  0  0  0  0  0  0  0
  -82.9515   31.7190    0.9747 C   0  0  0  0  0  0  0  0  0  0  0  0
  -83.3608   32.4585   -0.2865 C   0  0  0  0  0  0  0  0  0  0  0  0
  -82.9024   33.7523   -0.3279 O   0  0  0  0  0  0  0  0  0  0  0  0
  -82.3372   34.0072    0.4500 H   0  0  0  0  0  0  0  0  0  0  0  0
  2  1  1  0  0  0
  2  3  1  0  0  0
  3  4  1  0  0  0
  4  5  1  0  0  0
  5  6  1  0  0  0
  6  7  1  0  0  0
  7  8  1  0  0  0
  8  9  1  0  0  0
  9 10  2  0  0  0
 10 11  1  0  0  0
 11 12  2  0  0  0
 11 13  1  0  0  0
 13 14  1  0  0  0
 14 15  1  0  0  0
 15 16  1  0  0  0
  6 17  1  0  0  0
 17 18  1  0  0  0
 18 19  1  0  0  0
 19 20  1  0  0  0
 20 21  1  0  0  0
 17  2  1  0  0  0
 20  2  1  0  0  0
 15  5  1  0  0  0
 15  9  1  0  0  0
 21 22  1  0  0  0
M  END
> <minimizedAffinity>
-7.57875

> <CNNscore>
0.2621384859

> <CNNaffinity>
5.8743410110

> <CNN_VS>
1.5398908854

> <CNNaffinity_variance>
0.1107243747

$$$$
[H]c1c([H])c(C(=O)N(C([H])([H])[H])C([H])([H])[H])c([H])c(-c2c([H])c(C(F)(F)F)c([H])c(C(F)(F)F)c2[H])c1[H]


 25 26  0  0  0  0  0  0  0  0999 V2000
  -87.0143   30.1127   -0.1443 C   0  0  0  0  0  0  0  0  0  0  0  0
  -86.2434   29.4656    0.7968 C   0  0  0  0  0  0  0  0  0  0  0  0
  -85.0847   29.9775    1.2813 C   0  0  0  0  0  0  0  0  0  0  0  0
  -84.6656   31.2000    0.8129 C   0  0  0  0  0  0  0  0  0  0  0  0
  -85.3739   31.8934   -0.1230 C   0  0  0  0  0  0  0  0  0  0  0  0
  -86.5697   31.3218   -0.6040 C   0  0  0  0  0  0  0  0  0  0  0  0
  -89.7599   27.8715   -1.4746 C   0  0  0  0  0  0  0  0  0  0  0  0
  -90.8606   28.7486   -1.2666 C   0  0  0  0  0  0  0  0  0  0  0  0
  -90.7090   30.0119   -0.7370 C   0  0  0  0  0  0  0  0  0  0  0  0
  -89.4508   30.4480   -0.3989 C   0  0  0  0  0  0  0  0  0  0  0  0
  -88.3309   29.6577   -0.5701 C   0  0  0  0  0  0  0  0  0  0  0  0
  -88.5489   28.3998   -1.1114 C   0  0  0  0  0  0  0  0  0  0  0  0
  -89.2224   25.0390    0.0075 C   0  0  0  0  0  0  0  0  0  0  0  0
  -89.6881   25.3142   -1.3176 N   0  0  0  0  0  0  0  0  0  0  0  0
  -90.1852   24.1105   -2.0941 C   0  0  0  0  0  0  0  0  0  0  0  0
  -89.8680   26.5300   -1.9786 C   0  0  0  0  0  0  0  0  0  0  0  0
  -90.2023   26.4112   -3.2253 O   0  0  0  0  0  0  0  0  0  0  0  0
  -84.9937   33.2128   -0.6145 C   0  0  0  0  0  0  0  0  0  0  0  0
  -85.0889   33.3243   -2.0036 F   0  0  0  0  0  0  0  0  0  0  0  0
  -85.7786   34.1822   -0.0671 F   0  0  0  0  0  0  0  0  0  0  0  0
  -83.6621   33.5202   -0.2896 F   0  0  0  0  0  0  0  0  0  0  0  0
  -84.1695   29.2586    2.2510 C   0  0  0  0  0  0  0  0  0  0  0  0
  -84.1981   27.9198    1.8895 F   0  0  0  0  0  0  0  0  0  0  0  0
  -84.6962   29.3661    3.5391 F   0  0  0  0  0  0  0  0  0  0  0  0
  -82.8925   29.6825    2.1908 F   0  0  0  0  0  0  0  0  0  0  0  0
 13 14  1  0  0  0
 14 15  1  0  0  0
 14 16  1  0  0  0
 16 17  2  0  0  0
 16  7  1  0  0  0
  7  8  2  0  0  0
  8  9  1  0  0  0
  9 10  2  0  0  0
 10 11  1  0  0  0
 11 12  2  0  0  0
 11  1  1  0  0  0
  1  2  2  0  0  0
  2  3  1  0  0  0
  3  4  2  0  0  0
  4  5  1  0  0  0
  5  6  2  0  0  0
  5 18  1  0  0  0
 18 19  1  0  0  0
 18 20  1  0  0  0
 18 21  1  0  0  0
  3 22  1  0  0  0
 22 23  1  0  0  0
 22 24  1  0  0  0
 22 25  1  0  0  0
 12  7  1  0  0  0
  6  1  1  0  0  0
M  END
> <minimizedAffinity>
-8.75240

> <CNNscore>
0.4532341063

> <CNNaffinity>
5.4385833740

> <CNN_VS>
2.4649515152

> <CNNaffinity_variance>
0.5766890645

$$$$
[H]c1c([H])c(C(=O)N(C([H])([H])[H])C([H])([H])[H])c([H])c(-c2c([H])c(C(F)(F)F)c([H])c(C(F)(F)F)c2[H])c1[H]


 25 26  0  0  0  0  0  0  0  0999 V2000
  -87.1149   30.5901   -0.2656 C   0  0  0  0  0  0  0  0  0  0  0  0
  -87.4012   29.3770    0.3219 C   0  0  0  0  0  0  0  0  0  0  0  0
  -86.5326   28.7268    1.1356 C   0  0  0  0  0  0  0  0  0  0  0  0
  -85.3133   29.3099    1.3868 C   0  0  0  0  0  0  0  0  0  0  0  0
  -84.9596   30.5050    0.8344 C   0  0  0  0  0  0  0  0  0  0  0  0
  -85.8905   31.1437   -0.0102 C   0  0  0  0  0  0  0  0  0  0  0  0
  -88.6032   33.3915   -2.3316 C   0  0  0  0  0  0  0  0  0  0  0  0
  -89.8849   32.8186   -2.5622 C   0  0  0  0  0  0  0  0  0  0  0  0
  -90.2480   31.5905   -2.0531 C   0  0  0  0  0  0  0  0  0  0  0  0
  -89.3449   30.8900   -1.2906 C   0  0  0  0  0  0  0  0  0  0  0  0
  -88.0808   31.3768   -1.0203 C   0  0  0  0  0  0  0  0  0  0  0  0
  -87.7780   32.6192   -1.5568 C   0  0  0  0  0  0  0  0  0  0  0  0
  -90.2711   35.7013   -3.8780 C   0  0  0  0  0  0  0  0  0  0  0  0
  -88.8934   35.6582   -3.4923 N   0  0  0  0  0  0  0  0  0  0  0  0
  -88.1309   36.9579   -3.6610 C   0  0  0  0  0  0  0  0  0  0  0  0
  -88.1580   34.6444   -2.8768 C   0  0  0  0  0  0  0  0  0  0  0  0
  -86.8912   34.8977   -2.7712 O   0  0  0  0  0  0  0  0  0  0  0  0
  -83.6982   31.1835    1.1088 C   0  0  0  0  0  0  0  0  0  0  0  0
  -83.7131   31.8949    2.3108 F   0  0  0  0  0  0  0  0  0  0  0  0
  -82.6684   30.2938    1.1677 F   0  0  0  0  0  0  0  0  0  0  0  0
  -83.3866   32.1178    0.1073 F   0  0  0  0  0  0  0  0  0  0  0  0
  -86.7780   27.3555    1.7302 C   0  0  0  0  0  0  0  0  0  0  0  0
  -87.1043   26.5259    0.6676 F   0  0  0  0  0  0  0  0  0  0  0  0
  -87.8837   27.4188    2.5798 F   0  0  0  0  0  0  0  0  0  0  0  0
  -85.6964   26.8418    2.3470 F   0  0  0  0  0  0  0  0  0  0  0  0
 13 14  1  0  0  0
 14 15  1  0  0  0
 14 16  1  0  0  0
 16 17  2  0  0  0
 16  7  1  0  0  0
  7  8  2  0  0  0
  8  9  1  0  0  0
  9 10  2  0  0  0
 10 11  1  0  0  0
 11 12  2  0  0  0
 11  1  1  0  0  0
  1  2  2  0  0  0
  2  3  1  0  0  0
  3  4  2  0  0  0
  4  5  1  0  0  0
  5  6  2  0  0  0
  5 18  1  0  0  0
 18 19  1  0  0  0
 18 20  1  0  0  0
 18 21  1  0  0  0
  3 22  1  0  0  0
 22 23  1  0  0  0
 22 24  1  0  0  0
 22 25  1  0  0  0
 12  7  1  0  0  0
  6  1  1  0  0  0
M  END
> <minimizedAffinity>
-8.42787

> <CNNscore>
0.3621019125

> <CNNaffinity>
5.4268445969

> <CNN_VS>
1.9650708437

> <CNNaffinity_variance>
0.4393199384

$$$$
[H]c1c([H])c(C(=O)N(C([H])([H])[H])C([H])([H])[H])c([H])c(-c2c([H])c(C(F)(F)F)c([H])c(C(F)(F)F)c2[H])c1[H]


 25 26  0  0  0  0  0  0  0  0999 V2000
  -88.3292   30.9225   -1.0247 C   0  0  0  0  0  0  0  0  0  0  0  0
  -87.1628   30.8855   -0.2919 C   0  0  0  0  0  0  0  0  0  0  0  0
  -86.2142   31.8522   -0.3636 C   0  0  0  0  0  0  0  0  0  0  0  0
  -86.4317   32.9183   -1.2037 C   0  0  0  0  0  0  0  0  0  0  0  0
  -87.5593   33.0173   -1.9637 C   0  0  0  0  0  0  0  0  0  0  0  0
  -88.5166   31.9872   -1.8627 C   0  0  0  0  0  0  0  0  0  0  0  0
  -90.9598   28.3245   -1.8377 C   0  0  0  0  0  0  0  0  0  0  0  0
  -91.4327   28.0899   -0.5165 C   0  0  0  0  0  0  0  0  0  0  0  0
  -90.9302   28.7597    0.5781 C   0  0  0  0  0  0  0  0  0  0  0  0
  -89.9386   29.6925    0.3932 C   0  0  0  0  0  0  0  0  0  0  0  0
  -89.4257   29.9786   -0.8571 C   0  0  0  0  0  0  0  0  0  0  0  0
  -89.9760   29.2750   -1.9177 C   0  0  0  0  0  0  0  0  0  0  0  0
  -93.7850   28.5164   -3.4157 C   0  0  0  0  0  0  0  0  0  0  0  0
  -92.6124   27.7506   -3.7109 N   0  0  0  0  0  0  0  0  0  0  0  0
  -92.6089   27.0635   -5.0626 C   0  0  0  0  0  0  0  0  0  0  0  0
  -91.4152   27.6216   -3.0055 C   0  0  0  0  0  0  0  0  0  0  0  0
  -90.5970   26.7492   -3.5048 O   0  0  0  0  0  0  0  0  0  0  0  0
  -87.8546   34.1507   -2.8325 C   0  0  0  0  0  0  0  0  0  0  0  0
  -89.1936   34.5444   -2.7772 F   0  0  0  0  0  0  0  0  0  0  0  0
  -87.0923   35.2303   -2.5022 F   0  0  0  0  0  0  0  0  0  0  0  0
  -87.5924   33.8503   -4.1793 F   0  0  0  0  0  0  0  0  0  0  0  0
  -84.8849   31.8038    0.3609 C   0  0  0  0  0  0  0  0  0  0  0  0
  -84.3207   30.5748    0.0524 F   0  0  0  0  0  0  0  0  0  0  0  0
  -85.1150   31.8363    1.7373 F   0  0  0  0  0  0  0  0  0  0  0  0
  -84.0302   32.7682   -0.0308 F   0  0  0  0  0  0  0  0  0  0  0  0
 13 14  1  0  0  0
 14 15  1  0  0  0
 14 16  1  0  0  0
 16 17  2  0  0  0
 16  7  1  0  0  0
  7  8  2  0  0  0
  8  9  1  0  0  0
  9 10  2  0  0  0
 10 11  1  0  0  0
 11 12  2  0  0  0
 11  1  1  0  0  0
  1  2  2  0  0  0
  2  3  1  0  0  0
  3  4  2  0  0  0
  4  5  1  0  0  0
  5  6  2  0  0  0
  5 18  1  0  0  0
 18 19  1  0  0  0
 18 20  1  0  0  0
 18 21  1  0  0  0
  3 22  1  0  0  0
 22 23  1  0  0  0
 22 24  1  0  0  0
 22 25  1  0  0  0
 12  7  1  0  0  0
  6  1  1  0  0  0
M  END
> <minimizedAffinity>
-7.43354

> <CNNscore>
0.3454786241

> <CNNaffinity>
5.2000188828

> <CNN_VS>
1.7964953184

> <CNNaffinity_variance>
0.2585313618

$$$$
[H]c1c([H])c(C(=O)N(C([H])([H])[H])C([H])([H])[H])c([H])c(-c2c([H])c(C(F)(F)F)c([H])c(C(F)(F)F)c2[H])c1[H]


 25 26  0  0  0  0  0  0  0  0999 V2000
  -86.9240   29.8613   -0.3369 C   0  0  0  0  0  0  0  0  0  0  0  0
  -86.5149   31.1119   -0.7461 C   0  0  0  0  0  0  0  0  0  0  0  0
  -85.4413   31.7484   -0.2155 C   0  0  0  0  0  0  0  0  0  0  0  0
  -84.7285   31.1118    0.7727 C   0  0  0  0  0  0  0  0  0  0  0  0
  -85.0796   29.8771    1.2316 C   0  0  0  0  0  0  0  0  0  0  0  0
  -86.2059   29.2540    0.6564 C   0  0  0  0  0  0  0  0  0  0  0  0
  -89.9637   29.0438   -2.4400 C   0  0  0  0  0  0  0  0  0  0  0  0
  -89.9143   27.6261   -2.3308 C   0  0  0  0  0  0  0  0  0  0  0  0
  -88.9492   26.9748   -1.5934 C   0  0  0  0  0  0  0  0  0  0  0  0
  -87.9991   27.7162   -0.9337 C   0  0  0  0  0  0  0  0  0  0  0  0
  -87.9781   29.0962   -0.9888 C   0  0  0  0  0  0  0  0  0  0  0  0
  -88.9779   29.6918   -1.7428 C   0  0  0  0  0  0  0  0  0  0  0  0
  -93.1227   29.5673   -1.9346 C   0  0  0  0  0  0  0  0  0  0  0  0
  -92.2642   30.0369   -2.9791 N   0  0  0  0  0  0  0  0  0  0  0  0
  -92.8662   31.0885   -3.8906 C   0  0  0  0  0  0  0  0  0  0  0  0
  -90.9181   29.7697   -3.2321 C   0  0  0  0  0  0  0  0  0  0  0  0
  -90.4758   30.2774   -4.3396 O   0  0  0  0  0  0  0  0  0  0  0  0
  -84.3274   29.1440    2.2435 C   0  0  0  0  0  0  0  0  0  0  0  0
  -84.3201   27.7647    2.0231 F   0  0  0  0  0  0  0  0  0  0  0  0
  -83.0318   29.5627    2.2869 F   0  0  0  0  0  0  0  0  0  0  0  0
  -84.8701   29.3306    3.5255 F   0  0  0  0  0  0  0  0  0  0  0  0
  -85.0128   33.1550   -0.5793 C   0  0  0  0  0  0  0  0  0  0  0  0
  -85.9152   34.0067    0.0406 F   0  0  0  0  0  0  0  0  0  0  0  0
  -85.1393   33.3270   -1.9587 F   0  0  0  0  0  0  0  0  0  0  0  0
  -83.7765   33.4639   -0.1433 F   0  0  0  0  0  0  0  0  0  0  0  0
 13 14  1  0  0  0
 14 15  1  0  0  0
 14 16  1  0  0  0
 16 17  2  0  0  0
 16  7  1  0  0  0
  7  8  2  0  0  0
  8  9  1  0  0  0
  9 10  2  0  0  0
 10 11  1  0  0  0
 11 12  2  0  0  0
 11  1  1  0  0  0
  1  2  2  0  0  0
  2  3  1  0  0  0
  3  4  2  0  0  0
  4  5  1  0  0  0
  5  6  2  0  0  0
  5 18  1  0  0  0
 18 19  1  0  0  0
 18 20  1  0  0  0
 18 21  1  0  0  0
  3 22  1  0  0  0
 22 23  1  0  0  0
 22 24  1  0  0  0
 22 25  1  0  0  0
 12  7  1  0  0  0
  6  1  1  0  0  0
M  END
> <minimizedAffinity>
-8.59038

> <CNNscore>
0.3250193298

> <CNNaffinity>
5.3348870277

> <CNN_VS>
1.7339414358

> <CNNaffinity_variance>
0.4915656447

$$$$
[H]c1c([H])c(C(=O)N(C([H])([H])[H])C([H])([H])[H])c([H])c(-c2c([H])c(C(F)(F)F)c([H])c(C(F)(F)F)c2[H])c1[H]


 25 26  0  0  0  0  0  0  0  0999 V2000
  -86.0810   30.3665    0.2993 C   0  0  0  0  0  0  0  0  0  0  0  0
  -85.6951   29.3351    1.1276 C   0  0  0  0  0  0  0  0  0  0  0  0
  -84.4479   29.2349    1.6508 C   0  0  0  0  0  0  0  0  0  0  0  0
  -83.5306   30.2110    1.3417 C   0  0  0  0  0  0  0  0  0  0  0  0
  -83.8404   31.2564    0.5233 C   0  0  0  0  0  0  0  0  0  0  0  0
  -85.1467   31.3185   -0.0035 C   0  0  0  0  0  0  0  0  0  0  0  0
  -89.7448   29.7325   -0.4120 C   0  0  0  0  0  0  0  0  0  0  0  0
  -90.0846   31.0224   -0.9067 C   0  0  0  0  0  0  0  0  0  0  0  0
  -89.1600   32.0382   -1.0186 C   0  0  0  0  0  0  0  0  0  0  0  0
  -87.8595   31.8020   -0.6440 C   0  0  0  0  0  0  0  0  0  0  0  0
  -87.4489   30.5773   -0.1545 C   0  0  0  0  0  0  0  0  0  0  0  0
  -88.4248   29.5957   -0.0707 C   0  0  0  0  0  0  0  0  0  0  0  0
  -90.4313   27.2240   -2.3472 C   0  0  0  0  0  0  0  0  0  0  0  0
  -90.9276   27.5484   -1.0445 N   0  0  0  0  0  0  0  0  0  0  0  0
  -91.7598   26.4693   -0.3795 C   0  0  0  0  0  0  0  0  0  0  0  0
  -90.6779   28.6546   -0.2313 C   0  0  0  0  0  0  0  0  0  0  0  0
  -91.3870   28.6862    0.8533 O   0  0  0  0  0  0  0  0  0  0  0  0
  -82.9162   32.3387    0.2052 C   0  0  0  0  0  0  0  0  0  0  0  0
  -81.6188   31.8889   -0.0508 F   0  0  0  0  0  0  0  0  0  0  0  0
  -83.3362   33.0335   -0.8887 F   0  0  0  0  0  0  0  0  0  0  0  0
  -82.8089   33.2537    1.2656 F   0  0  0  0  0  0  0  0  0  0  0  0
  -83.9632   28.0740    2.4946 C   0  0  0  0  0  0  0  0  0  0  0  0
  -84.2910   28.3856    3.8059 F   0  0  0  0  0  0  0  0  0  0  0  0
  -82.5723   27.9970    2.4072 F   0  0  0  0  0  0  0  0  0  0  0  0
  -84.5542   26.9051    2.1806 F   0  0  0  0  0  0  0  0  0  0  0  0
 13 14  1  0  0  0
 14 15  1  0  0  0
 14 16  1  0  0  0
 16 17  2  0  0  0
 16  7  1  0  0  0
  7  8  2  0  0  0
  8  9  1  0  0  0
  9 10  2  0  0  0
 10 11  1  0  0  0
 11 12  2  0  0  0
 11  1  1  0  0  0
  1  2  2  0  0  0
  2  3  1  0  0  0
  3  4  2  0  0  0
  4  5  1  0  0  0
  5  6  2  0  0  0
  5 18  1  0  0  0
 18 19  1  0  0  0
 18 20  1  0  0  0
 18 21  1  0  0  0
  3 22  1  0  0  0
 22 23  1  0  0  0
 22 24  1  0  0  0
 22 25  1  0  0  0
 12  7  1  0  0  0
  6  1  1  0  0  0
M  END
> <minimizedAffinity>
-8.99400

> <CNNscore>
0.3208217919

> <CNNaffinity>
5.3813180923

> <CNN_VS>
1.7264441252

> <CNNaffinity_variance>
0.4409569800

$$$$
[H]c1c([H])c(C(=O)N(C([H])([H])[H])C([H])([H])[H])c([H])c(-c2c([H])c(C(F)(F)F)c([H])c(C(F)(F)F)c2[H])c1[H]


 25 26  0  0  0  0  0  0  0  0999 V2000
  -91.3561   25.5093   -0.6211 C   0  0  0  0  0  0  0  0  0  0  0  0
  -91.7695   25.9805   -1.8482 C   0  0  0  0  0  0  0  0  0  0  0  0
  -91.8406   27.3016   -2.1466 C   0  0  0  0  0  0  0  0  0  0  0  0
  -91.4788   28.2090   -1.1795 C   0  0  0  0  0  0  0  0  0  0  0  0
  -91.0668   27.8150    0.0589 C   0  0  0  0  0  0  0  0  0  0  0  0
  -91.0135   26.4321    0.3285 C   0  0  0  0  0  0  0  0  0  0  0  0
  -92.0371   21.8407    0.0180 C   0  0  0  0  0  0  0  0  0  0  0  0
  -90.6896   21.3958    0.1199 C   0  0  0  0  0  0  0  0  0  0  0  0
  -89.6174   22.2539    0.0042 C   0  0  0  0  0  0  0  0  0  0  0  0
  -89.8515   23.5900   -0.2137 C   0  0  0  0  0  0  0  0  0  0  0  0
  -91.1299   24.1014   -0.3242 C   0  0  0  0  0  0  0  0  0  0  0  0
  -92.1654   23.1884   -0.1941 C   0  0  0  0  0  0  0  0  0  0  0  0
  -94.0543   20.8757   -2.3291 C   0  0  0  0  0  0  0  0  0  0  0  0
  -94.0186   20.5280   -0.9412 N   0  0  0  0  0  0  0  0  0  0  0  0
  -94.9418   19.3971   -0.5313 C   0  0  0  0  0  0  0  0  0  0  0  0
  -93.1881   20.9827    0.0840 C   0  0  0  0  0  0  0  0  0  0  0  0
  -93.5047   20.5378    1.2595 O   0  0  0  0  0  0  0  0  0  0  0  0
  -90.6292   28.7381    1.0997 C   0  0  0  0  0  0  0  0  0  0  0  0
  -89.4535   28.3274    1.7322 F   0  0  0  0  0  0  0  0  0  0  0  0
  -90.4108   29.9818    0.5885 F   0  0  0  0  0  0  0  0  0  0  0  0
  -91.5926   28.8663    2.1138 F   0  0  0  0  0  0  0  0  0  0  0  0
  -92.3694   27.8579   -3.4525 C   0  0  0  0  0  0  0  0  0  0  0  0
  -92.2035   26.8546   -4.3958 F   0  0  0  0  0  0  0  0  0  0  0  0
  -91.5806   28.9431   -3.8378 F   0  0  0  0  0  0  0  0  0  0  0  0
  -93.6772   28.1765   -3.4042 F   0  0  0  0  0  0  0  0  0  0  0  0
 13 14  1  0  0  0
 14 15  1  0  0  0
 14 16  1  0  0  0
 16 17  2  0  0  0
 16  7  1  0  0  0
  7  8  2  0  0  0
  8  9  1  0  0  0
  9 10  2  0  0  0
 10 11  1  0  0  0
 11 12  2  0  0  0
 11  1  1  0  0  0
  1  2  2  0  0  0
  2  3  1  0  0  0
  3  4  2  0  0  0
  4  5  1  0  0  0
  5  6  2  0  0  0
  5 18  1  0  0  0
 18 19  1  0  0  0
 18 20  1  0  0  0
 18 21  1  0  0  0
  3 22  1  0  0  0
 22 23  1  0  0  0
 22 24  1  0  0  0
 22 25  1  0  0  0
 12  7  1  0  0  0
  6  1  1  0  0  0
M  END
> <minimizedAffinity>
-4.97586

> <CNNscore>
0.3161852658

> <CNNaffinity>
4.3948554993

> <CNN_VS>
1.3895885944

> <CNNaffinity_variance>
0.3465248644

$$$$
[H]c1c([H])c(C(=O)N(C([H])([H])[H])C([H])([H])[H])c([H])c(-c2c([H])c(C(F)(F)F)c([H])c(C(F)(F)F)c2[H])c1[H]


 25 26  0  0  0  0  0  0  0  0999 V2000
  -86.0394   29.5642   -0.2719 C   0  0  0  0  0  0  0  0  0  0  0  0
  -85.5946   28.7273    0.7284 C   0  0  0  0  0  0  0  0  0  0  0  0
  -84.5465   29.0308    1.5339 C   0  0  0  0  0  0  0  0  0  0  0  0
  -83.9038   30.2308    1.3435 C   0  0  0  0  0  0  0  0  0  0  0  0
  -84.2849   31.1047    0.3690 C   0  0  0  0  0  0  0  0  0  0  0  0
  -85.3756   30.7468   -0.4497 C   0  0  0  0  0  0  0  0  0  0  0  0
  -88.7002   29.9503   -2.9369 C   0  0  0  0  0  0  0  0  0  0  0  0
  -89.4878   28.8121   -2.6079 C   0  0  0  0  0  0  0  0  0  0  0  0
  -89.1747   27.9749   -1.5589 C   0  0  0  0  0  0  0  0  0  0  0  0
  -88.0645   28.2459   -0.7964 C   0  0  0  0  0  0  0  0  0  0  0  0
  -87.2484   29.3312   -1.0501 C   0  0  0  0  0  0  0  0  0  0  0  0
  -87.6195   30.1375   -2.1155 C   0  0  0  0  0  0  0  0  0  0  0  0
  -91.2025   31.9348   -3.4927 C   0  0  0  0  0  0  0  0  0  0  0  0
  -90.0082   31.7197   -4.2515 N   0  0  0  0  0  0  0  0  0  0  0  0
  -89.7788   32.6931   -5.3912 C   0  0  0  0  0  0  0  0  0  0  0  0
  -88.9550   30.8273   -4.0465 C   0  0  0  0  0  0  0  0  0  0  0  0
  -88.0754   30.8176   -4.9985 O   0  0  0  0  0  0  0  0  0  0  0  0
  -83.6641   32.4077    0.1603 C   0  0  0  0  0  0  0  0  0  0  0  0
  -82.8068   32.4318   -0.9422 F   0  0  0  0  0  0  0  0  0  0  0  0
  -84.6069   33.3728   -0.0281 F   0  0  0  0  0  0  0  0  0  0  0  0
  -82.8876   32.7921    1.2658 F   0  0  0  0  0  0  0  0  0  0  0  0
  -83.9770   28.1014    2.5858 C   0  0  0  0  0  0  0  0  0  0  0  0
  -84.4027   28.5956    3.8099 F   0  0  0  0  0  0  0  0  0  0  0  0
  -82.5836   28.1773    2.5541 F   0  0  0  0  0  0  0  0  0  0  0  0
  -84.4162   26.8335    2.4693 F   0  0  0  0  0  0  0  0  0  0  0  0
 13 14  1  0  0  0
 14 15  1  0  0  0
 14 16  1  0  0  0
 16 17  2  0  0  0
 16  7  1  0  0  0
  7  8  2  0  0  0
  8  9  1  0  0  0
  9 10  2  0  0  0
 10 11  1  0  0  0
 11 12  2  0  0  0
 11  1  1  0  0  0
  1  2  2  0  0  0
  2  3  1  0  0  0
  3  4  2  0  0  0
  4  5  1  0  0  0
  5  6  2  0  0  0
  5 18  1  0  0  0
 18 19  1  0  0  0
 18 20  1  0  0  0
 18 21  1  0  0  0
  3 22  1  0  0  0
 22 23  1  0  0  0
 22 24  1  0  0  0
 22 25  1  0  0  0
 12  7  1  0  0  0
  6  1  1  0  0  0
M  END
> <minimizedAffinity>
-8.83621

> <CNNscore>
0.3068620265

> <CNNaffinity>
5.4038496017

> <CNN_VS>
1.6582362652

> <CNNaffinity_variance>
0.4312532544

$$$$
[H]c1c([H])c(C(=O)N(C([H])([H])[H])C([H])([H])[H])c([H])c(-c2c([H])c(C(F)(F)F)c([H])c(C(F)(F)F)c2[H])c1[H]


 25 26  0  0  0  0  0  0  0  0999 V2000
  -86.5309   29.8522    0.6367 C   0  0  0  0  0  0  0  0  0  0  0  0
  -87.1006   30.8327   -0.1461 C   0  0  0  0  0  0  0  0  0  0  0  0
  -86.4223   31.9292   -0.5668 C   0  0  0  0  0  0  0  0  0  0  0  0
  -85.1053   32.0631   -0.1966 C   0  0  0  0  0  0  0  0  0  0  0  0
  -84.4788   31.1361    0.5823 C   0  0  0  0  0  0  0  0  0  0  0  0
  -85.2229   30.0145    1.0022 C   0  0  0  0  0  0  0  0  0  0  0  0
  -89.1228   27.0952    0.7479 C   0  0  0  0  0  0  0  0  0  0  0  0
  -88.3910   26.1560    1.5266 C   0  0  0  0  0  0  0  0  0  0  0  0
  -87.1254   26.4189    2.0046 C   0  0  0  0  0  0  0  0  0  0  0  0
  -86.5448   27.6325    1.7258 C   0  0  0  0  0  0  0  0  0  0  0  0
  -87.1890   28.5982    0.9773 C   0  0  0  0  0  0  0  0  0  0  0  0
  -88.4610   28.2751    0.5295 C   0  0  0  0  0  0  0  0  0  0  0  0
  -89.9688   25.4801   -1.9325 C   0  0  0  0  0  0  0  0  0  0  0  0
  -90.7830   26.1105   -0.9383 N   0  0  0  0  0  0  0  0  0  0  0  0
  -92.2694   25.8299   -1.0430 C   0  0  0  0  0  0  0  0  0  0  0  0
  -90.4235   26.8541    0.1865 C   0  0  0  0  0  0  0  0  0  0  0  0
  -91.4265   27.3797    0.8173 O   0  0  0  0  0  0  0  0  0  0  0  0
  -83.0724   31.2119    0.9607 C   0  0  0  0  0  0  0  0  0  0  0  0
  -82.2099   31.1550   -0.1365 F   0  0  0  0  0  0  0  0  0  0  0  0
  -82.8098   32.3668    1.6336 F   0  0  0  0  0  0  0  0  0  0  0  0
  -82.7059   30.1467    1.7997 F   0  0  0  0  0  0  0  0  0  0  0  0
  -87.0371   33.0668   -1.3556 C   0  0  0  0  0  0  0  0  0  0  0  0
  -86.9996   32.6791   -2.6869 F   0  0  0  0  0  0  0  0  0  0  0  0
  -86.2366   34.2018   -1.2171 F   0  0  0  0  0  0  0  0  0  0  0  0
  -88.3200   33.3106   -1.0255 F   0  0  0  0  0  0  0  0  0  0  0  0
 13 14  1  0  0  0
 14 15  1  0  0  0
 14 16  1  0  0  0
 16 17  2  0  0  0
 16  7  1  0  0  0
  7  8  2  0  0  0
  8  9  1  0  0  0
  9 10  2  0  0  0
 10 11  1  0  0  0
 11 12  2  0  0  0
 11  1  1  0  0  0
  1  2  2  0  0  0
  2  3  1  0  0  0
  3  4  2  0  0  0
  4  5  1  0  0  0
  5  6  2  0  0  0
  5 18  1  0  0  0
 18 19  1  0  0  0
 18 20  1  0  0  0
 18 21  1  0  0  0
  3 22  1  0  0  0
 22 23  1  0  0  0
 22 24  1  0  0  0
 22 25  1  0  0  0
 12  7  1  0  0  0
  6  1  1  0  0  0
M  END
> <minimizedAffinity>
-8.99212

> <CNNscore>
0.3025149703

> <CNNaffinity>
5.4823064804

> <CNN_VS>
1.6584798098

> <CNNaffinity_variance>
0.4001459479

$$$$
[H]c1c([H])c(C(=O)N(C([H])([H])[H])C([H])([H])[H])c([H])c(-c2c([H])c(C(F)(F)F)c([H])c(C(F)(F)F)c2[H])c1[H]


 25 26  0  0  0  0  0  0  0  0999 V2000
  -87.2111   29.8077   -0.1549 C   0  0  0  0  0  0  0  0  0  0  0  0
  -87.2046   30.9915   -0.8602 C   0  0  0  0  0  0  0  0  0  0  0  0
  -86.3474   32.0074   -0.5909 C   0  0  0  0  0  0  0  0  0  0  0  0
  -85.4423   31.8434    0.4306 C   0  0  0  0  0  0  0  0  0  0  0  0
  -85.3962   30.7022    1.1750 C   0  0  0  0  0  0  0  0  0  0  0  0
  -86.3093   29.6737    0.8649 C   0  0  0  0  0  0  0  0  0  0  0  0
  -90.1458   27.7259   -1.3314 C   0  0  0  0  0  0  0  0  0  0  0  0
  -89.5112   26.4526   -1.3235 C   0  0  0  0  0  0  0  0  0  0  0  0
  -88.1995   26.2829   -0.9362 C   0  0  0  0  0  0  0  0  0  0  0  0
  -87.4734   27.3792   -0.5380 C   0  0  0  0  0  0  0  0  0  0  0  0
  -88.0163   28.6492   -0.5168 C   0  0  0  0  0  0  0  0  0  0  0  0
  -89.3410   28.7531   -0.9132 C   0  0  0  0  0  0  0  0  0  0  0  0
  -91.7742   26.4731   -3.8389 C   0  0  0  0  0  0  0  0  0  0  0  0
  -92.2047   27.3793   -2.8181 N   0  0  0  0  0  0  0  0  0  0  0  0
  -93.6946   27.6592   -2.7845 C   0  0  0  0  0  0  0  0  0  0  0  0
  -91.4934   27.9646   -1.7698 C   0  0  0  0  0  0  0  0  0  0  0  0
  -92.1720   28.8342   -1.0892 O   0  0  0  0  0  0  0  0  0  0  0  0
  -84.4241   30.4649    2.2359 C   0  0  0  0  0  0  0  0  0  0  0  0
  -84.9187   29.6463    3.2540 F   0  0  0  0  0  0  0  0  0  0  0  0
  -83.2980   29.8775    1.7435 F   0  0  0  0  0  0  0  0  0  0  0  0
  -84.0336   31.6635    2.8553 F   0  0  0  0  0  0  0  0  0  0  0  0
  -86.3668   33.3523   -1.2874 C   0  0  0  0  0  0  0  0  0  0  0  0
  -85.8821   34.2710   -0.3681 F   0  0  0  0  0  0  0  0  0  0  0  0
  -87.6880   33.6948   -1.5797 F   0  0  0  0  0  0  0  0  0  0  0  0
  -85.5803   33.3969   -2.3799 F   0  0  0  0  0  0  0  0  0  0  0  0
 13 14  1  0  0  0
 14 15  1  0  0  0
 14 16  1  0  0  0
 16 17  2  0  0  0
 16  7  1  0  0  0
  7  8  2  0  0  0
  8  9  1  0  0  0
  9 10  2  0  0  0
 10 11  1  0  0  0
 11 12  2  0  0  0
 11  1  1  0  0  0
  1  2  2  0  0  0
  2  3  1  0  0  0
  3  4  2  0  0  0
  4  5  1  0  0  0
  5  6  2  0  0  0
  5 18  1  0  0  0
 18 19  1  0  0  0
 18 20  1  0  0  0
 18 21  1  0  0  0
  3 22  1  0  0  0
 22 23  1  0  0  0
 22 24  1  0  0  0
 22 25  1  0  0  0
 12  7  1  0  0  0
  6  1  1  0  0  0
M  END
> <minimizedAffinity>
-8.39402

> <CNNscore>
0.2891130745

> <CNNaffinity>
5.1565523148

> <CNN_VS>
1.4908267260

> <CNNaffinity_variance>
0.5339057446

$$$$
[H]Oc1c([H])c([H])c([C@]2([H])Sc3c([H])c(O[H])c([H])c([H])c3O[C@@]2([H])c2c([H])c([H])c(OC([H])([H])C([H])([H])N3C([H])([H])C([H])([H])C([H])([H])C([H])([H])C3([H])[H])c([H])c2[H])c([H])c1[H]


 35 39  0  0  0  0  0  0  0  0999 V2000
  -87.7502   29.2725   -0.5354 C   0  0  0  0  0  0  0  0  0  0  0  0
  -87.2159   27.8985    0.5328 S   0  0  0  0  0  0  0  0  0  0  0  0
  -85.6853   28.3815    1.2512 C   0  0  0  0  0  0  0  0  0  0  0  0
  -84.9200   27.4826    1.9167 C   0  0  0  0  0  0  0  0  0  0  0  0
  -83.6975   27.8451    2.4942 C   0  0  0  0  0  0  0  0  0  0  0  0
  -82.8936   26.9548    3.1780 O   0  0  0  0  0  0  0  0  0  0  0  0
  -83.2715   29.1481    2.3782 C   0  0  0  0  0  0  0  0  0  0  0  0
  -84.0302   30.0737    1.7089 C   0  0  0  0  0  0  0  0  0  0  0  0
  -85.2420   29.6708    1.1483 C   0  0  0  0  0  0  0  0  0  0  0  0
  -85.9799   30.5964    0.4912 O   0  0  0  0  0  0  0  0  0  0  0  0
  -87.3333   30.5398    0.1293 C   0  0  0  0  0  0  0  0  0  0  0  0
  -82.1990   26.4555    2.6066 H   0  0  0  0  0  0  0  0  0  0  0  0
  -93.3812   29.2174   -1.3191 O   0  0  0  0  0  0  0  0  0  0  0  0
  -91.9852   29.2310   -1.1358 C   0  0  0  0  0  0  0  0  0  0  0  0
  -91.1133   29.2827   -2.1997 C   0  0  0  0  0  0  0  0  0  0  0  0
  -89.7459   29.2961   -2.0220 C   0  0  0  0  0  0  0  0  0  0  0  0
  -89.2004   29.2576   -0.7578 C   0  0  0  0  0  0  0  0  0  0  0  0
  -90.0723   29.2051    0.3235 C   0  0  0  0  0  0  0  0  0  0  0  0
  -91.4315   29.1926    0.1264 C   0  0  0  0  0  0  0  0  0  0  0  0
  -93.9104   30.1009   -1.3548 H   0  0  0  0  0  0  0  0  0  0  0  0
  -87.5406   31.6804   -0.8290 C   0  0  0  0  0  0  0  0  0  0  0  0
  -88.7361   32.3540   -0.9078 C   0  0  0  0  0  0  0  0  0  0  0  0
  -88.9262   33.3985   -1.7767 C   0  0  0  0  0  0  0  0  0  0  0  0
  -87.9030   33.8444   -2.6430 C   0  0  0  0  0  0  0  0  0  0  0  0
  -86.7157   33.1622   -2.5546 C   0  0  0  0  0  0  0  0  0  0  0  0
  -86.5396   32.1034   -1.6658 C   0  0  0  0  0  0  0  0  0  0  0  0
  -88.1650   34.8944   -3.4871 O   0  0  0  0  0  0  0  0  0  0  0  0
  -87.9416   35.0031   -4.8275 C   0  0  0  0  0  0  0  0  0  0  0  0
  -88.5422   36.2053   -5.5258 C   0  0  0  0  0  0  0  0  0  0  0  0
  -89.5135   35.7467   -6.4585 N   0  0  0  0  0  0  0  0  0  0  0  0
  -90.6905   35.1503   -5.9476 C   0  0  0  0  0  0  0  0  0  0  0  0
  -91.0537   33.9891   -6.8739 C   0  0  0  0  0  0  0  0  0  0  0  0
  -90.9653   34.4667   -8.3034 C   0  0  0  0  0  0  0  0  0  0  0  0
  -90.8745   35.9787   -8.4078 C   0  0  0  0  0  0  0  0  0  0  0  0
  -89.6413   36.4615   -7.6746 C   0  0  0  0  0  0  0  0  0  0  0  0
 13 14  1  0  0  0
 14 15  2  0  0  0
 15 16  1  0  0  0
 16 17  2  0  0  0
 17 18  1  0  0  0
 18 19  2  0  0  0
 17  1  1  0  0  0
  1  2  1  0  0  0
  2  3  1  0  0  0
  3  4  2  0  0  0
  4  5  1  0  0  0
  5  6  1  0  0  0
  5  7  2  0  0  0
  7  8  1  0  0  0
  8  9  2  0  0  0
  9 10  1  0  0  0
 10 11  1  0  0  0
 11 21  1  0  0  0
 21 22  2  0  0  0
 22 23  1  0  0  0
 23 24  2  0  0  0
 24 27  1  0  0  0
 27 28  1  0  0  0
 28 29  1  0  0  0
 29 30  1  0  0  0
 30 31  1  0  0  0
 31 32  1  0  0  0
 32 33  1  0  0  0
 33 34  1  0  0  0
 34 35  1  0  0  0
 24 25  1  0  0  0
 25 26  2  0  0  0
 19 14  1  0  0  0
 11  1  1  0  0  0
 26 21  1  0  0  0
  9  3  1  0  0  0
 35 30  1  0  0  0
 13 20  1  0  0  0
  6 12  1  0  0  0
M  END
> <minimizedAffinity>
-9.30412

> <CNNscore>
0.2372136563

> <CNNaffinity>
6.3581991196

> <CNN_VS>
1.5082516670

> <CNNaffinity_variance>
0.1226129755

$$$$
[H]Oc1c([H])c([H])c([C@]2([H])Sc3c([H])c(O[H])c([H])c([H])c3O[C@@]2([H])c2c([H])c([H])c(OC([H])([H])C([H])([H])N3C([H])([H])C([H])([H])C([H])([H])C([H])([H])C3([H])[H])c([H])c2[H])c([H])c1[H]


 35 39  0  0  0  0  0  0  0  0999 V2000
  -87.6597   29.9276   -1.0269 C   0  0  0  0  0  0  0  0  0  0  0  0
  -86.8539   28.8097    0.1629 S   0  0  0  0  0  0  0  0  0  0  0  0
  -85.3350   29.5681    0.6212 C   0  0  0  0  0  0  0  0  0  0  0  0
  -84.4006   28.8776    1.3189 C   0  0  0  0  0  0  0  0  0  0  0  0
  -83.1841   29.4610    1.6920 C   0  0  0  0  0  0  0  0  0  0  0  0
  -82.2110   28.7862    2.4019 O   0  0  0  0  0  0  0  0  0  0  0  0
  -82.9408   30.7678    1.3373 C   0  0  0  0  0  0  0  0  0  0  0  0
  -83.8725   31.4847    0.6312 C   0  0  0  0  0  0  0  0  0  0  0  0
  -85.0716   30.8655    0.2794 C   0  0  0  0  0  0  0  0  0  0  0  0
  -85.9815   31.5865   -0.4171 O   0  0  0  0  0  0  0  0  0  0  0  0
  -87.3453   31.3231   -0.6082 C   0  0  0  0  0  0  0  0  0  0  0  0
  -81.5170   28.2821    1.8338 H   0  0  0  0  0  0  0  0  0  0  0  0
  -93.2788   29.1030   -1.2953 O   0  0  0  0  0  0  0  0  0  0  0  0
  -91.8878   29.3078   -1.2180 C   0  0  0  0  0  0  0  0  0  0  0  0
  -91.2374   29.4294   -0.0110 C   0  0  0  0  0  0  0  0  0  0  0  0
  -89.8753   29.6299    0.0666 C   0  0  0  0  0  0  0  0  0  0  0  0
  -89.1108   29.7166   -1.0760 C   0  0  0  0  0  0  0  0  0  0  0  0
  -89.7581   29.5953   -2.3001 C   0  0  0  0  0  0  0  0  0  0  0  0
  -91.1158   29.3957   -2.3570 C   0  0  0  0  0  0  0  0  0  0  0  0
  -93.6647   28.1476   -1.3040 H   0  0  0  0  0  0  0  0  0  0  0  0
  -87.7879   32.2658   -1.6934 C   0  0  0  0  0  0  0  0  0  0  0  0
  -88.8453   33.1267   -1.5202 C   0  0  0  0  0  0  0  0  0  0  0  0
  -89.2476   33.9918   -2.5061 C   0  0  0  0  0  0  0  0  0  0  0  0
  -88.5979   34.0491   -3.7594 C   0  0  0  0  0  0  0  0  0  0  0  0
  -87.5453   33.1835   -3.9190 C   0  0  0  0  0  0  0  0  0  0  0  0
  -87.1496   32.3113   -2.9066 C   0  0  0  0  0  0  0  0  0  0  0  0
  -89.0560   34.9383   -4.6993 O   0  0  0  0  0  0  0  0  0  0  0  0
  -90.2266   35.6362   -4.7316 C   0  0  0  0  0  0  0  0  0  0  0  0
  -90.1221   37.1420   -4.8544 C   0  0  0  0  0  0  0  0  0  0  0  0
  -88.7581   37.4836   -5.0697 N   0  0  0  0  0  0  0  0  0  0  0  0
  -88.3423   37.7389   -6.3978 C   0  0  0  0  0  0  0  0  0  0  0  0
  -86.9386   37.1538   -6.5579 C   0  0  0  0  0  0  0  0  0  0  0  0
  -86.1029   37.5741   -5.3728 C   0  0  0  0  0  0  0  0  0  0  0  0
  -86.7544   38.6818   -4.5641 C   0  0  0  0  0  0  0  0  0  0  0  0
  -88.0957   38.2069   -4.0477 C   0  0  0  0  0  0  0  0  0  0  0  0
 13 14  1  0  0  0
 14 15  2  0  0  0
 15 16  1  0  0  0
 16 17  2  0  0  0
 17 18  1  0  0  0
 18 19  2  0  0  0
 17  1  1  0  0  0
  1  2  1  0  0  0
  2  3  1  0  0  0
  3  4  2  0  0  0
  4  5  1  0  0  0
  5  6  1  0  0  0
  5  7  2  0  0  0
  7  8  1  0  0  0
  8  9  2  0  0  0
  9 10  1  0  0  0
 10 11  1  0  0  0
 11 21  1  0  0  0
 21 22  2  0  0  0
 22 23  1  0  0  0
 23 24  2  0  0  0
 24 27  1  0  0  0
 27 28  1  0  0  0
 28 29  1  0  0  0
 29 30  1  0  0  0
 30 31  1  0  0  0
 31 32  1  0  0  0
 32 33  1  0  0  0
 33 34  1  0  0  0
 34 35  1  0  0  0
 24 25  1  0  0  0
 25 26  2  0  0  0
 19 14  1  0  0  0
 11  1  1  0  0  0
 26 21  1  0  0  0
  9  3  1  0  0  0
 35 30  1  0  0  0
 13 20  1  0  0  0
  6 12  1  0  0  0
M  END
> <minimizedAffinity>
-8.40961

> <CNNscore>
0.2192849666

> <CNNaffinity>
6.4904427528

> <CNN_VS>
1.4232565165

> <CNNaffinity_variance>
0.1431198418

$$$$
[H]Oc1c([H])c([H])c([C@]2([H])Sc3c([H])c(O[H])c([H])c([H])c3O[C@@]2([H])c2c([H])c([H])c(OC([H])([H])C([H])([H])N3C([H])([H])C([H])([H])C([H])([H])C([H])([H])C3([H])[H])c([H])c2[H])c([H])c1[H]


 35 39  0  0  0  0  0  0  0  0999 V2000
  -87.6110   30.4671   -1.6036 C   0  0  0  0  0  0  0  0  0  0  0  0
  -86.9757   29.1783   -0.4855 S   0  0  0  0  0  0  0  0  0  0  0  0
  -85.5595   29.8516    0.3102 C   0  0  0  0  0  0  0  0  0  0  0  0
  -84.7300   29.0591    1.0317 C   0  0  0  0  0  0  0  0  0  0  0  0
  -83.5962   29.5738    1.6713 C   0  0  0  0  0  0  0  0  0  0  0  0
  -82.7306   28.7949    2.4131 O   0  0  0  0  0  0  0  0  0  0  0  0
  -83.3262   30.9181    1.5588 C   0  0  0  0  0  0  0  0  0  0  0  0
  -84.1522   31.7379    0.8335 C   0  0  0  0  0  0  0  0  0  0  0  0
  -85.2715   31.1846    0.2120 C   0  0  0  0  0  0  0  0  0  0  0  0
  -86.0775   32.0069   -0.5000 O   0  0  0  0  0  0  0  0  0  0  0  0
  -87.3907   31.7817   -0.9365 C   0  0  0  0  0  0  0  0  0  0  0  0
  -81.9485   28.3795    1.8896 H   0  0  0  0  0  0  0  0  0  0  0  0
  -93.1058   29.7156   -2.8558 O   0  0  0  0  0  0  0  0  0  0  0  0
  -91.7473   29.9010   -2.5350 C   0  0  0  0  0  0  0  0  0  0  0  0
  -91.2980   29.8753   -1.2343 C   0  0  0  0  0  0  0  0  0  0  0  0
  -89.9680   30.0567   -0.9183 C   0  0  0  0  0  0  0  0  0  0  0  0
  -89.0332   30.2725   -1.9069 C   0  0  0  0  0  0  0  0  0  0  0  0
  -89.4768   30.3005   -3.2240 C   0  0  0  0  0  0  0  0  0  0  0  0
  -90.8057   30.1177   -3.5187 C   0  0  0  0  0  0  0  0  0  0  0  0
  -93.4735   28.7704   -3.0377 H   0  0  0  0  0  0  0  0  0  0  0  0
  -87.6798   32.8798   -1.9228 C   0  0  0  0  0  0  0  0  0  0  0  0
  -88.9017   33.5073   -1.9728 C   0  0  0  0  0  0  0  0  0  0  0  0
  -89.1664   34.5133   -2.8674 C   0  0  0  0  0  0  0  0  0  0  0  0
  -88.1973   34.9645   -3.7913 C   0  0  0  0  0  0  0  0  0  0  0  0
  -86.9830   34.3284   -3.7311 C   0  0  0  0  0  0  0  0  0  0  0  0
  -86.7309   33.3084   -2.8156 C   0  0  0  0  0  0  0  0  0  0  0  0
  -88.5329   35.9743   -4.6582 O   0  0  0  0  0  0  0  0  0  0  0  0
  -88.5107   35.9871   -6.0211 C   0  0  0  0  0  0  0  0  0  0  0  0
  -89.8111   36.3177   -6.7234 C   0  0  0  0  0  0  0  0  0  0  0  0
  -90.8147   35.4228   -6.2592 N   0  0  0  0  0  0  0  0  0  0  0  0
  -92.1137   35.9409   -6.0436 C   0  0  0  0  0  0  0  0  0  0  0  0
  -92.6740   35.2637   -4.7923 C   0  0  0  0  0  0  0  0  0  0  0  0
  -92.4215   33.7787   -4.8936 C   0  0  0  0  0  0  0  0  0  0  0  0
  -92.0056   33.3524   -6.2902 C   0  0  0  0  0  0  0  0  0  0  0  0
  -90.7322   34.0725   -6.6789 C   0  0  0  0  0  0  0  0  0  0  0  0
 13 14  1  0  0  0
 14 15  2  0  0  0
 15 16  1  0  0  0
 16 17  2  0  0  0
 17 18  1  0  0  0
 18 19  2  0  0  0
 17  1  1  0  0  0
  1  2  1  0  0  0
  2  3  1  0  0  0
  3  4  2  0  0  0
  4  5  1  0  0  0
  5  6  1  0  0  0
  5  7  2  0  0  0
  7  8  1  0  0  0
  8  9  2  0  0  0
  9 10  1  0  0  0
 10 11  1  0  0  0
 11 21  1  0  0  0
 21 22  2  0  0  0
 22 23  1  0  0  0
 23 24  2  0  0  0
 24 27  1  0  0  0
 27 28  1  0  0  0
 28 29  1  0  0  0
 29 30  1  0  0  0
 30 31  1  0  0  0
 31 32  1  0  0  0
 32 33  1  0  0  0
 33 34  1  0  0  0
 34 35  1  0  0  0
 24 25  1  0  0  0
 25 26  2  0  0  0
 19 14  1  0  0  0
 11  1  1  0  0  0
 26 21  1  0  0  0
  9  3  1  0  0  0
 35 30  1  0  0  0
 13 20  1  0  0  0
  6 12  1  0  0  0
M  END
> <minimizedAffinity>
-7.96186

> <CNNscore>
0.1988029331

> <CNNaffinity>
6.4182777405

> <CNN_VS>
1.2759724855

> <CNNaffinity_variance>
0.2006292045

$$$$
[H]Oc1c([H])c([H])c([C@]2([H])Sc3c([H])c(O[H])c([H])c([H])c3O[C@@]2([H])c2c([H])c([H])c(OC([H])([H])C([H])([H])N3C([H])([H])C([H])([H])C([H])([H])C([H])([H])C3([H])[H])c([H])c2[H])c([H])c1[H]


 35 39  0  0  0  0  0  0  0  0999 V2000
  -87.7327   29.2867   -0.5319 C   0  0  0  0  0  0  0  0  0  0  0  0
  -87.1994   27.8947    0.5134 S   0  0  0  0  0  0  0  0  0  0  0  0
  -85.6776   28.3718    1.2541 C   0  0  0  0  0  0  0  0  0  0  0  0
  -84.9126   27.4641    1.9080 C   0  0  0  0  0  0  0  0  0  0  0  0
  -83.6971   27.8219    2.5028 C   0  0  0  0  0  0  0  0  0  0  0  0
  -82.8937   26.9227    3.1755 O   0  0  0  0  0  0  0  0  0  0  0  0
  -83.2775   29.1293    2.4161 C   0  0  0  0  0  0  0  0  0  0  0  0
  -84.0360   30.0638    1.7590 C   0  0  0  0  0  0  0  0  0  0  0  0
  -85.2408   29.6654    1.1804 C   0  0  0  0  0  0  0  0  0  0  0  0
  -85.9785   30.5997    0.5356 O   0  0  0  0  0  0  0  0  0  0  0  0
  -87.3285   30.5428    0.1614 C   0  0  0  0  0  0  0  0  0  0  0  0
  -82.1916   26.4387    2.6001 H   0  0  0  0  0  0  0  0  0  0  0  0
  -93.3566   29.2167   -1.3636 O   0  0  0  0  0  0  0  0  0  0  0  0
  -91.9623   29.2341   -1.1684 C   0  0  0  0  0  0  0  0  0  0  0  0
  -91.0817   29.2984   -2.2243 C   0  0  0  0  0  0  0  0  0  0  0  0
  -89.7159   29.3156   -2.0350 C   0  0  0  0  0  0  0  0  0  0  0  0
  -89.1809   29.2681   -0.7666 C   0  0  0  0  0  0  0  0  0  0  0  0
  -90.0617   29.2028    0.3068 C   0  0  0  0  0  0  0  0  0  0  0  0
  -91.4191   29.1867    0.0981 C   0  0  0  0  0  0  0  0  0  0  0  0
  -93.8889   30.0984   -1.3961 H   0  0  0  0  0  0  0  0  0  0  0  0
  -87.5344   31.7010   -0.7758 C   0  0  0  0  0  0  0  0  0  0  0  0
  -88.7286   32.3785   -0.8411 C   0  0  0  0  0  0  0  0  0  0  0  0
  -88.9174   33.4390   -1.6907 C   0  0  0  0  0  0  0  0  0  0  0  0
  -87.8942   33.8983   -2.5499 C   0  0  0  0  0  0  0  0  0  0  0  0
  -86.7083   33.2121   -2.4752 C   0  0  0  0  0  0  0  0  0  0  0  0
  -86.5334   32.1370   -1.6060 C   0  0  0  0  0  0  0  0  0  0  0  0
  -88.1549   34.9641   -3.3745 O   0  0  0  0  0  0  0  0  0  0  0  0
  -87.4913   35.3756   -4.4919 C   0  0  0  0  0  0  0  0  0  0  0  0
  -88.2804   35.4051   -5.7842 C   0  0  0  0  0  0  0  0  0  0  0  0
  -87.8720   36.5413   -6.5364 N   0  0  0  0  0  0  0  0  0  0  0  0
  -88.8772   37.4204   -7.0043 C   0  0  0  0  0  0  0  0  0  0  0  0
  -88.4629   37.8866   -8.4005 C   0  0  0  0  0  0  0  0  0  0  0  0
  -87.0101   38.2957   -8.3610 C   0  0  0  0  0  0  0  0  0  0  0  0
  -86.4846   38.4426   -6.9441 C   0  0  0  0  0  0  0  0  0  0  0  0
  -86.6203   37.1222   -6.2166 C   0  0  0  0  0  0  0  0  0  0  0  0
 13 14  1  0  0  0
 14 15  2  0  0  0
 15 16  1  0  0  0
 16 17  2  0  0  0
 17 18  1  0  0  0
 18 19  2  0  0  0
 17  1  1  0  0  0
  1  2  1  0  0  0
  2  3  1  0  0  0
  3  4  2  0  0  0
  4  5  1  0  0  0
  5  6  1  0  0  0
  5  7  2  0  0  0
  7  8  1  0  0  0
  8  9  2  0  0  0
  9 10  1  0  0  0
 10 11  1  0  0  0
 11 21  1  0  0  0
 21 22  2  0  0  0
 22 23  1  0  0  0
 23 24  2  0  0  0
 24 27  1  0  0  0
 27 28  1  0  0  0
 28 29  1  0  0  0
 29 30  1  0  0  0
 30 31  1  0  0  0
 31 32  1  0  0  0
 32 33  1  0  0  0
 33 34  1  0  0  0
 34 35  1  0  0  0
 24 25  1  0  0  0
 25 26  2  0  0  0
 19 14  1  0  0  0
 11  1  1  0  0  0
 26 21  1  0  0  0
  9  3  1  0  0  0
 35 30  1  0  0  0
 13 20  1  0  0  0
  6 12  1  0  0  0
M  END
> <minimizedAffinity>
-9.35081

> <CNNscore>
0.1965352446

> <CNNaffinity>
6.2674798965

> <CNN_VS>
1.2317806482

> <CNNaffinity_variance>
0.0855515972

$$$$
[H]Oc1c([H])c([H])c([C@]2([H])Sc3c([H])c(O[H])c([H])c([H])c3O[C@@]2([H])c2c([H])c([H])c(OC([H])([H])C([H])([H])N3C([H])([H])C([H])([H])C([H])([H])C([H])([H])C3([H])[H])c([H])c2[H])c([H])c1[H]


 35 39  0  0  0  0  0  0  0  0999 V2000
  -87.7597   29.8327   -1.0370 C   0  0  0  0  0  0  0  0  0  0  0  0
  -86.9763   28.7270    0.1789 S   0  0  0  0  0  0  0  0  0  0  0  0
  -85.4467   29.4697    0.6268 C   0  0  0  0  0  0  0  0  0  0  0  0
  -84.5261   28.7787    1.3422 C   0  0  0  0  0  0  0  0  0  0  0  0
  -83.3015   29.3498    1.7075 C   0  0  0  0  0  0  0  0  0  0  0  0
  -82.3419   28.6741    2.4350 O   0  0  0  0  0  0  0  0  0  0  0  0
  -83.0354   30.6447    1.3265 C   0  0  0  0  0  0  0  0  0  0  0  0
  -83.9528   31.3618    0.6022 C   0  0  0  0  0  0  0  0  0  0  0  0
  -85.1608   30.7552    0.2590 C   0  0  0  0  0  0  0  0  0  0  0  0
  -86.0563   31.4763   -0.4558 O   0  0  0  0  0  0  0  0  0  0  0  0
  -87.4236   31.2314   -0.6464 C   0  0  0  0  0  0  0  0  0  0  0  0
  -81.6545   28.1469    1.8801 H   0  0  0  0  0  0  0  0  0  0  0  0
  -93.3913   29.1002   -1.3092 O   0  0  0  0  0  0  0  0  0  0  0  0
  -91.9971   29.2818   -1.2308 C   0  0  0  0  0  0  0  0  0  0  0  0
  -91.3389   29.3409   -0.0234 C   0  0  0  0  0  0  0  0  0  0  0  0
  -89.9737   29.5186    0.0551 C   0  0  0  0  0  0  0  0  0  0  0  0
  -89.2139   29.6446   -1.0869 C   0  0  0  0  0  0  0  0  0  0  0  0
  -89.8690   29.5864   -2.3115 C   0  0  0  0  0  0  0  0  0  0  0  0
  -91.2297   29.4088   -2.3693 C   0  0  0  0  0  0  0  0  0  0  0  0
  -93.7909   28.1517   -1.3576 H   0  0  0  0  0  0  0  0  0  0  0  0
  -87.8470   32.1582   -1.7527 C   0  0  0  0  0  0  0  0  0  0  0  0
  -88.7916   33.1375   -1.5575 C   0  0  0  0  0  0  0  0  0  0  0  0
  -89.1755   33.9882   -2.5631 C   0  0  0  0  0  0  0  0  0  0  0  0
  -88.6219   33.9080   -3.8605 C   0  0  0  0  0  0  0  0  0  0  0  0
  -87.6815   32.9252   -4.0414 C   0  0  0  0  0  0  0  0  0  0  0  0
  -87.3029   32.0696   -3.0086 C   0  0  0  0  0  0  0  0  0  0  0  0
  -89.0550   34.7911   -4.8177 O   0  0  0  0  0  0  0  0  0  0  0  0
  -90.1333   35.6249   -4.8007 C   0  0  0  0  0  0  0  0  0  0  0  0
  -89.8895   37.0665   -5.1954 C   0  0  0  0  0  0  0  0  0  0  0  0
  -90.1142   37.1955   -6.5942 N   0  0  0  0  0  0  0  0  0  0  0  0
  -91.3524   37.7338   -7.0178 C   0  0  0  0  0  0  0  0  0  0  0  0
  -91.7792   36.9676   -8.2705 C   0  0  0  0  0  0  0  0  0  0  0  0
  -90.5967   36.8733   -9.2044 C   0  0  0  0  0  0  0  0  0  0  0  0
  -89.4672   37.8083   -8.8104 C   0  0  0  0  0  0  0  0  0  0  0  0
  -88.9917   37.4646   -7.4150 C   0  0  0  0  0  0  0  0  0  0  0  0
 13 14  1  0  0  0
 14 15  2  0  0  0
 15 16  1  0  0  0
 16 17  2  0  0  0
 17 18  1  0  0  0
 18 19  2  0  0  0
 17  1  1  0  0  0
  1  2  1  0  0  0
  2  3  1  0  0  0
  3  4  2  0  0  0
  4  5  1  0  0  0
  5  6  1  0  0  0
  5  7  2  0  0  0
  7  8  1  0  0  0
  8  9  2  0  0  0
  9 10  1  0  0  0
 10 11  1  0  0  0
 11 21  1  0  0  0
 21 22  2  0  0  0
 22 23  1  0  0  0
 23 24  2  0  0  0
 24 27  1  0  0  0
 27 28  1  0  0  0
 28 29  1  0  0  0
 29 30  1  0  0  0
 30 31  1  0  0  0
 31 32  1  0  0  0
 32 33  1  0  0  0
 33 34  1  0  0  0
 34 35  1  0  0  0
 24 25  1  0  0  0
 25 26  2  0  0  0
 19 14  1  0  0  0
 11  1  1  0  0  0
 26 21  1  0  0  0
  9  3  1  0  0  0
 35 30  1  0  0  0
 13 20  1  0  0  0
  6 12  1  0  0  0
M  END
> <minimizedAffinity>
-8.18046

> <CNNscore>
0.1941418201

> <CNNaffinity>
6.1884713173

> <CNN_VS>
1.2014410496

> <CNNaffinity_variance>
0.1196548566

$$$$
[H]Oc1c([H])c([H])c([C@]2([H])Sc3c([H])c(O[H])c([H])c([H])c3O[C@@]2([H])c2c([H])c([H])c(OC([H])([H])C([H])([H])N3C([H])([H])C([H])([H])C([H])([H])C([H])([H])C3([H])[H])c([H])c2[H])c([H])c1[H]


 35 39  0  0  0  0  0  0  0  0999 V2000
  -87.2993   28.7615   -0.0774 C   0  0  0  0  0  0  0  0  0  0  0  0
  -85.6390   29.1802    0.5412 S   0  0  0  0  0  0  0  0  0  0  0  0
  -85.3174   30.8367    0.0465 C   0  0  0  0  0  0  0  0  0  0  0  0
  -84.0732   31.3622    0.1584 C   0  0  0  0  0  0  0  0  0  0  0  0
  -83.7948   32.6775   -0.2314 C   0  0  0  0  0  0  0  0  0  0  0  0
  -82.5393   33.2434   -0.1315 O   0  0  0  0  0  0  0  0  0  0  0  0
  -84.8157   33.4474   -0.7388 C   0  0  0  0  0  0  0  0  0  0  0  0
  -86.0820   32.9354   -0.8608 C   0  0  0  0  0  0  0  0  0  0  0  0
  -86.3167   31.6202   -0.4607 C   0  0  0  0  0  0  0  0  0  0  0  0
  -87.5720   31.1293   -0.5868 O   0  0  0  0  0  0  0  0  0  0  0  0
  -88.1320   29.9942    0.0163 C   0  0  0  0  0  0  0  0  0  0  0  0
  -81.9341   33.1282   -0.9554 H   0  0  0  0  0  0  0  0  0  0  0  0
  -89.6577   24.4799    2.8263 O   0  0  0  0  0  0  0  0  0  0  0  0
  -89.0725   25.5459    2.1165 C   0  0  0  0  0  0  0  0  0  0  0  0
  -88.6108   26.6757    2.7528 C   0  0  0  0  0  0  0  0  0  0  0  0
  -88.0375   27.7206    2.0592 C   0  0  0  0  0  0  0  0  0  0  0  0
  -87.9063   27.6675    0.6890 C   0  0  0  0  0  0  0  0  0  0  0  0
  -88.3697   26.5308    0.0367 C   0  0  0  0  0  0  0  0  0  0  0  0
  -88.9378   25.5003    0.7450 C   0  0  0  0  0  0  0  0  0  0  0  0
  -89.0744   23.7078    3.1805 H   0  0  0  0  0  0  0  0  0  0  0  0
  -89.4313   29.7569   -0.7034 C   0  0  0  0  0  0  0  0  0  0  0  0
  -89.5138   29.7692   -2.0753 C   0  0  0  0  0  0  0  0  0  0  0  0
  -90.6962   29.5473   -2.7346 C   0  0  0  0  0  0  0  0  0  0  0  0
  -91.9008   29.2925   -2.0415 C   0  0  0  0  0  0  0  0  0  0  0  0
  -91.8040   29.2846   -0.6728 C   0  0  0  0  0  0  0  0  0  0  0  0
  -90.5944   29.5117   -0.0190 C   0  0  0  0  0  0  0  0  0  0  0  0
  -93.0466   29.0810   -2.7668 O   0  0  0  0  0  0  0  0  0  0  0  0
  -94.1552   29.8660   -2.8810 C   0  0  0  0  0  0  0  0  0  0  0  0
  -94.9087   29.7989   -4.1930 C   0  0  0  0  0  0  0  0  0  0  0  0
  -94.4388   28.6742   -4.9262 N   0  0  0  0  0  0  0  0  0  0  0  0
  -95.1883   27.4763   -4.8513 C   0  0  0  0  0  0  0  0  0  0  0  0
  -94.1932   26.3158   -4.8188 C   0  0  0  0  0  0  0  0  0  0  0  0
  -93.1599   26.5361   -5.8973 C   0  0  0  0  0  0  0  0  0  0  0  0
  -93.5680   27.6165   -6.8830 C   0  0  0  0  0  0  0  0  0  0  0  0
  -93.7629   28.9240   -6.1457 C   0  0  0  0  0  0  0  0  0  0  0  0
 13 14  1  0  0  0
 14 15  2  0  0  0
 15 16  1  0  0  0
 16 17  2  0  0  0
 17 18  1  0  0  0
 18 19  2  0  0  0
 17  1  1  0  0  0
  1  2  1  0  0  0
  2  3  1  0  0  0
  3  4  2  0  0  0
  4  5  1  0  0  0
  5  6  1  0  0  0
  5  7  2  0  0  0
  7  8  1  0  0  0
  8  9  2  0  0  0
  9 10  1  0  0  0
 10 11  1  0  0  0
 11 21  1  0  0  0
 21 22  2  0  0  0
 22 23  1  0  0  0
 23 24  2  0  0  0
 24 27  1  0  0  0
 27 28  1  0  0  0
 28 29  1  0  0  0
 29 30  1  0  0  0
 30 31  1  0  0  0
 31 32  1  0  0  0
 32 33  1  0  0  0
 33 34  1  0  0  0
 34 35  1  0  0  0
 24 25  1  0  0  0
 25 26  2  0  0  0
 19 14  1  0  0  0
 11  1  1  0  0  0
 26 21  1  0  0  0
  9  3  1  0  0  0
 35 30  1  0  0  0
 13 20  1  0  0  0
  6 12  1  0  0  0
M  END
> <minimizedAffinity>
-8.10716

> <CNNscore>
0.1907149553

> <CNNaffinity>
6.3073682785

> <CNN_VS>
1.2029094696

> <CNNaffinity_variance>
0.0793481618

$$$$
[H]Oc1c([H])c([H])c([C@]2([H])Sc3c([H])c(O[H])c([H])c([H])c3O[C@@]2([H])c2c([H])c([H])c(OC([H])([H])C([H])([H])N3C([H])([H])C([H])([H])C([H])([H])C([H])([H])C3([H])[H])c([H])c2[H])c([H])c1[H]


 35 39  0  0  0  0  0  0  0  0999 V2000
  -87.3813   28.2322    0.4088 C   0  0  0  0  0  0  0  0  0  0  0  0
  -85.8085   28.5857    1.2550 S   0  0  0  0  0  0  0  0  0  0  0  0
  -85.2660   30.1563    0.6795 C   0  0  0  0  0  0  0  0  0  0  0  0
  -84.0130   30.5963    0.9498 C   0  0  0  0  0  0  0  0  0  0  0  0
  -83.5600   31.8420    0.4997 C   0  0  0  0  0  0  0  0  0  0  0  0
  -82.2904   32.3200    0.7567 O   0  0  0  0  0  0  0  0  0  0  0  0
  -84.4152   32.6314   -0.2339 C   0  0  0  0  0  0  0  0  0  0  0  0
  -85.6871   32.2054   -0.5189 C   0  0  0  0  0  0  0  0  0  0  0  0
  -86.0986   30.9576   -0.0514 C   0  0  0  0  0  0  0  0  0  0  0  0
  -87.3573   30.5514   -0.3405 O   0  0  0  0  0  0  0  0  0  0  0  0
  -88.1046   29.5267    0.2572 C   0  0  0  0  0  0  0  0  0  0  0  0
  -81.5757   32.0788    0.0571 H   0  0  0  0  0  0  0  0  0  0  0  0
  -90.5392   24.5432    3.3659 O   0  0  0  0  0  0  0  0  0  0  0  0
  -89.7579   25.4504    2.6248 C   0  0  0  0  0  0  0  0  0  0  0  0
  -89.4779   25.2482    1.2924 C   0  0  0  0  0  0  0  0  0  0  0  0
  -88.7129   26.1356    0.5651 C   0  0  0  0  0  0  0  0  0  0  0  0
  -88.1970   27.2681    1.1557 C   0  0  0  0  0  0  0  0  0  0  0  0
  -88.4738   27.4815    2.5010 C   0  0  0  0  0  0  0  0  0  0  0  0
  -89.2379   26.5860    3.2088 C   0  0  0  0  0  0  0  0  0  0  0  0
  -91.5620   24.6577    3.4170 H   0  0  0  0  0  0  0  0  0  0  0  0
  -89.2902   29.3163   -0.6442 C   0  0  0  0  0  0  0  0  0  0  0  0
  -89.1470   28.9016   -1.9468 C   0  0  0  0  0  0  0  0  0  0  0  0
  -90.2268   28.7031   -2.7696 C   0  0  0  0  0  0  0  0  0  0  0  0
  -91.5516   28.9136   -2.3260 C   0  0  0  0  0  0  0  0  0  0  0  0
  -91.6796   29.3287   -1.0244 C   0  0  0  0  0  0  0  0  0  0  0  0
  -90.5717   29.5250   -0.2021 C   0  0  0  0  0  0  0  0  0  0  0  0
  -92.5833   28.6968   -3.2049 O   0  0  0  0  0  0  0  0  0  0  0  0
  -93.2739   29.5925   -3.9659 C   0  0  0  0  0  0  0  0  0  0  0  0
  -92.5818   30.1108   -5.2092 C   0  0  0  0  0  0  0  0  0  0  0  0
  -92.1563   31.4461   -4.9654 N   0  0  0  0  0  0  0  0  0  0  0  0
  -93.0529   32.3141   -4.2984 C   0  0  0  0  0  0  0  0  0  0  0  0
  -92.9120   33.6960   -4.9379 C   0  0  0  0  0  0  0  0  0  0  0  0
  -91.4431   34.0213   -5.0646 C   0  0  0  0  0  0  0  0  0  0  0  0
  -90.5665   33.0818   -4.2558 C   0  0  0  0  0  0  0  0  0  0  0  0
  -90.7755   31.6607   -4.7336 C   0  0  0  0  0  0  0  0  0  0  0  0
 13 14  1  0  0  0
 14 15  2  0  0  0
 15 16  1  0  0  0
 16 17  2  0  0  0
 17 18  1  0  0  0
 18 19  2  0  0  0
 17  1  1  0  0  0
  1  2  1  0  0  0
  2  3  1  0  0  0
  3  4  2  0  0  0
  4  5  1  0  0  0
  5  6  1  0  0  0
  5  7  2  0  0  0
  7  8  1  0  0  0
  8  9  2  0  0  0
  9 10  1  0  0  0
 10 11  1  0  0  0
 11 21  1  0  0  0
 21 22  2  0  0  0
 22 23  1  0  0  0
 23 24  2  0  0  0
 24 27  1  0  0  0
 27 28  1  0  0  0
 28 29  1  0  0  0
 29 30  1  0  0  0
 30 31  1  0  0  0
 31 32  1  0  0  0
 32 33  1  0  0  0
 33 34  1  0  0  0
 34 35  1  0  0  0
 24 25  1  0  0  0
 25 26  2  0  0  0
 19 14  1  0  0  0
 11  1  1  0  0  0
 26 21  1  0  0  0
  9  3  1  0  0  0
 35 30  1  0  0  0
 13 20  1  0  0  0
  6 12  1  0  0  0
M  END
> <minimizedAffinity>
-7.69456

> <CNNscore>
0.1894998997

> <CNNaffinity>
6.5061659813

> <CNN_VS>
1.2329177856

> <CNNaffinity_variance>
0.1947205365

$$$$
[H]Oc1c([H])c([H])c([C@]2([H])Sc3c([H])c(O[H])c([H])c([H])c3O[C@@]2([H])c2c([H])c([H])c(OC([H])([H])C([H])([H])N3C([H])([H])C([H])([H])C([H])([H])C([H])([H])C3([H])[H])c([H])c2[H])c([H])c1[H]


 35 39  0  0  0  0  0  0  0  0999 V2000
  -87.8080   29.1869   -0.5077 C   0  0  0  0  0  0  0  0  0  0  0  0
  -87.2558   27.8450    0.5918 S   0  0  0  0  0  0  0  0  0  0  0  0
  -85.7114   28.3467    1.2666 C   0  0  0  0  0  0  0  0  0  0  0  0
  -84.9351   27.4670    1.9448 C   0  0  0  0  0  0  0  0  0  0  0  0
  -83.7015   27.8445    2.4882 C   0  0  0  0  0  0  0  0  0  0  0  0
  -82.8862   26.9740    3.1837 O   0  0  0  0  0  0  0  0  0  0  0  0
  -83.2759   29.1425    2.3245 C   0  0  0  0  0  0  0  0  0  0  0  0
  -84.0457   30.0489    1.6416 C   0  0  0  0  0  0  0  0  0  0  0  0
  -85.2683   29.6315    1.1161 C   0  0  0  0  0  0  0  0  0  0  0  0
  -86.0170   30.5380    0.4450 O   0  0  0  0  0  0  0  0  0  0  0  0
  -87.3770   30.4731    0.1102 C   0  0  0  0  0  0  0  0  0  0  0  0
  -82.2031   26.4561    2.6149 H   0  0  0  0  0  0  0  0  0  0  0  0
  -93.4317   29.1102   -1.3404 O   0  0  0  0  0  0  0  0  0  0  0  0
  -92.0406   29.1293   -1.1234 C   0  0  0  0  0  0  0  0  0  0  0  0
  -91.5027   29.1095    0.1434 C   0  0  0  0  0  0  0  0  0  0  0  0
  -90.1406   29.1283    0.3578 C   0  0  0  0  0  0  0  0  0  0  0  0
  -89.2621   29.1681   -0.7025 C   0  0  0  0  0  0  0  0  0  0  0  0
  -89.7952   29.1885   -1.9861 C   0  0  0  0  0  0  0  0  0  0  0  0
  -91.1549   29.1693   -2.1794 C   0  0  0  0  0  0  0  0  0  0  0  0
  -93.9308   28.2142   -1.4406 H   0  0  0  0  0  0  0  0  0  0  0  0
  -87.6006   31.5843   -0.8784 C   0  0  0  0  0  0  0  0  0  0  0  0
  -88.7068   32.3978   -0.8181 C   0  0  0  0  0  0  0  0  0  0  0  0
  -88.9104   33.4160   -1.7148 C   0  0  0  0  0  0  0  0  0  0  0  0
  -87.9938   33.6890   -2.7547 C   0  0  0  0  0  0  0  0  0  0  0  0
  -86.8951   32.8684   -2.8038 C   0  0  0  0  0  0  0  0  0  0  0  0
  -86.7037   31.8388   -1.8844 C   0  0  0  0  0  0  0  0  0  0  0  0
  -88.2633   34.7228   -3.6164 O   0  0  0  0  0  0  0  0  0  0  0  0
  -87.8872   34.8853   -4.9166 C   0  0  0  0  0  0  0  0  0  0  0  0
  -87.2325   36.2017   -5.2799 C   0  0  0  0  0  0  0  0  0  0  0  0
  -87.9470   36.7759   -6.3677 N   0  0  0  0  0  0  0  0  0  0  0  0
  -87.1991   37.2684   -7.4632 C   0  0  0  0  0  0  0  0  0  0  0  0
  -87.8841   38.5474   -7.9461 C   0  0  0  0  0  0  0  0  0  0  0  0
  -89.3677   38.2889   -8.0536 C   0  0  0  0  0  0  0  0  0  0  0  0
  -89.7082   36.8110   -7.9811 C   0  0  0  0  0  0  0  0  0  0  0  0
  -89.2280   36.2473   -6.6609 C   0  0  0  0  0  0  0  0  0  0  0  0
 13 14  1  0  0  0
 14 15  2  0  0  0
 15 16  1  0  0  0
 16 17  2  0  0  0
 17 18  1  0  0  0
 18 19  2  0  0  0
 17  1  1  0  0  0
  1  2  1  0  0  0
  2  3  1  0  0  0
  3  4  2  0  0  0
  4  5  1  0  0  0
  5  6  1  0  0  0
  5  7  2  0  0  0
  7  8  1  0  0  0
  8  9  2  0  0  0
  9 10  1  0  0  0
 10 11  1  0  0  0
 11 21  1  0  0  0
 21 22  2  0  0  0
 22 23  1  0  0  0
 23 24  2  0  0  0
 24 27  1  0  0  0
 27 28  1  0  0  0
 28 29  1  0  0  0
 29 30  1  0  0  0
 30 31  1  0  0  0
 31 32  1  0  0  0
 32 33  1  0  0  0
 33 34  1  0  0  0
 34 35  1  0  0  0
 24 25  1  0  0  0
 25 26  2  0  0  0
 19 14  1  0  0  0
 11  1  1  0  0  0
 26 21  1  0  0  0
  9  3  1  0  0  0
 35 30  1  0  0  0
 13 20  1  0  0  0
  6 12  1  0  0  0
M  END
> <minimizedAffinity>
-8.99709

> <CNNscore>
0.1873112470

> <CNNaffinity>
6.2256484032

> <CNN_VS>
1.1661339998

> <CNNaffinity_variance>
0.0989188924

$$$$
[H]Oc1c([H])c([H])c([C@]2([H])Sc3c([H])c(O[H])c([H])c([H])c3O[C@@]2([H])c2c([H])c([H])c(OC([H])([H])C([H])([H])N3C([H])([H])C([H])([H])C([H])([H])C([H])([H])C3([H])[H])c([H])c2[H])c([H])c1[H]


 35 39  0  0  0  0  0  0  0  0999 V2000
  -87.9553   28.3889   -0.7176 C   0  0  0  0  0  0  0  0  0  0  0  0
  -87.3038   27.1809    0.4786 S   0  0  0  0  0  0  0  0  0  0  0  0
  -85.8714   27.9035    1.1986 C   0  0  0  0  0  0  0  0  0  0  0  0
  -85.0314   27.1613    1.9603 C   0  0  0  0  0  0  0  0  0  0  0  0
  -83.8847   27.7156    2.5409 C   0  0  0  0  0  0  0  0  0  0  0  0
  -83.0081   26.9882    3.3212 O   0  0  0  0  0  0  0  0  0  0  0  0
  -83.6127   29.0472    2.3275 C   0  0  0  0  0  0  0  0  0  0  0  0
  -84.4492   29.8164    1.5600 C   0  0  0  0  0  0  0  0  0  0  0  0
  -85.5812   29.2248    0.9998 C   0  0  0  0  0  0  0  0  0  0  0  0
  -86.3974   29.9973    0.2451 O   0  0  0  0  0  0  0  0  0  0  0  0
  -87.7190   29.7471   -0.1506 C   0  0  0  0  0  0  0  0  0  0  0  0
  -82.2369   26.5329    2.8150 H   0  0  0  0  0  0  0  0  0  0  0  0
  -93.5056   27.5983   -1.6633 O   0  0  0  0  0  0  0  0  0  0  0  0
  -92.1289   27.7914   -1.4395 C   0  0  0  0  0  0  0  0  0  0  0  0
  -91.2017   27.6450   -2.4461 C   0  0  0  0  0  0  0  0  0  0  0  0
  -89.8531   27.8337   -2.2287 C   0  0  0  0  0  0  0  0  0  0  0  0
  -89.3834   28.1793   -0.9807 C   0  0  0  0  0  0  0  0  0  0  0  0
  -90.3117   28.3294    0.0430 C   0  0  0  0  0  0  0  0  0  0  0  0
  -91.6509   28.1373   -0.1932 C   0  0  0  0  0  0  0  0  0  0  0  0
  -94.1019   28.3875   -1.9522 H   0  0  0  0  0  0  0  0  0  0  0  0
  -88.0226   30.7729   -1.2079 C   0  0  0  0  0  0  0  0  0  0  0  0
  -87.6474   30.5973   -2.5184 C   0  0  0  0  0  0  0  0  0  0  0  0
  -87.9281   31.5285   -3.4861 C   0  0  0  0  0  0  0  0  0  0  0  0
  -88.6205   32.7245   -3.1924 C   0  0  0  0  0  0  0  0  0  0  0  0
  -88.9877   32.8872   -1.8803 C   0  0  0  0  0  0  0  0  0  0  0  0
  -88.6947   31.9308   -0.9100 C   0  0  0  0  0  0  0  0  0  0  0  0
  -88.8651   33.6116   -4.2107 O   0  0  0  0  0  0  0  0  0  0  0  0
  -88.6317   34.9536   -4.2634 C   0  0  0  0  0  0  0  0  0  0  0  0
  -89.7577   35.8619   -3.8154 C   0  0  0  0  0  0  0  0  0  0  0  0
  -89.2690   37.1970   -3.7686 N   0  0  0  0  0  0  0  0  0  0  0  0
  -87.8908   37.3877   -3.5112 C   0  0  0  0  0  0  0  0  0  0  0  0
  -87.7595   38.6182   -2.6130 C   0  0  0  0  0  0  0  0  0  0  0  0
  -88.6185   39.7229   -3.1798 C   0  0  0  0  0  0  0  0  0  0  0  0
  -89.0844   39.4306   -4.5950 C   0  0  0  0  0  0  0  0  0  0  0  0
  -89.8961   38.1530   -4.6048 C   0  0  0  0  0  0  0  0  0  0  0  0
 13 14  1  0  0  0
 14 15  2  0  0  0
 15 16  1  0  0  0
 16 17  2  0  0  0
 17 18  1  0  0  0
 18 19  2  0  0  0
 17  1  1  0  0  0
  1  2  1  0  0  0
  2  3  1  0  0  0
  3  4  2  0  0  0
  4  5  1  0  0  0
  5  6  1  0  0  0
  5  7  2  0  0  0
  7  8  1  0  0  0
  8  9  2  0  0  0
  9 10  1  0  0  0
 10 11  1  0  0  0
 11 21  1  0  0  0
 21 22  2  0  0  0
 22 23  1  0  0  0
 23 24  2  0  0  0
 24 27  1  0  0  0
 27 28  1  0  0  0
 28 29  1  0  0  0
 29 30  1  0  0  0
 30 31  1  0  0  0
 31 32  1  0  0  0
 32 33  1  0  0  0
 33 34  1  0  0  0
 34 35  1  0  0  0
 24 25  1  0  0  0
 25 26  2  0  0  0
 19 14  1  0  0  0
 11  1  1  0  0  0
 26 21  1  0  0  0
  9  3  1  0  0  0
 35 30  1  0  0  0
 13 20  1  0  0  0
  6 12  1  0  0  0
M  END
> <minimizedAffinity>
-8.78645

> <CNNscore>
0.1636112630

> <CNNaffinity>
6.2730550766

> <CNN_VS>
1.0263425112

> <CNNaffinity_variance>
0.2101866454

$$$$
[H]OC(=O)[C@@]([H])(N([H])C(=O)[C@@]([H])(S[H])C([H])(C([H])([H])[H])C([H])([H])[H])C([H])([H])c1c([H])c([H])c([H])c([H])c1[H]


 22 22  0  0  0  0  0  0  0  0999 V2000
  -85.9942   28.4700    1.2062 C   0  0  0  0  0  0  0  0  0  0  0  0
  -87.7245   28.9557   -0.5533 C   0  0  0  0  0  0  0  0  0  0  0  0
  -86.7848   28.9725   -1.4111 O   0  0  0  0  0  0  0  0  0  0  0  0
  -87.3894   28.7070    0.7853 N   0  0  0  0  0  0  0  0  0  0  0  0
  -88.1584   28.6932    1.4895 H   0  0  0  0  0  0  0  0  0  0  0  0
  -89.0885   29.2003   -1.0460 C   0  0  0  0  0  0  0  0  0  0  0  0
  -90.1767   29.2245    0.4316 S   0  0  0  0  0  0  0  0  0  0  0  0
  -89.8860   30.4310    1.1022 H   0  0  0  0  0  0  0  0  0  0  0  0
  -89.0640   31.5941   -0.5644 C   0  0  0  0  0  0  0  0  0  0  0  0
  -89.2259   30.5658   -1.6853 C   0  0  0  0  0  0  0  0  0  0  0  0
  -90.5994   30.7641   -2.2745 C   0  0  0  0  0  0  0  0  0  0  0  0
  -85.8725   27.1583    1.8549 C   0  0  0  0  0  0  0  0  0  0  0  0
  -86.8837   26.2393    2.0039 O   0  0  0  0  0  0  0  0  0  0  0  0
  -84.7379   26.8152    2.3348 O   0  0  0  0  0  0  0  0  0  0  0  0
  -87.1455   25.9596    2.9380 H   0  0  0  0  0  0  0  0  0  0  0  0
  -85.4832   29.6396    1.9774 C   0  0  0  0  0  0  0  0  0  0  0  0
  -84.6634   30.5970    1.2338 C   0  0  0  0  0  0  0  0  0  0  0  0
  -83.2920   30.5182    1.2171 C   0  0  0  0  0  0  0  0  0  0  0  0
  -82.5120   31.4326    0.5096 C   0  0  0  0  0  0  0  0  0  0  0  0
  -83.1301   32.4374   -0.1881 C   0  0  0  0  0  0  0  0  0  0  0  0
  -84.4981   32.5437   -0.1913 C   0  0  0  0  0  0  0  0  0  0  0  0
  -85.2538   31.6180    0.5229 C   0  0  0  0  0  0  0  0  0  0  0  0
  9 10  1  0  0  0
 10 11  1  0  0  0
 10  6  1  0  0  0
  6  7  1  0  0  0
  6  2  1  0  0  0
  2  3  2  0  0  0
  2  4  1  0  0  0
  4  1  1  0  0  0
  1 16  1  0  0  0
 16 17  1  0  0  0
 17 18  2  0  0  0
 18 19  1  0  0  0
 19 20  2  0  0  0
 20 21  1  0  0  0
 21 22  2  0  0  0
  1 12  1  0  0  0
 12 13  1  0  0  0
 12 14  2  0  0  0
 22 17  1  0  0  0
  7  8  1  0  0  0
  4  5  1  0  0  0
 13 15  1  0  0  0
M  END
> <minimizedAffinity>
-6.85917

> <CNNscore>
0.5970066786

> <CNNaffinity>
5.5601420403

> <CNN_VS>
3.3194420338

> <CNNaffinity_variance>
0.0954330266

$$$$
[H]OC(=O)[C@@]([H])(N([H])C(=O)[C@@]([H])(S[H])C([H])(C([H])([H])[H])C([H])([H])[H])C([H])([H])c1c([H])c([H])c([H])c([H])c1[H]


 22 22  0  0  0  0  0  0  0  0999 V2000
  -84.7809   28.9422    1.5255 C   0  0  0  0  0  0  0  0  0  0  0  0
  -86.8851   28.3182    0.2971 C   0  0  0  0  0  0  0  0  0  0  0  0
  -86.3235   28.7096   -0.7755 O   0  0  0  0  0  0  0  0  0  0  0  0
  -86.1578   28.4099    1.4923 N   0  0  0  0  0  0  0  0  0  0  0  0
  -86.6168   28.0898    2.3722 H   0  0  0  0  0  0  0  0  0  0  0  0
  -88.2573   27.8005    0.1868 C   0  0  0  0  0  0  0  0  0  0  0  0
  -88.3576   26.3543    1.3121 S   0  0  0  0  0  0  0  0  0  0  0  0
  -88.3480   26.8843    2.6194 H   0  0  0  0  0  0  0  0  0  0  0  0
  -90.6265   28.0636    0.7162 C   0  0  0  0  0  0  0  0  0  0  0  0
  -89.2821   28.7930    0.6938 C   0  0  0  0  0  0  0  0  0  0  0  0
  -89.4281   29.9639   -0.2445 C   0  0  0  0  0  0  0  0  0  0  0  0
  -83.8906   28.0113    2.2305 C   0  0  0  0  0  0  0  0  0  0  0  0
  -82.5645   28.2305    2.5178 O   0  0  0  0  0  0  0  0  0  0  0  0
  -84.3632   26.8890    2.6210 O   0  0  0  0  0  0  0  0  0  0  0  0
  -81.8791   27.5911    2.1427 H   0  0  0  0  0  0  0  0  0  0  0  0
  -84.7852   30.3514    2.0132 C   0  0  0  0  0  0  0  0  0  0  0  0
  -84.6071   31.3888    0.9966 C   0  0  0  0  0  0  0  0  0  0  0  0
  -85.6764   31.9806    0.3692 C   0  0  0  0  0  0  0  0  0  0  0  0
  -85.5050   32.9677   -0.6010 C   0  0  0  0  0  0  0  0  0  0  0  0
  -84.2353   33.3584   -0.9380 C   0  0  0  0  0  0  0  0  0  0  0  0
  -83.1461   32.7868   -0.3298 C   0  0  0  0  0  0  0  0  0  0  0  0
  -83.3445   31.8036    0.6356 C   0  0  0  0  0  0  0  0  0  0  0  0
  9 10  1  0  0  0
 10 11  1  0  0  0
 10  6  1  0  0  0
  6  7  1  0  0  0
  6  2  1  0  0  0
  2  3  2  0  0  0
  2  4  1  0  0  0
  4  1  1  0  0  0
  1 16  1  0  0  0
 16 17  1  0  0  0
 17 18  2  0  0  0
 18 19  1  0  0  0
 19 20  2  0  0  0
 20 21  1  0  0  0
 21 22  2  0  0  0
  1 12  1  0  0  0
 12 13  1  0  0  0
 12 14  2  0  0  0
 22 17  1  0  0  0
  7  8  1  0  0  0
  4  5  1  0  0  0
 13 15  1  0  0  0
M  END
> <minimizedAffinity>
-6.83310

> <CNNscore>
0.5829647779

> <CNNaffinity>
5.7528138161

> <CNN_VS>
3.3536877632

> <CNNaffinity_variance>
0.0463233963

$$$$
[H]OC(=O)[C@@]([H])(N([H])C(=O)[C@@]([H])(S[H])C([H])(C([H])([H])[H])C([H])([H])[H])C([H])([H])c1c([H])c([H])c([H])c([H])c1[H]


 22 22  0  0  0  0  0  0  0  0999 V2000
  -85.7830   28.4949    1.3895 C   0  0  0  0  0  0  0  0  0  0  0  0
  -87.6871   28.8283   -0.2195 C   0  0  0  0  0  0  0  0  0  0  0  0
  -86.8281   28.8872   -1.1564 O   0  0  0  0  0  0  0  0  0  0  0  0
  -87.2221   28.6315    1.0885 N   0  0  0  0  0  0  0  0  0  0  0  0
  -87.9248   28.5833    1.8574 H   0  0  0  0  0  0  0  0  0  0  0  0
  -89.1018   28.9730   -0.5949 C   0  0  0  0  0  0  0  0  0  0  0  0
  -89.2738   28.2295   -2.2638 S   0  0  0  0  0  0  0  0  0  0  0  0
  -89.1610   26.8359   -2.0762 H   0  0  0  0  0  0  0  0  0  0  0  0
  -90.8865   27.3065   -0.5976 C   0  0  0  0  0  0  0  0  0  0  0  0
  -90.0152   28.1752    0.3114 C   0  0  0  0  0  0  0  0  0  0  0  0
  -90.9430   29.0732    1.0895 C   0  0  0  0  0  0  0  0  0  0  0  0
  -85.5172   27.2037    2.0364 C   0  0  0  0  0  0  0  0  0  0  0  0
  -86.4383   26.2048    2.2438 O   0  0  0  0  0  0  0  0  0  0  0  0
  -84.3337   26.9608    2.4557 O   0  0  0  0  0  0  0  0  0  0  0  0
  -86.6253   25.9125    3.1919 H   0  0  0  0  0  0  0  0  0  0  0  0
  -85.2890   29.7071    2.1039 C   0  0  0  0  0  0  0  0  0  0  0  0
  -84.5540   30.6804    1.2952 C   0  0  0  0  0  0  0  0  0  0  0  0
  -85.1975   31.6489    0.5636 C   0  0  0  0  0  0  0  0  0  0  0  0
  -84.4958   32.5746   -0.2082 C   0  0  0  0  0  0  0  0  0  0  0  0
  -83.1267   32.5168   -0.2380 C   0  0  0  0  0  0  0  0  0  0  0  0
  -82.4541   31.5613    0.4814 C   0  0  0  0  0  0  0  0  0  0  0  0
  -83.1782   30.6491    1.2440 C   0  0  0  0  0  0  0  0  0  0  0  0
  9 10  1  0  0  0
 10 11  1  0  0  0
 10  6  1  0  0  0
  6  7  1  0  0  0
  6  2  1  0  0  0
  2  3  2  0  0  0
  2  4  1  0  0  0
  4  1  1  0  0  0
  1 16  1  0  0  0
 16 17  1  0  0  0
 17 18  2  0  0  0
 18 19  1  0  0  0
 19 20  2  0  0  0
 20 21  1  0  0  0
 21 22  2  0  0  0
  1 12  1  0  0  0
 12 13  1  0  0  0
 12 14  2  0  0  0
 22 17  1  0  0  0
  7  8  1  0  0  0
  4  5  1  0  0  0
 13 15  1  0  0  0
M  END
> <minimizedAffinity>
-6.86637

> <CNNscore>
0.5595806837

> <CNNaffinity>
5.5082311630

> <CNN_VS>
3.0822997093

> <CNNaffinity_variance>
0.0983202979

$$$$
[H]OC(=O)[C@@]([H])(N([H])C(=O)[C@@]([H])(S[H])C([H])(C([H])([H])[H])C([H])([H])[H])C([H])([H])c1c([H])c([H])c([H])c([H])c1[H]


 22 22  0  0  0  0  0  0  0  0999 V2000
  -86.9259   28.0631    0.8077 C   0  0  0  0  0  0  0  0  0  0  0  0
  -85.6877   30.2157    0.4091 C   0  0  0  0  0  0  0  0  0  0  0  0
  -86.8000   30.8246    0.5142 O   0  0  0  0  0  0  0  0  0  0  0  0
  -85.6854   28.8205    0.5478 N   0  0  0  0  0  0  0  0  0  0  0  0
  -84.7746   28.3200    0.4616 H   0  0  0  0  0  0  0  0  0  0  0  0
  -84.4947   31.0357    0.1495 C   0  0  0  0  0  0  0  0  0  0  0  0
  -85.1038   32.6863   -0.3723 S   0  0  0  0  0  0  0  0  0  0  0  0
  -85.6260   33.2879    0.7919 H   0  0  0  0  0  0  0  0  0  0  0  0
  -82.8355   30.0153    1.6221 C   0  0  0  0  0  0  0  0  0  0  0  0
  -83.6820   31.2708    1.4051 C   0  0  0  0  0  0  0  0  0  0  0  0
  -84.5675   31.4237    2.6156 C   0  0  0  0  0  0  0  0  0  0  0  0
  -86.6584   26.9422    1.7179 C   0  0  0  0  0  0  0  0  0  0  0  0
  -87.5840   26.0258    2.1569 O   0  0  0  0  0  0  0  0  0  0  0  0
  -85.4687   26.7818    2.1588 O   0  0  0  0  0  0  0  0  0  0  0  0
  -87.7539   25.9515    3.1493 H   0  0  0  0  0  0  0  0  0  0  0  0
  -87.6018   27.7249   -0.4778 C   0  0  0  0  0  0  0  0  0  0  0  0
  -88.9970   28.1473   -0.6062 C   0  0  0  0  0  0  0  0  0  0  0  0
  -89.6790   28.0459   -1.7945 C   0  0  0  0  0  0  0  0  0  0  0  0
  -91.0080   28.4508   -1.9159 C   0  0  0  0  0  0  0  0  0  0  0  0
  -91.6517   28.9640   -0.8201 C   0  0  0  0  0  0  0  0  0  0  0  0
  -90.9984   29.0786    0.3812 C   0  0  0  0  0  0  0  0  0  0  0  0
  -89.6719   28.6670    0.4758 C   0  0  0  0  0  0  0  0  0  0  0  0
  9 10  1  0  0  0
 10 11  1  0  0  0
 10  6  1  0  0  0
  6  7  1  0  0  0
  6  2  1  0  0  0
  2  3  2  0  0  0
  2  4  1  0  0  0
  4  1  1  0  0  0
  1 16  1  0  0  0
 16 17  1  0  0  0
 17 18  2  0  0  0
 18 19  1  0  0  0
 19 20  2  0  0  0
 20 21  1  0  0  0
 21 22  2  0  0  0
  1 12  1  0  0  0
 12 13  1  0  0  0
 12 14  2  0  0  0
 22 17  1  0  0  0
  7  8  1  0  0  0
  4  5  1  0  0  0
 13 15  1  0  0  0
M  END
> <minimizedAffinity>
-6.22505

> <CNNscore>
0.5148599744

> <CNNaffinity>
5.3611383438

> <CNN_VS>
2.7602355480

> <CNNaffinity_variance>
0.3628268242

$$$$
[H]OC(=O)[C@@]([H])(N([H])C(=O)[C@@]([H])(S[H])C([H])(C([H])([H])[H])C([H])([H])[H])C([H])([H])c1c([H])c([H])c([H])c([H])c1[H]


 22 22  0  0  0  0  0  0  0  0999 V2000
  -88.3140   27.2828    0.2261 C   0  0  0  0  0  0  0  0  0  0  0  0
  -86.1029   28.3523    0.7675 C   0  0  0  0  0  0  0  0  0  0  0  0
  -85.8523   27.3540    1.5156 O   0  0  0  0  0  0  0  0  0  0  0  0
  -87.3297   28.3748    0.0890 N   0  0  0  0  0  0  0  0  0  0  0  0
  -87.5366   29.1924   -0.5244 H   0  0  0  0  0  0  0  0  0  0  0  0
  -85.0758   29.4014    0.6804 C   0  0  0  0  0  0  0  0  0  0  0  0
  -85.9632   30.9669    0.3208 S   0  0  0  0  0  0  0  0  0  0  0  0
  -86.6333   31.3105    1.5137 H   0  0  0  0  0  0  0  0  0  0  0  0
  -84.6860   31.0496    2.4393 C   0  0  0  0  0  0  0  0  0  0  0  0
  -84.3705   29.6180    2.0025 C   0  0  0  0  0  0  0  0  0  0  0  0
  -82.8737   29.5193    1.8526 C   0  0  0  0  0  0  0  0  0  0  0  0
  -88.6074   26.6924   -1.0861 C   0  0  0  0  0  0  0  0  0  0  0  0
  -88.3648   25.3902   -1.4530 O   0  0  0  0  0  0  0  0  0  0  0  0
  -89.1330   27.4324   -1.9869 O   0  0  0  0  0  0  0  0  0  0  0  0
  -87.7451   25.2174   -2.2311 H   0  0  0  0  0  0  0  0  0  0  0  0
  -89.4878   27.7444    1.0216 C   0  0  0  0  0  0  0  0  0  0  0  0
  -89.6272   27.1723    2.3612 C   0  0  0  0  0  0  0  0  0  0  0  0
  -90.3114   27.8221    3.3597 C   0  0  0  0  0  0  0  0  0  0  0  0
  -90.4416   27.2765    4.6366 C   0  0  0  0  0  0  0  0  0  0  0  0
  -89.8717   26.0588    4.9030 C   0  0  0  0  0  0  0  0  0  0  0  0
  -89.1816   25.3844    3.9274 C   0  0  0  0  0  0  0  0  0  0  0  0
  -89.0662   25.9508    2.6609 C   0  0  0  0  0  0  0  0  0  0  0  0
  9 10  1  0  0  0
 10 11  1  0  0  0
 10  6  1  0  0  0
  6  7  1  0  0  0
  6  2  1  0  0  0
  2  3  2  0  0  0
  2  4  1  0  0  0
  4  1  1  0  0  0
  1 16  1  0  0  0
 16 17  1  0  0  0
 17 18  2  0  0  0
 18 19  1  0  0  0
 19 20  2  0  0  0
 20 21  1  0  0  0
 21 22  2  0  0  0
  1 12  1  0  0  0
 12 13  1  0  0  0
 12 14  2  0  0  0
 22 17  1  0  0  0
  7  8  1  0  0  0
  4  5  1  0  0  0
 13 15  1  0  0  0
M  END
> <minimizedAffinity>
-6.65049

> <CNNscore>
0.4607470930

> <CNNaffinity>
5.2161602974

> <CNN_VS>
2.4033308029

> <CNNaffinity_variance>
0.2368960679

$$$$
[H]OC(=O)[C@@]([H])(N([H])C(=O)[C@@]([H])(S[H])C([H])(C([H])([H])[H])C([H])([H])[H])C([H])([H])c1c([H])c([H])c([H])c([H])c1[H]


 22 22  0  0  0  0  0  0  0  0999 V2000
  -86.0413   28.1042    1.6255 C   0  0  0  0  0  0  0  0  0  0  0  0
  -88.2441   26.9006    1.7828 C   0  0  0  0  0  0  0  0  0  0  0  0
  -87.7254   25.9534    1.1097 O   0  0  0  0  0  0  0  0  0  0  0  0
  -87.4446   28.0144    2.0759 N   0  0  0  0  0  0  0  0  0  0  0  0
  -87.8683   28.7915    2.6273 H   0  0  0  0  0  0  0  0  0  0  0  0
  -89.6465   26.7413    2.1965 C   0  0  0  0  0  0  0  0  0  0  0  0
  -89.7936   27.5336    3.8452 S   0  0  0  0  0  0  0  0  0  0  0  0
  -89.7123   28.9225    3.6118 H   0  0  0  0  0  0  0  0  0  0  0  0
  -89.8257   27.7978    0.0023 C   0  0  0  0  0  0  0  0  0  0  0  0
  -90.5962   27.4930    1.2882 C   0  0  0  0  0  0  0  0  0  0  0  0
  -91.0018   28.8160    1.8866 C   0  0  0  0  0  0  0  0  0  0  0  0
  -85.1956   28.6484    2.6956 C   0  0  0  0  0  0  0  0  0  0  0  0
  -85.4700   29.7671    3.4455 O   0  0  0  0  0  0  0  0  0  0  0  0
  -84.1000   28.0504    2.9742 O   0  0  0  0  0  0  0  0  0  0  0  0
  -84.8173   30.5367    3.4176 H   0  0  0  0  0  0  0  0  0  0  0  0
  -85.9670   28.7961    0.3066 C   0  0  0  0  0  0  0  0  0  0  0  0
  -85.2211   30.0548    0.2771 C   0  0  0  0  0  0  0  0  0  0  0  0
  -83.8476   30.0842    0.2832 C   0  0  0  0  0  0  0  0  0  0  0  0
  -83.1381   31.2846    0.2571 C   0  0  0  0  0  0  0  0  0  0  0  0
  -83.8296   32.4675    0.2245 C   0  0  0  0  0  0  0  0  0  0  0  0
  -85.2018   32.4722    0.2177 C   0  0  0  0  0  0  0  0  0  0  0  0
  -85.8861   31.2602    0.2441 C   0  0  0  0  0  0  0  0  0  0  0  0
  9 10  1  0  0  0
 10 11  1  0  0  0
 10  6  1  0  0  0
  6  7  1  0  0  0
  6  2  1  0  0  0
  2  3  2  0  0  0
  2  4  1  0  0  0
  4  1  1  0  0  0
  1 16  1  0  0  0
 16 17  1  0  0  0
 17 18  2  0  0  0
 18 19  1  0  0  0
 19 20  2  0  0  0
 20 21  1  0  0  0
 21 22  2  0  0  0
  1 12  1  0  0  0
 12 13  1  0  0  0
 12 14  2  0  0  0
 22 17  1  0  0  0
  7  8  1  0  0  0
  4  5  1  0  0  0
 13 15  1  0  0  0
M  END
> <minimizedAffinity>
-6.34814

> <CNNscore>
0.4365577698

> <CNNaffinity>
5.0892353058

> <CNN_VS>
2.2217452526

> <CNNaffinity_variance>
0.2593488395

$$$$
[H]OC(=O)[C@@]([H])(N([H])C(=O)[C@@]([H])(S[H])C([H])(C([H])([H])[H])C([H])([H])[H])C([H])([H])c1c([H])c([H])c([H])c([H])c1[H]


 22 22  0  0  0  0  0  0  0  0999 V2000
  -88.0967   29.7400   -1.0972 C   0  0  0  0  0  0  0  0  0  0  0  0
  -85.9247   30.3070    0.0370 C   0  0  0  0  0  0  0  0  0  0  0  0
  -85.5614   29.1022   -0.1520 O   0  0  0  0  0  0  0  0  0  0  0  0
  -87.1942   30.6907   -0.4178 N   0  0  0  0  0  0  0  0  0  0  0  0
  -87.4934   31.6777   -0.2633 H   0  0  0  0  0  0  0  0  0  0  0  0
  -84.9734   31.1962    0.7208 C   0  0  0  0  0  0  0  0  0  0  0  0
  -84.9809   30.7023    2.4882 S   0  0  0  0  0  0  0  0  0  0  0  0
  -84.3131   29.4609    2.5423 H   0  0  0  0  0  0  0  0  0  0  0  0
  -82.7787   30.3712    1.4030 C   0  0  0  0  0  0  0  0  0  0  0  0
  -83.5535   30.9893    0.2378 C   0  0  0  0  0  0  0  0  0  0  0  0
  -82.8862   32.3000   -0.0933 C   0  0  0  0  0  0  0  0  0  0  0  0
  -87.9988   29.8956   -2.5541 C   0  0  0  0  0  0  0  0  0  0  0  0
  -87.8721   28.8732   -3.4640 O   0  0  0  0  0  0  0  0  0  0  0  0
  -88.0291   31.0750   -3.0475 O   0  0  0  0  0  0  0  0  0  0  0  0
  -87.0551   28.8558   -4.0569 H   0  0  0  0  0  0  0  0  0  0  0  0
  -89.4663   29.8231   -0.5133 C   0  0  0  0  0  0  0  0  0  0  0  0
  -89.7231   28.9830    0.6571 C   0  0  0  0  0  0  0  0  0  0  0  0
  -90.8530   29.1334    1.4239 C   0  0  0  0  0  0  0  0  0  0  0  0
  -91.0953   28.3333    2.5403 C   0  0  0  0  0  0  0  0  0  0  0  0
  -90.1815   27.3706    2.8820 C   0  0  0  0  0  0  0  0  0  0  0  0
  -89.0428   27.1953    2.1367 C   0  0  0  0  0  0  0  0  0  0  0  0
  -88.8247   28.0070    1.0269 C   0  0  0  0  0  0  0  0  0  0  0  0
  9 10  1  0  0  0
 10 11  1  0  0  0
 10  6  1  0  0  0
  6  7  1  0  0  0
  6  2  1  0  0  0
  2  3  2  0  0  0
  2  4  1  0  0  0
  4  1  1  0  0  0
  1 16  1  0  0  0
 16 17  1  0  0  0
 17 18  2  0  0  0
 18 19  1  0  0  0
 19 20  2  0  0  0
 20 21  1  0  0  0
 21 22  2  0  0  0
  1 12  1  0  0  0
 12 13  1  0  0  0
 12 14  2  0  0  0
 22 17  1  0  0  0
  7  8  1  0  0  0
  4  5  1  0  0  0
 13 15  1  0  0  0
M  END
> <minimizedAffinity>
-6.35651

> <CNNscore>
0.3838955760

> <CNNaffinity>
5.2627534866

> <CNN_VS>
2.0203478336

> <CNNaffinity_variance>
0.2600523829

$$$$
[H]OC(=O)[C@@]([H])(N([H])C(=O)[C@@]([H])(S[H])C([H])(C([H])([H])[H])C([H])([H])[H])C([H])([H])c1c([H])c([H])c([H])c([H])c1[H]


 22 22  0  0  0  0  0  0  0  0999 V2000
  -84.5376   29.0020    1.9960 C   0  0  0  0  0  0  0  0  0  0  0  0
  -86.8959   28.3038    1.4700 C   0  0  0  0  0  0  0  0  0  0  0  0
  -86.6971   28.6890    0.2737 O   0  0  0  0  0  0  0  0  0  0  0  0
  -85.8437   28.4355    2.3873 N   0  0  0  0  0  0  0  0  0  0  0  0
  -86.0052   28.1205    3.3682 H   0  0  0  0  0  0  0  0  0  0  0  0
  -88.2214   27.7505    1.7864 C   0  0  0  0  0  0  0  0  0  0  0  0
  -89.3054   28.1557    0.3621 S   0  0  0  0  0  0  0  0  0  0  0  0
  -88.8822   27.3193   -0.6920 H   0  0  0  0  0  0  0  0  0  0  0  0
  -88.5720   25.7121    0.4885 C   0  0  0  0  0  0  0  0  0  0  0  0
  -88.2005   26.2393    1.8756 C   0  0  0  0  0  0  0  0  0  0  0  0
  -89.2422   25.7284    2.8382 C   0  0  0  0  0  0  0  0  0  0  0  0
  -83.4449   28.1558    2.4922 C   0  0  0  0  0  0  0  0  0  0  0  0
  -83.5924   26.9649    3.1624 O   0  0  0  0  0  0  0  0  0  0  0  0
  -82.2394   28.5370    2.3001 O   0  0  0  0  0  0  0  0  0  0  0  0
  -83.2143   26.8882    4.0954 H   0  0  0  0  0  0  0  0  0  0  0  0
  -84.4732   30.4468    2.3595 C   0  0  0  0  0  0  0  0  0  0  0  0
  -84.3332   31.3883    1.2480 C   0  0  0  0  0  0  0  0  0  0  0  0
  -85.4247   31.9525    0.6336 C   0  0  0  0  0  0  0  0  0  0  0  0
  -85.2898   32.8481   -0.4269 C   0  0  0  0  0  0  0  0  0  0  0  0
  -84.0340   33.1746   -0.8685 C   0  0  0  0  0  0  0  0  0  0  0  0
  -82.9234   32.6282   -0.2761 C   0  0  0  0  0  0  0  0  0  0  0  0
  -83.0855   31.7368    0.7808 C   0  0  0  0  0  0  0  0  0  0  0  0
  9 10  1  0  0  0
 10 11  1  0  0  0
 10  6  1  0  0  0
  6  7  1  0  0  0
  6  2  1  0  0  0
  2  3  2  0  0  0
  2  4  1  0  0  0
  4  1  1  0  0  0
  1 16  1  0  0  0
 16 17  1  0  0  0
 17 18  2  0  0  0
 18 19  1  0  0  0
 19 20  2  0  0  0
 20 21  1  0  0  0
 21 22  2  0  0  0
  1 12  1  0  0  0
 12 13  1  0  0  0
 12 14  2  0  0  0
 22 17  1  0  0  0
  7  8  1  0  0  0
  4  5  1  0  0  0
 13 15  1  0  0  0
M  END
> <minimizedAffinity>
-7.37520

> <CNNscore>
0.2943156362

> <CNNaffinity>
5.5092229843

> <CNN_VS>
1.6214504242

> <CNNaffinity_variance>
0.1490882933

$$$$
[H]OC(=O)[C@@]([H])(N([H])C(=O)[C@@]([H])(S[H])C([H])(C([H])([H])[H])C([H])([H])[H])C([H])([H])c1c([H])c([H])c([H])c([H])c1[H]


 22 22  0  0  0  0  0  0  0  0999 V2000
  -88.8889   28.5615   -1.1050 C   0  0  0  0  0  0  0  0  0  0  0  0
  -87.3238   30.3589   -0.3015 C   0  0  0  0  0  0  0  0  0  0  0  0
  -86.6310   29.4473    0.2535 O   0  0  0  0  0  0  0  0  0  0  0  0
  -88.4757   29.9754   -1.0028 N   0  0  0  0  0  0  0  0  0  0  0  0
  -89.0447   30.7214   -1.4580 H   0  0  0  0  0  0  0  0  0  0  0  0
  -86.8510   31.7441   -0.1569 C   0  0  0  0  0  0  0  0  0  0  0  0
  -85.1084   31.6405    0.4091 S   0  0  0  0  0  0  0  0  0  0  0  0
  -84.3691   31.1929   -0.7059 H   0  0  0  0  0  0  0  0  0  0  0  0
  -85.5942   33.3958   -1.4434 C   0  0  0  0  0  0  0  0  0  0  0  0
  -86.8143   32.4739   -1.4829 C   0  0  0  0  0  0  0  0  0  0  0  0
  -88.0272   33.3506   -1.6645 C   0  0  0  0  0  0  0  0  0  0  0  0
  -88.7826   28.0978   -2.4942 C   0  0  0  0  0  0  0  0  0  0  0  0
  -89.4023   26.9895   -3.0204 O   0  0  0  0  0  0  0  0  0  0  0  0
  -88.0542   28.7631   -3.3080 O   0  0  0  0  0  0  0  0  0  0  0  0
  -88.8273   26.2562   -3.4090 H   0  0  0  0  0  0  0  0  0  0  0  0
  -90.2082   28.3612   -0.4395 C   0  0  0  0  0  0  0  0  0  0  0  0
  -90.1808   28.1894    1.0135 C   0  0  0  0  0  0  0  0  0  0  0  0
  -91.1339   28.7508    1.8283 C   0  0  0  0  0  0  0  0  0  0  0  0
  -91.1053   28.5879    3.2131 C   0  0  0  0  0  0  0  0  0  0  0  0
  -90.0991   27.8475    3.7770 C   0  0  0  0  0  0  0  0  0  0  0  0
  -89.1319   27.2737    2.9907 C   0  0  0  0  0  0  0  0  0  0  0  0
  -89.1834   27.4514    1.6109 C   0  0  0  0  0  0  0  0  0  0  0  0
  9 10  1  0  0  0
 10 11  1  0  0  0
 10  6  1  0  0  0
  6  7  1  0  0  0
  6  2  1  0  0  0
  2  3  2  0  0  0
  2  4  1  0  0  0
  4  1  1  0  0  0
  1 16  1  0  0  0
 16 17  1  0  0  0
 17 18  2  0  0  0
 18 19  1  0  0  0
 19 20  2  0  0  0
 20 21  1  0  0  0
 21 22  2  0  0  0
  1 12  1  0  0  0
 12 13  1  0  0  0
 12 14  2  0  0  0
 22 17  1  0  0  0
  7  8  1  0  0  0
  4  5  1  0  0  0
 13 15  1  0  0  0
M  END
> <minimizedAffinity>
-6.00605

> <CNNscore>
0.2836143970

> <CNNaffinity>
4.8680567741

> <CNN_VS>
1.3806509972

> <CNNaffinity_variance>
0.2178309411

$$$$
[H]OC([H])([H])[C@@]1(O[H])C([H])([H])[C@@]2([H])O[C@]1(C([H])([H])[H])n1c3c([H])c([H])c([H])c([H])c3c3c4c(c5c6c([H])c([H])c([H])c([H])c6n2c5c31)C(=O)N([H])C4([H])[H]


 36 43  0  0  0  0  0  0  0  0999 V2000
  -90.0000   28.1082    0.4098 C   0  0  0  0  0  0  0  0  0  0  0  0
  -89.1289   28.8856   -0.5165 C   0  0  0  0  0  0  0  0  0  0  0  0
  -89.8249   30.1257   -0.5388 O   0  0  0  0  0  0  0  0  0  0  0  0
  -89.6390   30.7347   -1.7324 C   0  0  0  0  0  0  0  0  0  0  0  0
  -89.5164   29.6833   -2.7508 C   0  0  0  0  0  0  0  0  0  0  0  0
  -89.2007   28.4411   -1.9475 C   0  0  0  0  0  0  0  0  0  0  0  0
  -87.9945   27.9537   -2.4278 O   0  0  0  0  0  0  0  0  0  0  0  0
  -88.4972   31.6566   -1.6725 N   0  0  0  0  0  0  0  0  0  0  0  0
  -88.3546   32.8479   -2.2275 C   0  0  0  0  0  0  0  0  0  0  0  0
  -89.2416   33.5370   -3.0133 C   0  0  0  0  0  0  0  0  0  0  0  0
  -88.8681   34.7880   -3.4887 C   0  0  0  0  0  0  0  0  0  0  0  0
  -87.6424   35.3192   -3.1787 C   0  0  0  0  0  0  0  0  0  0  0  0
  -86.7344   34.6177   -2.3763 C   0  0  0  0  0  0  0  0  0  0  0  0
  -87.1116   33.3900   -1.9149 C   0  0  0  0  0  0  0  0  0  0  0  0
  -86.4862   32.4523   -1.1250 C   0  0  0  0  0  0  0  0  0  0  0  0
  -85.2469   32.3885   -0.5145 C   0  0  0  0  0  0  0  0  0  0  0  0
  -84.1019   33.2773   -0.4304 C   0  0  0  0  0  0  0  0  0  0  0  0
  -83.9142   34.3954   -0.9127 O   0  0  0  0  0  0  0  0  0  0  0  0
  -83.1105   32.6240    0.3684 N   0  0  0  0  0  0  0  0  0  0  0  0
  -83.5769   31.3289    0.8007 C   0  0  0  0  0  0  0  0  0  0  0  0
  -84.9358   31.2533    0.2107 C   0  0  0  0  0  0  0  0  0  0  0  0
  -85.8227   30.1902    0.3412 C   0  0  0  0  0  0  0  0  0  0  0  0
  -85.7896   28.9772    0.9537 C   0  0  0  0  0  0  0  0  0  0  0  0
  -84.7938   28.3815    1.6929 C   0  0  0  0  0  0  0  0  0  0  0  0
  -85.0050   27.0981    2.2053 C   0  0  0  0  0  0  0  0  0  0  0  0
  -86.2113   26.4710    1.9496 C   0  0  0  0  0  0  0  0  0  0  0  0
  -87.1976   27.0916    1.2029 C   0  0  0  0  0  0  0  0  0  0  0  0
  -87.0118   28.3532    0.6908 C   0  0  0  0  0  0  0  0  0  0  0  0
  -87.7945   29.1653   -0.0690 N   0  0  0  0  0  0  0  0  0  0  0  0
  -87.0274   30.2896   -0.2693 C   0  0  0  0  0  0  0  0  0  0  0  0
  -87.3728   31.4043   -1.0014 C   0  0  0  0  0  0  0  0  0  0  0  0
  -88.1873   27.3186   -3.1588 H   0  0  0  0  0  0  0  0  0  0  0  0
  -82.1592   33.0009    0.6286 H   0  0  0  0  0  0  0  0  0  0  0  0
  -90.2640   27.4304   -2.2153 C   0  0  0  0  0  0  0  0  0  0  0  0
  -89.8952   26.6928   -3.3408 O   0  0  0  0  0  0  0  0  0  0  0  0
  -90.4625   26.8899   -4.1290 H   0  0  0  0  0  0  0  0  0  0  0  0
  2  1  1  0  0  0
  2  3  1  0  0  0
  3  4  1  0  0  0
  4  5  1  0  0  0
  5  6  1  0  0  0
  6  7  1  0  0  0
  6 34  1  0  0  0
 34 35  1  0  0  0
  4  8  1  0  0  0
  8  9  1  0  0  0
  9 10  2  0  0  0
 10 11  1  0  0  0
 11 12  2  0  0  0
 12 13  1  0  0  0
 13 14  2  0  0  0
 14 15  1  0  0  0
 15 16  2  0  0  0
 16 17  1  0  0  0
 17 18  2  0  0  0
 17 19  1  0  0  0
 19 20  1  0  0  0
 20 21  1  0  0  0
 21 22  2  0  0  0
 22 23  1  0  0  0
 23 24  2  0  0  0
 24 25  1  0  0  0
 25 26  2  0  0  0
 26 27  1  0  0  0
 27 28  2  0  0  0
 28 29  1  0  0  0
 29 30  1  0  0  0
 30 31  2  0  0  0
  6  2  1  0  0  0
 31  8  1  0  0  0
 29  2  1  0  0  0
 14  9  1  0  0  0
 31 15  1  0  0  0
 21 16  1  0  0  0
 30 22  1  0  0  0
 28 23  1  0  0  0
  7 32  1  0  0  0
 35 36  1  0  0  0
 19 33  1  0  0  0
M  END
> <minimizedAffinity>
-11.82059

> <CNNscore>
0.7555632591

> <CNNaffinity>
6.8099517822

> <CNN_VS>
5.1453495026

> <CNNaffinity_variance>
0.0649764165

$$$$
[H]OC([H])([H])[C@@]1(O[H])C([H])([H])[C@@]2([H])O[C@]1(C([H])([H])[H])n1c3c([H])c([H])c([H])c([H])c3c3c4c(c5c6c([H])c([H])c([H])c([H])c6n2c5c31)C(=O)N([H])C4([H])[H]


 36 43  0  0  0  0  0  0  0  0999 V2000
  -90.5949   31.5271   -2.2113 C   0  0  0  0  0  0  0  0  0  0  0  0
  -89.1863   31.0462   -2.1369 C   0  0  0  0  0  0  0  0  0  0  0  0
  -88.5899   32.1176   -1.4161 O   0  0  0  0  0  0  0  0  0  0  0  0
  -87.2916   32.2449   -1.7744 C   0  0  0  0  0  0  0  0  0  0  0  0
  -87.1832   31.8598   -3.1877 C   0  0  0  0  0  0  0  0  0  0  0  0
  -88.4540   31.0810   -3.4457 C   0  0  0  0  0  0  0  0  0  0  0  0
  -88.0669   29.8245   -3.8869 O   0  0  0  0  0  0  0  0  0  0  0  0
  -86.4258   31.4782   -0.8690 N   0  0  0  0  0  0  0  0  0  0  0  0
  -85.2344   31.7896   -0.3885 C   0  0  0  0  0  0  0  0  0  0  0  0
  -84.4888   32.9174   -0.6153 C   0  0  0  0  0  0  0  0  0  0  0  0
  -83.2507   33.0257    0.0059 C   0  0  0  0  0  0  0  0  0  0  0  0
  -82.7871   32.0286    0.8254 C   0  0  0  0  0  0  0  0  0  0  0  0
  -83.5464   30.8757    1.0588 C   0  0  0  0  0  0  0  0  0  0  0  0
  -84.7608   30.7798    0.4437 C   0  0  0  0  0  0  0  0  0  0  0  0
  -85.7411   29.8136    0.4490 C   0  0  0  0  0  0  0  0  0  0  0  0
  -85.8650   28.5794    1.0608 C   0  0  0  0  0  0  0  0  0  0  0  0
  -85.0366   27.7966    1.9601 C   0  0  0  0  0  0  0  0  0  0  0  0
  -83.9306   28.0352    2.4479 O   0  0  0  0  0  0  0  0  0  0  0  0
  -85.7389   26.5818    2.2409 N   0  0  0  0  0  0  0  0  0  0  0  0
  -87.0004   26.5494    1.5414 C   0  0  0  0  0  0  0  0  0  0  0  0
  -87.0134   27.8472    0.8232 C   0  0  0  0  0  0  0  0  0  0  0  0
  -88.0321   28.3118   -0.0014 C   0  0  0  0  0  0  0  0  0  0  0  0
  -89.2282   27.8236   -0.4241 C   0  0  0  0  0  0  0  0  0  0  0  0
  -89.8499   26.6288   -0.1432 C   0  0  0  0  0  0  0  0  0  0  0  0
  -91.0885   26.3543   -0.7306 C   0  0  0  0  0  0  0  0  0  0  0  0
  -91.6459   27.2966   -1.5762 C   0  0  0  0  0  0  0  0  0  0  0  0
  -91.0004   28.4914   -1.8431 C   0  0  0  0  0  0  0  0  0  0  0  0
  -89.7832   28.7824   -1.2756 C   0  0  0  0  0  0  0  0  0  0  0  0
  -88.9489   29.8515   -1.3783 N   0  0  0  0  0  0  0  0  0  0  0  0
  -87.8758   29.5255   -0.5816 C   0  0  0  0  0  0  0  0  0  0  0  0
  -86.7452   30.2836   -0.3697 C   0  0  0  0  0  0  0  0  0  0  0  0
  -87.9945   29.8518   -4.8713 H   0  0  0  0  0  0  0  0  0  0  0  0
  -85.4155   25.7944    2.8656 H   0  0  0  0  0  0  0  0  0  0  0  0
  -89.2030   31.7612   -4.5411 C   0  0  0  0  0  0  0  0  0  0  0  0
  -88.8527   31.1609   -5.7510 O   0  0  0  0  0  0  0  0  0  0  0  0
  -88.3001   31.7511   -6.3239 H   0  0  0  0  0  0  0  0  0  0  0  0
  2  1  1  0  0  0
  2  3  1  0  0  0
  3  4  1  0  0  0
  4  5  1  0  0  0
  5  6  1  0  0  0
  6  7  1  0  0  0
  6 34  1  0  0  0
 34 35  1  0  0  0
  4  8  1  0  0  0
  8  9  1  0  0  0
  9 10  2  0  0  0
 10 11  1  0  0  0
 11 12  2  0  0  0
 12 13  1  0  0  0
 13 14  2  0  0  0
 14 15  1  0  0  0
 15 16  2  0  0  0
 16 17  1  0  0  0
 17 18  2  0  0  0
 17 19  1  0  0  0
 19 20  1  0  0  0
 20 21  1  0  0  0
 21 22  2  0  0  0
 22 23  1  0  0  0
 23 24  2  0  0  0
 24 25  1  0  0  0
 25 26  2  0  0  0
 26 27  1  0  0  0
 27 28  2  0  0  0
 28 29  1  0  0  0
 29 30  1  0  0  0
 30 31  2  0  0  0
  6  2  1  0  0  0
 31  8  1  0  0  0
 29  2  1  0  0  0
 14  9  1  0  0  0
 31 15  1  0  0  0
 21 16  1  0  0  0
 30 22  1  0  0  0
 28 23  1  0  0  0
  7 32  1  0  0  0
 35 36  1  0  0  0
 19 33  1  0  0  0
M  END
> <minimizedAffinity>
-11.82347

> <CNNscore>
0.5217380524

> <CNNaffinity>
6.6304526329

> <CNN_VS>
3.4593594074

> <CNNaffinity_variance>
0.2181271613

$$$$
[H]OC([H])([H])[C@@]1(O[H])C([H])([H])[C@@]2([H])O[C@]1(C([H])([H])[H])n1c3c([H])c([H])c([H])c([H])c3c3c4c(c5c6c([H])c([H])c([H])c([H])c6n2c5c31)C(=O)N([H])C4([H])[H]


 36 43  0  0  0  0  0  0  0  0999 V2000
  -89.4830   33.3882   -1.7744 C   0  0  0  0  0  0  0  0  0  0  0  0
  -88.3731   32.3938   -1.7566 C   0  0  0  0  0  0  0  0  0  0  0  0
  -87.5343   32.9674   -0.7614 O   0  0  0  0  0  0  0  0  0  0  0  0
  -86.2428   32.6537   -1.0137 C   0  0  0  0  0  0  0  0  0  0  0  0
  -86.0848   32.5698   -2.4717 C   0  0  0  0  0  0  0  0  0  0  0  0
  -87.5024   32.4212   -2.9780 C   0  0  0  0  0  0  0  0  0  0  0  0
  -87.5433   31.2396   -3.7028 O   0  0  0  0  0  0  0  0  0  0  0  0
  -85.8536   31.4358   -0.2908 N   0  0  0  0  0  0  0  0  0  0  0  0
  -84.7111   31.1487    0.3089 C   0  0  0  0  0  0  0  0  0  0  0  0
  -83.5811   31.9181    0.4096 C   0  0  0  0  0  0  0  0  0  0  0  0
  -82.4896   31.4006    1.0963 C   0  0  0  0  0  0  0  0  0  0  0  0
  -82.5427   30.1511    1.6590 C   0  0  0  0  0  0  0  0  0  0  0  0
  -83.6955   29.3631    1.5577 C   0  0  0  0  0  0  0  0  0  0  0  0
  -84.7615   29.8812    0.8811 C   0  0  0  0  0  0  0  0  0  0  0  0
  -86.0173   29.3953    0.5959 C   0  0  0  0  0  0  0  0  0  0  0  0
  -86.6684   28.2063    0.8701 C   0  0  0  0  0  0  0  0  0  0  0  0
  -86.3187   26.9899    1.5813 C   0  0  0  0  0  0  0  0  0  0  0  0
  -85.2825   26.6691    2.1656 O   0  0  0  0  0  0  0  0  0  0  0  0
  -87.4483   26.1140    1.5128 N   0  0  0  0  0  0  0  0  0  0  0  0
  -88.5225   26.7254    0.7686 C   0  0  0  0  0  0  0  0  0  0  0  0
  -87.9592   28.0476    0.4011 C   0  0  0  0  0  0  0  0  0  0  0  0
  -88.6107   29.0368   -0.3273 C   0  0  0  0  0  0  0  0  0  0  0  0
  -89.8303   29.1549   -0.9159 C   0  0  0  0  0  0  0  0  0  0  0  0
  -90.8785   28.2657   -0.9753 C   0  0  0  0  0  0  0  0  0  0  0  0
  -92.0358   28.6272   -1.6713 C   0  0  0  0  0  0  0  0  0  0  0  0
  -92.0854   29.8696   -2.2775 C   0  0  0  0  0  0  0  0  0  0  0  0
  -91.0172   30.7466   -2.2033 C   0  0  0  0  0  0  0  0  0  0  0  0
  -89.8708   30.4125   -1.5235 C   0  0  0  0  0  0  0  0  0  0  0  0
  -88.6980   31.0682   -1.3134 N   0  0  0  0  0  0  0  0  0  0  0  0
  -87.9418   30.1880   -0.5745 C   0  0  0  0  0  0  0  0  0  0  0  0
  -86.6543   30.3824   -0.1247 C   0  0  0  0  0  0  0  0  0  0  0  0
  -87.3282   31.4473   -4.6439 H   0  0  0  0  0  0  0  0  0  0  0  0
  -87.5264   25.1488    1.9335 H   0  0  0  0  0  0  0  0  0  0  0  0
  -87.7889   33.5569   -3.9008 C   0  0  0  0  0  0  0  0  0  0  0  0
  -86.6683   34.3875   -3.9361 O   0  0  0  0  0  0  0  0  0  0  0  0
  -86.8229   35.2564   -3.4853 H   0  0  0  0  0  0  0  0  0  0  0  0
  2  1  1  0  0  0
  2  3  1  0  0  0
  3  4  1  0  0  0
  4  5  1  0  0  0
  5  6  1  0  0  0
  6  7  1  0  0  0
  6 34  1  0  0  0
 34 35  1  0  0  0
  4  8  1  0  0  0
  8  9  1  0  0  0
  9 10  2  0  0  0
 10 11  1  0  0  0
 11 12  2  0  0  0
 12 13  1  0  0  0
 13 14  2  0  0  0
 14 15  1  0  0  0
 15 16  2  0  0  0
 16 17  1  0  0  0
 17 18  2  0  0  0
 17 19  1  0  0  0
 19 20  1  0  0  0
 20 21  1  0  0  0
 21 22  2  0  0  0
 22 23  1  0  0  0
 23 24  2  0  0  0
 24 25  1  0  0  0
 25 26  2  0  0  0
 26 27  1  0  0  0
 27 28  2  0  0  0
 28 29  1  0  0  0
 29 30  1  0  0  0
 30 31  2  0  0  0
  6  2  1  0  0  0
 31  8  1  0  0  0
 29  2  1  0  0  0
 14  9  1  0  0  0
 31 15  1  0  0  0
 21 16  1  0  0  0
 30 22  1  0  0  0
 28 23  1  0  0  0
  7 32  1  0  0  0
 35 36  1  0  0  0
 19 33  1  0  0  0
M  END
> <minimizedAffinity>
-11.80095

> <CNNscore>
0.4768676460

> <CNNaffinity>
6.6368231773

> <CNN_VS>
3.1648862362

> <CNNaffinity_variance>
0.1702991426

$$$$
[H]OC([H])([H])[C@@]1(O[H])C([H])([H])[C@@]2([H])O[C@]1(C([H])([H])[H])n1c3c([H])c([H])c([H])c([H])c3c3c4c(c5c6c([H])c([H])c([H])c([H])c6n2c5c31)C(=O)N([H])C4([H])[H]


 36 43  0  0  0  0  0  0  0  0999 V2000
  -90.9170   32.0237   -3.2946 C   0  0  0  0  0  0  0  0  0  0  0  0
  -89.6139   31.3526   -3.0252 C   0  0  0  0  0  0  0  0  0  0  0  0
  -89.1747   32.0955   -1.8946 O   0  0  0  0  0  0  0  0  0  0  0  0
  -87.8227   32.1366   -1.8698 C   0  0  0  0  0  0  0  0  0  0  0  0
  -87.3548   32.1393   -3.2621 C   0  0  0  0  0  0  0  0  0  0  0  0
  -88.5506   31.6415   -4.0433 C   0  0  0  0  0  0  0  0  0  0  0  0
  -88.1333   30.5117   -4.7308 O   0  0  0  0  0  0  0  0  0  0  0  0
  -87.2851   31.0416   -1.0518 N   0  0  0  0  0  0  0  0  0  0  0  0
  -86.2543   31.0445   -0.2243 C   0  0  0  0  0  0  0  0  0  0  0  0
  -85.4092   32.0784    0.0854 C   0  0  0  0  0  0  0  0  0  0  0  0
  -84.3842   31.8432    0.9935 C   0  0  0  0  0  0  0  0  0  0  0  0
  -84.2230   30.6072    1.5652 C   0  0  0  0  0  0  0  0  0  0  0  0
  -85.0846   29.5493    1.2507 C   0  0  0  0  0  0  0  0  0  0  0  0
  -86.0877   29.7915    0.3577 C   0  0  0  0  0  0  0  0  0  0  0  0
  -87.0880   29.0038   -0.1654 C   0  0  0  0  0  0  0  0  0  0  0  0
  -87.4481   27.6788    0.0002 C   0  0  0  0  0  0  0  0  0  0  0  0
  -86.9456   26.5752    0.7986 C   0  0  0  0  0  0  0  0  0  0  0  0
  -86.0032   26.5184    1.5903 O   0  0  0  0  0  0  0  0  0  0  0  0
  -87.7692   25.4377    0.5233 N   0  0  0  0  0  0  0  0  0  0  0  0
  -88.7907   25.7697   -0.4400 C   0  0  0  0  0  0  0  0  0  0  0  0
  -88.5291   27.2031   -0.7183 C   0  0  0  0  0  0  0  0  0  0  0  0
  -89.2536   28.0093   -1.5894 C   0  0  0  0  0  0  0  0  0  0  0  0
  -90.3154   27.8229   -2.4174 C   0  0  0  0  0  0  0  0  0  0  0  0
  -91.0604   26.6935   -2.6670 C   0  0  0  0  0  0  0  0  0  0  0  0
  -92.1050   26.7612   -3.5936 C   0  0  0  0  0  0  0  0  0  0  0  0
  -92.3524   27.9650   -4.2287 C   0  0  0  0  0  0  0  0  0  0  0  0
  -91.5883   29.0874   -3.9603 C   0  0  0  0  0  0  0  0  0  0  0  0
  -90.5578   29.0436   -3.0524 C   0  0  0  0  0  0  0  0  0  0  0  0
  -89.6650   29.9758   -2.6240 N   0  0  0  0  0  0  0  0  0  0  0  0
  -88.8723   29.3018   -1.7241 C   0  0  0  0  0  0  0  0  0  0  0  0
  -87.7997   29.8116   -1.0259 C   0  0  0  0  0  0  0  0  0  0  0  0
  -87.7928   30.7956   -5.6131 H   0  0  0  0  0  0  0  0  0  0  0  0
  -87.6768   24.4736    0.9437 H   0  0  0  0  0  0  0  0  0  0  0  0
  -88.9292   32.6899   -5.0339 C   0  0  0  0  0  0  0  0  0  0  0  0
  -88.0542   33.7671   -4.8893 O   0  0  0  0  0  0  0  0  0  0  0  0
  -88.4926   34.5650   -4.4981 H   0  0  0  0  0  0  0  0  0  0  0  0
  2  1  1  0  0  0
  2  3  1  0  0  0
  3  4  1  0  0  0
  4  5  1  0  0  0
  5  6  1  0  0  0
  6  7  1  0  0  0
  6 34  1  0  0  0
 34 35  1  0  0  0
  4  8  1  0  0  0
  8  9  1  0  0  0
  9 10  2  0  0  0
 10 11  1  0  0  0
 11 12  2  0  0  0
 12 13  1  0  0  0
 13 14  2  0  0  0
 14 15  1  0  0  0
 15 16  2  0  0  0
 16 17  1  0  0  0
 17 18  2  0  0  0
 17 19  1  0  0  0
 19 20  1  0  0  0
 20 21  1  0  0  0
 21 22  2  0  0  0
 22 23  1  0  0  0
 23 24  2  0  0  0
 24 25  1  0  0  0
 25 26  2  0  0  0
 26 27  1  0  0  0
 27 28  2  0  0  0
 28 29  1  0  0  0
 29 30  1  0  0  0
 30 31  2  0  0  0
  6  2  1  0  0  0
 31  8  1  0  0  0
 29  2  1  0  0  0
 14  9  1  0  0  0
 31 15  1  0  0  0
 21 16  1  0  0  0
 30 22  1  0  0  0
 28 23  1  0  0  0
  7 32  1  0  0  0
 35 36  1  0  0  0
 19 33  1  0  0  0
M  END
> <minimizedAffinity>
-11.13059

> <CNNscore>
0.3584600389

> <CNNaffinity>
6.0091986656

> <CNN_VS>
2.1540575027

> <CNNaffinity_variance>
0.9365102053

$$$$
[H]OC([H])([H])[C@@]1(O[H])C([H])([H])[C@@]2([H])O[C@]1(C([H])([H])[H])n1c3c([H])c([H])c([H])c([H])c3c3c4c(c5c6c([H])c([H])c([H])c([H])c6n2c5c31)C(=O)N([H])C4([H])[H]


 36 43  0  0  0  0  0  0  0  0999 V2000
  -90.1395   27.4838   -1.8673 C   0  0  0  0  0  0  0  0  0  0  0  0
  -89.3517   28.2356   -0.8498 C   0  0  0  0  0  0  0  0  0  0  0  0
  -88.2049   27.4004   -0.7486 O   0  0  0  0  0  0  0  0  0  0  0  0
  -87.6845   27.4847    0.4972 C   0  0  0  0  0  0  0  0  0  0  0  0
  -88.7995   27.7025    1.4283 C   0  0  0  0  0  0  0  0  0  0  0  0
  -89.9237   28.1799    0.5359 C   0  0  0  0  0  0  0  0  0  0  0  0
  -90.3113   29.4220    1.0157 O   0  0  0  0  0  0  0  0  0  0  0  0
  -86.6376   28.5132    0.5541 N   0  0  0  0  0  0  0  0  0  0  0  0
  -85.4904   28.5030    1.2109 C   0  0  0  0  0  0  0  0  0  0  0  0
  -84.9768   27.5228    2.0199 C   0  0  0  0  0  0  0  0  0  0  0  0
  -83.7375   27.7370    2.6105 C   0  0  0  0  0  0  0  0  0  0  0  0
  -83.0462   28.9004    2.3886 C   0  0  0  0  0  0  0  0  0  0  0  0
  -83.5682   29.9032    1.5628 C   0  0  0  0  0  0  0  0  0  0  0  0
  -84.7861   29.6823    0.9880 C   0  0  0  0  0  0  0  0  0  0  0  0
  -85.5750   30.4317    0.1451 C   0  0  0  0  0  0  0  0  0  0  0  0
  -85.4450   31.6850   -0.4251 C   0  0  0  0  0  0  0  0  0  0  0  0
  -84.4284   32.7211   -0.3950 C   0  0  0  0  0  0  0  0  0  0  0  0
  -83.3423   32.7661    0.1849 O   0  0  0  0  0  0  0  0  0  0  0  0
  -84.8937   33.8012   -1.2104 N   0  0  0  0  0  0  0  0  0  0  0  0
  -86.1908   33.4988   -1.7649 C   0  0  0  0  0  0  0  0  0  0  0  0
  -86.4706   32.1434   -1.2309 C   0  0  0  0  0  0  0  0  0  0  0  0
  -87.6118   31.3891   -1.4802 C   0  0  0  0  0  0  0  0  0  0  0  0
  -88.7557   31.5776   -2.1900 C   0  0  0  0  0  0  0  0  0  0  0  0
  -89.1686   32.6539   -2.9410 C   0  0  0  0  0  0  0  0  0  0  0  0
  -90.4184   32.6056   -3.5655 C   0  0  0  0  0  0  0  0  0  0  0  0
  -91.1977   31.4740   -3.4051 C   0  0  0  0  0  0  0  0  0  0  0  0
  -90.7598   30.4040   -2.6441 C   0  0  0  0  0  0  0  0  0  0  0  0
  -89.5344   30.4297   -2.0227 C   0  0  0  0  0  0  0  0  0  0  0  0
  -88.8850   29.5395   -1.2257 N   0  0  0  0  0  0  0  0  0  0  0  0
  -87.7027   30.1661   -0.9059 C   0  0  0  0  0  0  0  0  0  0  0  0
  -86.7019   29.6757   -0.0961 C   0  0  0  0  0  0  0  0  0  0  0  0
  -91.0250   29.2857    1.6843 H   0  0  0  0  0  0  0  0  0  0  0  0
  -84.3903   34.7088   -1.4050 H   0  0  0  0  0  0  0  0  0  0  0  0
  -91.0676   27.2344    0.6815 C   0  0  0  0  0  0  0  0  0  0  0  0
  -90.7476   26.3077    1.6744 O   0  0  0  0  0  0  0  0  0  0  0  0
  -90.5820   25.4008    1.3110 H   0  0  0  0  0  0  0  0  0  0  0  0
  2  1  1  0  0  0
  2  3  1  0  0  0
  3  4  1  0  0  0
  4  5  1  0  0  0
  5  6  1  0  0  0
  6  7  1  0  0  0
  6 34  1  0  0  0
 34 35  1  0  0  0
  4  8  1  0  0  0
  8  9  1  0  0  0
  9 10  2  0  0  0
 10 11  1  0  0  0
 11 12  2  0  0  0
 12 13  1  0  0  0
 13 14  2  0  0  0
 14 15  1  0  0  0
 15 16  2  0  0  0
 16 17  1  0  0  0
 17 18  2  0  0  0
 17 19  1  0  0  0
 19 20  1  0  0  0
 20 21  1  0  0  0
 21 22  2  0  0  0
 22 23  1  0  0  0
 23 24  2  0  0  0
 24 25  1  0  0  0
 25 26  2  0  0  0
 26 27  1  0  0  0
 27 28  2  0  0  0
 28 29  1  0  0  0
 29 30  1  0  0  0
 30 31  2  0  0  0
  6  2  1  0  0  0
 31  8  1  0  0  0
 29  2  1  0  0  0
 14  9  1  0  0  0
 31 15  1  0  0  0
 21 16  1  0  0  0
 30 22  1  0  0  0
 28 23  1  0  0  0
  7 32  1  0  0  0
 35 36  1  0  0  0
 19 33  1  0  0  0
M  END
> <minimizedAffinity>
-11.77198

> <CNNscore>
0.3047394753

> <CNNaffinity>
6.2885828018

> <CNN_VS>
1.9163794518

> <CNNaffinity_variance>
0.2586268783

$$$$
[H]OC([H])([H])[C@@]1(O[H])C([H])([H])[C@@]2([H])O[C@]1(C([H])([H])[H])n1c3c([H])c([H])c([H])c([H])c3c3c4c(c5c6c([H])c([H])c([H])c([H])c6n2c5c31)C(=O)N([H])C4([H])[H]


 36 43  0  0  0  0  0  0  0  0999 V2000
  -88.6170   26.7492    1.5964 C   0  0  0  0  0  0  0  0  0  0  0  0
  -88.3769   27.5321    0.3512 C   0  0  0  0  0  0  0  0  0  0  0  0
  -89.6103   28.2333    0.2504 O   0  0  0  0  0  0  0  0  0  0  0  0
  -89.8947   28.4766   -1.0496 C   0  0  0  0  0  0  0  0  0  0  0  0
  -89.3583   27.3582   -1.8363 C   0  0  0  0  0  0  0  0  0  0  0  0
  -88.3631   26.7070   -0.9017 C   0  0  0  0  0  0  0  0  0  0  0  0
  -87.1382   26.7240   -1.5517 O   0  0  0  0  0  0  0  0  0  0  0  0
  -89.3928   29.7968   -1.4525 N   0  0  0  0  0  0  0  0  0  0  0  0
  -89.9454   30.6930   -2.2518 C   0  0  0  0  0  0  0  0  0  0  0  0
  -91.1393   30.6209   -2.9215 C   0  0  0  0  0  0  0  0  0  0  0  0
  -91.5179   31.6984   -3.7130 C   0  0  0  0  0  0  0  0  0  0  0  0
  -90.7162   32.8058   -3.8206 C   0  0  0  0  0  0  0  0  0  0  0  0
  -89.4963   32.8822   -3.1378 C   0  0  0  0  0  0  0  0  0  0  0  0
  -89.1345   31.8184   -2.3634 C   0  0  0  0  0  0  0  0  0  0  0  0
  -88.0343   31.5620   -1.5770 C   0  0  0  0  0  0  0  0  0  0  0  0
  -86.8820   32.2685   -1.2838 C   0  0  0  0  0  0  0  0  0  0  0  0
  -86.3577   33.5696   -1.6579 C   0  0  0  0  0  0  0  0  0  0  0  0
  -86.8264   34.4473   -2.3845 O   0  0  0  0  0  0  0  0  0  0  0  0
  -85.0921   33.7242   -1.0082 N   0  0  0  0  0  0  0  0  0  0  0  0
  -84.7745   32.5539   -0.2265 C   0  0  0  0  0  0  0  0  0  0  0  0
  -85.9543   31.6813   -0.4436 C   0  0  0  0  0  0  0  0  0  0  0  0
  -86.1462   30.4188    0.1068 C   0  0  0  0  0  0  0  0  0  0  0  0
  -85.4269   29.6037    0.9227 C   0  0  0  0  0  0  0  0  0  0  0  0
  -84.1936   29.7907    1.5031 C   0  0  0  0  0  0  0  0  0  0  0  0
  -83.6564   28.7731    2.2971 C   0  0  0  0  0  0  0  0  0  0  0  0
  -84.3863   27.6109    2.4707 C   0  0  0  0  0  0  0  0  0  0  0  0
  -85.6252   27.4468    1.8759 C   0  0  0  0  0  0  0  0  0  0  0  0
  -86.1726   28.4344    1.0928 C   0  0  0  0  0  0  0  0  0  0  0  0
  -87.3385   28.5214    0.3981 N   0  0  0  0  0  0  0  0  0  0  0  0
  -87.2874   29.7583   -0.2019 C   0  0  0  0  0  0  0  0  0  0  0  0
  -88.2346   30.3102   -1.0363 C   0  0  0  0  0  0  0  0  0  0  0  0
  -87.0536   25.8895   -2.0726 H   0  0  0  0  0  0  0  0  0  0  0  0
  -84.4496   34.5600   -1.0662 H   0  0  0  0  0  0  0  0  0  0  0  0
  -88.7750   25.2885   -0.6974 C   0  0  0  0  0  0  0  0  0  0  0  0
  -89.0151   24.7167   -1.9473 O   0  0  0  0  0  0  0  0  0  0  0  0
  -89.9767   24.5393   -2.1075 H   0  0  0  0  0  0  0  0  0  0  0  0
  2  1  1  0  0  0
  2  3  1  0  0  0
  3  4  1  0  0  0
  4  5  1  0  0  0
  5  6  1  0  0  0
  6  7  1  0  0  0
  6 34  1  0  0  0
 34 35  1  0  0  0
  4  8  1  0  0  0
  8  9  1  0  0  0
  9 10  2  0  0  0
 10 11  1  0  0  0
 11 12  2  0  0  0
 12 13  1  0  0  0
 13 14  2  0  0  0
 14 15  1  0  0  0
 15 16  2  0  0  0
 16 17  1  0  0  0
 17 18  2  0  0  0
 17 19  1  0  0  0
 19 20  1  0  0  0
 20 21  1  0  0  0
 21 22  2  0  0  0
 22 23  1  0  0  0
 23 24  2  0  0  0
 24 25  1  0  0  0
 25 26  2  0  0  0
 26 27  1  0  0  0
 27 28  2  0  0  0
 28 29  1  0  0  0
 29 30  1  0  0  0
 30 31  2  0  0  0
  6  2  1  0  0  0
 31  8  1  0  0  0
 29  2  1  0  0  0
 14  9  1  0  0  0
 31 15  1  0  0  0
 21 16  1  0  0  0
 30 22  1  0  0  0
 28 23  1  0  0  0
  7 32  1  0  0  0
 35 36  1  0  0  0
 19 33  1  0  0  0
M  END
> <minimizedAffinity>
-11.85044

> <CNNscore>
0.2866034210

> <CNNaffinity>
6.2720613480

> <CNN_VS>
1.7975941896

> <CNNaffinity_variance>
0.2713534832

$$$$
[H]OC([H])([H])[C@@]1(O[H])C([H])([H])[C@@]2([H])O[C@]1(C([H])([H])[H])n1c3c([H])c([H])c([H])c([H])c3c3c4c(c5c6c([H])c([H])c([H])c([H])c6n2c5c31)C(=O)N([H])C4([H])[H]


 36 43  0  0  0  0  0  0  0  0999 V2000
  -89.8700   34.1572   -3.2807 C   0  0  0  0  0  0  0  0  0  0  0  0
  -88.8321   33.1341   -2.9693 C   0  0  0  0  0  0  0  0  0  0  0  0
  -88.3313   33.6463   -1.7405 O   0  0  0  0  0  0  0  0  0  0  0  0
  -87.0289   33.3088   -1.5997 C   0  0  0  0  0  0  0  0  0  0  0  0
  -86.4326   33.2776   -2.9418 C   0  0  0  0  0  0  0  0  0  0  0  0
  -87.6286   33.1861   -3.8634 C   0  0  0  0  0  0  0  0  0  0  0  0
  -87.4607   32.0351   -4.6185 O   0  0  0  0  0  0  0  0  0  0  0  0
  -86.8961   32.0540   -0.8481 N   0  0  0  0  0  0  0  0  0  0  0  0
  -85.9963   31.7138    0.0586 C   0  0  0  0  0  0  0  0  0  0  0  0
  -84.9416   32.4488    0.5346 C   0  0  0  0  0  0  0  0  0  0  0  0
  -84.1202   31.8764    1.4981 C   0  0  0  0  0  0  0  0  0  0  0  0
  -84.3596   30.6079    1.9607 C   0  0  0  0  0  0  0  0  0  0  0  0
  -85.4360   29.8549    1.4763 C   0  0  0  0  0  0  0  0  0  0  0  0
  -86.2363   30.4267    0.5303 C   0  0  0  0  0  0  0  0  0  0  0  0
  -87.3505   29.9855   -0.1467 C   0  0  0  0  0  0  0  0  0  0  0  0
  -88.0697   28.8042   -0.1387 C   0  0  0  0  0  0  0  0  0  0  0  0
  -87.9709   27.5523    0.5898 C   0  0  0  0  0  0  0  0  0  0  0  0
  -87.1681   27.1819    1.4479 O   0  0  0  0  0  0  0  0  0  0  0  0
  -89.0365   26.7098    0.1398 N   0  0  0  0  0  0  0  0  0  0  0  0
  -89.8227   27.3776   -0.8689 C   0  0  0  0  0  0  0  0  0  0  0  0
  -89.1565   28.6978   -0.9865 C   0  0  0  0  0  0  0  0  0  0  0  0
  -89.5404   29.7314   -1.8339 C   0  0  0  0  0  0  0  0  0  0  0  0
  -90.5191   29.9044   -2.7612 C   0  0  0  0  0  0  0  0  0  0  0  0
  -91.5101   29.0460   -3.1783 C   0  0  0  0  0  0  0  0  0  0  0  0
  -92.3935   29.4645   -4.1777 C   0  0  0  0  0  0  0  0  0  0  0  0
  -92.2386   30.7305   -4.7134 C   0  0  0  0  0  0  0  0  0  0  0  0
  -91.2332   31.5756   -4.2768 C   0  0  0  0  0  0  0  0  0  0  0  0
  -90.3549   31.1852   -3.2948 C   0  0  0  0  0  0  0  0  0  0  0  0
  -89.2945   31.8013   -2.7068 N   0  0  0  0  0  0  0  0  0  0  0  0
  -88.8129   30.8734   -1.8126 C   0  0  0  0  0  0  0  0  0  0  0  0
  -87.7229   31.0163   -0.9823 C   0  0  0  0  0  0  0  0  0  0  0  0
  -86.9648   32.2734   -5.4384 H   0  0  0  0  0  0  0  0  0  0  0  0
  -89.2524   25.7313    0.4726 H   0  0  0  0  0  0  0  0  0  0  0  0
  -87.6034   34.3640   -4.7775 C   0  0  0  0  0  0  0  0  0  0  0  0
  -86.6379   35.2586   -4.3145 O   0  0  0  0  0  0  0  0  0  0  0  0
  -87.0333   36.0840   -3.9346 H   0  0  0  0  0  0  0  0  0  0  0  0
  2  1  1  0  0  0
  2  3  1  0  0  0
  3  4  1  0  0  0
  4  5  1  0  0  0
  5  6  1  0  0  0
  6  7  1  0  0  0
  6 34  1  0  0  0
 34 35  1  0  0  0
  4  8  1  0  0  0
  8  9  1  0  0  0
  9 10  2  0  0  0
 10 11  1  0  0  0
 11 12  2  0  0  0
 12 13  1  0  0  0
 13 14  2  0  0  0
 14 15  1  0  0  0
 15 16  2  0  0  0
 16 17  1  0  0  0
 17 18  2  0  0  0
 17 19  1  0  0  0
 19 20  1  0  0  0
 20 21  1  0  0  0
 21 22  2  0  0  0
 22 23  1  0  0  0
 23 24  2  0  0  0
 24 25  1  0  0  0
 25 26  2  0  0  0
 26 27  1  0  0  0
 27 28  2  0  0  0
 28 29  1  0  0  0
 29 30  1  0  0  0
 30 31  2  0  0  0
  6  2  1  0  0  0
 31  8  1  0  0  0
 29  2  1  0  0  0
 14  9  1  0  0  0
 31 15  1  0  0  0
 21 16  1  0  0  0
 30 22  1  0  0  0
 28 23  1  0  0  0
  7 32  1  0  0  0
 35 36  1  0  0  0
 19 33  1  0  0  0
M  END
> <minimizedAffinity>
-10.70990

> <CNNscore>
0.2571989894

> <CNNaffinity>
6.0751919746

> <CNN_VS>
1.5625332594

> <CNNaffinity_variance>
0.3611299992

$$$$
[H]OC([H])([H])[C@@]1(O[H])C([H])([H])[C@@]2([H])O[C@]1(C([H])([H])[H])n1c3c([H])c([H])c([H])c([H])c3c3c4c(c5c6c([H])c([H])c([H])c([H])c6n2c5c31)C(=O)N([H])C4([H])[H]


 36 43  0  0  0  0  0  0  0  0999 V2000
  -89.9370   25.9329   -0.6671 C   0  0  0  0  0  0  0  0  0  0  0  0
  -89.2002   26.9291    0.1611 C   0  0  0  0  0  0  0  0  0  0  0  0
  -87.8791   26.4105    0.0664 O   0  0  0  0  0  0  0  0  0  0  0  0
  -87.1862   26.7130    1.1881 C   0  0  0  0  0  0  0  0  0  0  0  0
  -88.1376   26.7200    2.3072 C   0  0  0  0  0  0  0  0  0  0  0  0
  -89.4855   26.8388    1.6311 C   0  0  0  0  0  0  0  0  0  0  0  0
  -90.0859   27.9804    2.1406 O   0  0  0  0  0  0  0  0  0  0  0  0
  -86.4429   27.9681    1.0166 N   0  0  0  0  0  0  0  0  0  0  0  0
  -85.2338   28.2888    1.4440 C   0  0  0  0  0  0  0  0  0  0  0  0
  -84.3530   27.5280    2.1682 C   0  0  0  0  0  0  0  0  0  0  0  0
  -83.1252   28.0832    2.5069 C   0  0  0  0  0  0  0  0  0  0  0  0
  -82.8035   29.3605    2.1255 C   0  0  0  0  0  0  0  0  0  0  0  0
  -83.7011   30.1399    1.3857 C   0  0  0  0  0  0  0  0  0  0  0  0
  -84.9040   29.5847    1.0587 C   0  0  0  0  0  0  0  0  0  0  0  0
  -85.9938   30.0523    0.3599 C   0  0  0  0  0  0  0  0  0  0  0  0
  -86.2901   31.2528   -0.2596 C   0  0  0  0  0  0  0  0  0  0  0  0
  -85.5824   32.5059   -0.4518 C   0  0  0  0  0  0  0  0  0  0  0  0
  -84.4589   32.8591   -0.0898 O   0  0  0  0  0  0  0  0  0  0  0  0
  -86.4437   33.3746   -1.1942 N   0  0  0  0  0  0  0  0  0  0  0  0
  -87.6977   32.7226   -1.4840 C   0  0  0  0  0  0  0  0  0  0  0  0
  -87.5241   31.3840   -0.8688 C   0  0  0  0  0  0  0  0  0  0  0  0
  -88.4609   30.3564   -0.8760 C   0  0  0  0  0  0  0  0  0  0  0  0
  -89.7216   30.2049   -1.3611 C   0  0  0  0  0  0  0  0  0  0  0  0
  -90.5210   31.0877   -2.0501 C   0  0  0  0  0  0  0  0  0  0  0  0
  -91.8071   30.6877   -2.4248 C   0  0  0  0  0  0  0  0  0  0  0  0
  -92.2313   29.4149   -2.0878 C   0  0  0  0  0  0  0  0  0  0  0  0
  -91.4080   28.5451   -1.3939 C   0  0  0  0  0  0  0  0  0  0  0  0
  -90.1400   28.9170   -1.0170 C   0  0  0  0  0  0  0  0  0  0  0  0
  -89.1551   28.2756   -0.3329 N   0  0  0  0  0  0  0  0  0  0  0  0
  -88.1343   29.1950   -0.2608 C   0  0  0  0  0  0  0  0  0  0  0  0
  -86.9150   29.0272    0.3580 C   0  0  0  0  0  0  0  0  0  0  0  0
  -90.6119   27.7238    2.9359 H   0  0  0  0  0  0  0  0  0  0  0  0
  -86.2308   34.3606   -1.5061 H   0  0  0  0  0  0  0  0  0  0  0  0
  -90.3064   25.6554    2.0174 C   0  0  0  0  0  0  0  0  0  0  0  0
  -89.5136   24.8035    2.7872 O   0  0  0  0  0  0  0  0  0  0  0  0
  -89.2797   23.9663    2.3116 H   0  0  0  0  0  0  0  0  0  0  0  0
  2  1  1  0  0  0
  2  3  1  0  0  0
  3  4  1  0  0  0
  4  5  1  0  0  0
  5  6  1  0  0  0
  6  7  1  0  0  0
  6 34  1  0  0  0
 34 35  1  0  0  0
  4  8  1  0  0  0
  8  9  1  0  0  0
  9 10  2  0  0  0
 10 11  1  0  0  0
 11 12  2  0  0  0
 12 13  1  0  0  0
 13 14  2  0  0  0
 14 15  1  0  0  0
 15 16  2  0  0  0
 16 17  1  0  0  0
 17 18  2  0  0  0
 17 19  1  0  0  0
 19 20  1  0  0  0
 20 21  1  0  0  0
 21 22  2  0  0  0
 22 23  1  0  0  0
 23 24  2  0  0  0
 24 25  1  0  0  0
 25 26  2  0  0  0
 26 27  1  0  0  0
 27 28  2  0  0  0
 28 29  1  0  0  0
 29 30  1  0  0  0
 30 31  2  0  0  0
  6  2  1  0  0  0
 31  8  1  0  0  0
 29  2  1  0  0  0
 14  9  1  0  0  0
 31 15  1  0  0  0
 21 16  1  0  0  0
 30 22  1  0  0  0
 28 23  1  0  0  0
  7 32  1  0  0  0
 35 36  1  0  0  0
 19 33  1  0  0  0
M  END
> <minimizedAffinity>
-12.29914

> <CNNscore>
0.2272503674

> <CNNaffinity>
6.2947912216

> <CNN_VS>
1.4304935932

> <CNNaffinity_variance>
0.1885927022

$$$$
[H]OC([H])([H])[C@@]1(O[H])C([H])([H])[C@@]2([H])O[C@]1(C([H])([H])[H])n1c3c([H])c([H])c([H])c([H])c3c3c4c(c5c6c([H])c([H])c([H])c([H])c6n2c5c31)C(=O)N([H])C4([H])[H]


 36 43  0  0  0  0  0  0  0  0999 V2000
  -89.9491   29.5684   -2.8726 C   0  0  0  0  0  0  0  0  0  0  0  0
  -89.1972   29.8457   -1.6160 C   0  0  0  0  0  0  0  0  0  0  0  0
  -88.3848   28.6804   -1.5439 O   0  0  0  0  0  0  0  0  0  0  0  0
  -88.1217   28.3841   -0.2505 C   0  0  0  0  0  0  0  0  0  0  0  0
  -89.2886   28.7924    0.5429 C   0  0  0  0  0  0  0  0  0  0  0  0
  -90.0254   29.7483   -0.3690 C   0  0  0  0  0  0  0  0  0  0  0  0
  -90.1251   30.9511    0.3141 O   0  0  0  0  0  0  0  0  0  0  0  0
  -86.8556   28.9950    0.1749 N   0  0  0  0  0  0  0  0  0  0  0  0
  -85.9155   28.5061    0.9651 C   0  0  0  0  0  0  0  0  0  0  0  0
  -85.8790   27.2927    1.6018 C   0  0  0  0  0  0  0  0  0  0  0  0
  -84.7744   26.9942    2.3901 C   0  0  0  0  0  0  0  0  0  0  0  0
  -83.7468   27.8918    2.5270 C   0  0  0  0  0  0  0  0  0  0  0  0
  -83.7813   29.1319    1.8779 C   0  0  0  0  0  0  0  0  0  0  0  0
  -84.8708   29.4147    1.1063 C   0  0  0  0  0  0  0  0  0  0  0  0
  -85.2250   30.5076    0.3483 C   0  0  0  0  0  0  0  0  0  0  0  0
  -84.6274   31.7281    0.0912 C   0  0  0  0  0  0  0  0  0  0  0  0
  -83.3823   32.3604    0.4883 C   0  0  0  0  0  0  0  0  0  0  0  0
  -82.4679   31.9553    1.2079 O   0  0  0  0  0  0  0  0  0  0  0  0
  -83.3433   33.6524   -0.1259 N   0  0  0  0  0  0  0  0  0  0  0  0
  -84.5347   33.8814   -0.9067 C   0  0  0  0  0  0  0  0  0  0  0  0
  -85.2947   32.6201   -0.7276 C   0  0  0  0  0  0  0  0  0  0  0  0
  -86.5314   32.3271   -1.2916 C   0  0  0  0  0  0  0  0  0  0  0  0
  -87.4065   32.9898   -2.0934 C   0  0  0  0  0  0  0  0  0  0  0  0
  -87.3324   34.2507   -2.6389 C   0  0  0  0  0  0  0  0  0  0  0  0
  -88.3921   34.7129   -3.4250 C   0  0  0  0  0  0  0  0  0  0  0  0
  -89.4807   33.8833   -3.6263 C   0  0  0  0  0  0  0  0  0  0  0  0
  -89.5315   32.6186   -3.0663 C   0  0  0  0  0  0  0  0  0  0  0  0
  -88.5006   32.1438   -2.2915 C   0  0  0  0  0  0  0  0  0  0  0  0
  -88.3086   30.9723   -1.6280 N   0  0  0  0  0  0  0  0  0  0  0  0
  -87.0844   31.1214   -1.0185 C   0  0  0  0  0  0  0  0  0  0  0  0
  -86.4504   30.2070   -0.2062 C   0  0  0  0  0  0  0  0  0  0  0  0
  -90.9662   30.9434    0.8313 H   0  0  0  0  0  0  0  0  0  0  0  0
  -82.5710   34.3678   -0.0449 H   0  0  0  0  0  0  0  0  0  0  0  0
  -91.3986   29.2123   -0.5939 C   0  0  0  0  0  0  0  0  0  0  0  0
  -91.9073   28.7797    0.6312 O   0  0  0  0  0  0  0  0  0  0  0  0
  -91.9793   27.7931    0.6875 H   0  0  0  0  0  0  0  0  0  0  0  0
  2  1  1  0  0  0
  2  3  1  0  0  0
  3  4  1  0  0  0
  4  5  1  0  0  0
  5  6  1  0  0  0
  6  7  1  0  0  0
  6 34  1  0  0  0
 34 35  1  0  0  0
  4  8  1  0  0  0
  8  9  1  0  0  0
  9 10  2  0  0  0
 10 11  1  0  0  0
 11 12  2  0  0  0
 12 13  1  0  0  0
 13 14  2  0  0  0
 14 15  1  0  0  0
 15 16  2  0  0  0
 16 17  1  0  0  0
 17 18  2  0  0  0
 17 19  1  0  0  0
 19 20  1  0  0  0
 20 21  1  0  0  0
 21 22  2  0  0  0
 22 23  1  0  0  0
 23 24  2  0  0  0
 24 25  1  0  0  0
 25 26  2  0  0  0
 26 27  1  0  0  0
 27 28  2  0  0  0
 28 29  1  0  0  0
 29 30  1  0  0  0
 30 31  2  0  0  0
  6  2  1  0  0  0
 31  8  1  0  0  0
 29  2  1  0  0  0
 14  9  1  0  0  0
 31 15  1  0  0  0
 21 16  1  0  0  0
 30 22  1  0  0  0
 28 23  1  0  0  0
  7 32  1  0  0  0
 35 36  1  0  0  0
 19 33  1  0  0  0
M  END
> <minimizedAffinity>
-11.60350

> <CNNscore>
0.1831458509

> <CNNaffinity>
6.0084409714

> <CNN_VS>
1.1004210711

> <CNNaffinity_variance>
0.6104825735

$$$$
[H]c1nc(N([H])c2c([H])c(N([H])C(=O)c3c([H])c([H])c(C([H])([H])N4C([H])([H])C([H])([H])N(C([H])([H])[H])C([H])([H])C4([H])[H])c(C(F)(F)F)c3[H])c([H])c([H])c2C([H])([H])[H])nc(-c2c([H])nc([H])c([H])c2[H])c1[H]


 43 47  0  0  0  0  0  0  0  0999 V2000
  -89.3596   31.1354   -1.2075 C   0  0  0  0  0  0  0  0  0  0  0  0
  -89.2795   31.7598   -0.1310 O   0  0  0  0  0  0  0  0  0  0  0  0
  -89.2964   29.7442   -1.2611 N   0  0  0  0  0  0  0  0  0  0  0  0
  -89.3733   29.2912   -2.2435 H   0  0  0  0  0  0  0  0  0  0  0  0
  -89.1501   28.8102   -0.2209 C   0  0  0  0  0  0  0  0  0  0  0  0
  -90.3097   28.2444    0.3253 C   0  0  0  0  0  0  0  0  0  0  0  0
  -90.2177   27.3402    1.3532 C   0  0  0  0  0  0  0  0  0  0  0  0
  -88.9898   26.9761    1.8620 C   0  0  0  0  0  0  0  0  0  0  0  0
  -88.8958   26.0010    2.9673 C   0  0  0  0  0  0  0  0  0  0  0  0
  -87.8041   27.5066    1.3584 C   0  0  0  0  0  0  0  0  0  0  0  0
  -87.9263   28.4074    0.3322 C   0  0  0  0  0  0  0  0  0  0  0  0
  -86.5946   27.1018    1.9196 N   0  0  0  0  0  0  0  0  0  0  0  0
  -86.5876   26.1298    2.4076 H   0  0  0  0  0  0  0  0  0  0  0  0
  -85.3476   27.7458    1.9702 C   0  0  0  0  0  0  0  0  0  0  0  0
  -84.2401   27.2852    2.5644 N   0  0  0  0  0  0  0  0  0  0  0  0
  -83.0798   27.9515    2.5753 C   0  0  0  0  0  0  0  0  0  0  0  0
  -82.9783   29.1990    1.9431 C   0  0  0  0  0  0  0  0  0  0  0  0
  -84.1068   29.6846    1.3289 C   0  0  0  0  0  0  0  0  0  0  0  0
  -85.2227   28.9461    1.3704 N   0  0  0  0  0  0  0  0  0  0  0  0
  -84.1089   30.9918    0.6306 C   0  0  0  0  0  0  0  0  0  0  0  0
  -85.2782   31.6240    0.3283 C   0  0  0  0  0  0  0  0  0  0  0  0
  -85.2325   32.8579   -0.3310 C   0  0  0  0  0  0  0  0  0  0  0  0
  -84.0331   33.4345   -0.6741 C   0  0  0  0  0  0  0  0  0  0  0  0
  -82.9058   32.7774   -0.3575 N   0  0  0  0  0  0  0  0  0  0  0  0
  -82.9175   31.5920    0.2750 C   0  0  0  0  0  0  0  0  0  0  0  0
  -89.7905   33.5918   -4.6983 C   0  0  0  0  0  0  0  0  0  0  0  0
  -90.4891   32.4182   -4.5634 C   0  0  0  0  0  0  0  0  0  0  0  0
  -90.3590   31.6143   -3.4339 C   0  0  0  0  0  0  0  0  0  0  0  0
  -89.5234   31.9622   -2.4060 C   0  0  0  0  0  0  0  0  0  0  0  0
  -88.8301   33.1432   -2.5608 C   0  0  0  0  0  0  0  0  0  0  0  0
  -88.9369   33.9581   -3.6615 C   0  0  0  0  0  0  0  0  0  0  0  0
  -88.1747   35.2242   -3.7890 C   0  0  0  0  0  0  0  0  0  0  0  0
  -88.9728   36.3429   -3.7711 F   0  0  0  0  0  0  0  0  0  0  0  0
  -87.3199   35.2991   -2.6951 F   0  0  0  0  0  0  0  0  0  0  0  0
  -87.3504   35.2111   -4.9078 F   0  0  0  0  0  0  0  0  0  0  0  0
  -89.9047   34.3820   -5.9216 C   0  0  0  0  0  0  0  0  0  0  0  0
  -93.2872   35.5454   -9.4588 C   0  0  0  0  0  0  0  0  0  0  0  0
  -92.3579   36.1847   -8.5474 N   0  0  0  0  0  0  0  0  0  0  0  0
  -91.1105   35.4150   -8.6074 C   0  0  0  0  0  0  0  0  0  0  0  0
  -91.2997   34.1437   -7.8361 C   0  0  0  0  0  0  0  0  0  0  0  0
  -91.3204   34.3749   -6.3705 N   0  0  0  0  0  0  0  0  0  0  0  0
  -91.8241   35.7597   -6.2032 C   0  0  0  0  0  0  0  0  0  0  0  0
  -92.9252   36.0526   -7.2032 C   0  0  0  0  0  0  0  0  0  0  0  0
 37 38  1  0  0  0
 38 39  1  0  0  0
 39 40  1  0  0  0
 40 41  1  0  0  0
 41 36  1  0  0  0
 36 26  1  0  0  0
 26 27  2  0  0  0
 27 28  1  0  0  0
 28 29  2  0  0  0
 29 30  1  0  0  0
 30 31  2  0  0  0
 31 32  1  0  0  0
 32 33  1  0  0  0
 32 34  1  0  0  0
 32 35  1  0  0  0
 29  1  1  0  0  0
  1  2  2  0  0  0
  1  3  1  0  0  0
  3  5  1  0  0  0
  5  6  2  0  0  0
  6  7  1  0  0  0
  7  8  2  0  0  0
  8  9  1  0  0  0
  8 10  1  0  0  0
 10 12  1  0  0  0
 12 14  1  0  0  0
 14 15  2  0  0  0
 15 16  1  0  0  0
 16 17  2  0  0  0
 17 18  1  0  0  0
 18 19  2  0  0  0
 18 20  1  0  0  0
 20 21  2  0  0  0
 21 22  1  0  0  0
 22 23  2  0  0  0
 23 24  1  0  0  0
 24 25  2  0  0  0
 10 11  2  0  0  0
 41 42  1  0  0  0
 42 43  1  0  0  0
 43 38  1  0  0  0
 31 26  1  0  0  0
 11  5  1  0  0  0
 19 14  1  0  0  0
 25 20  1  0  0  0
  3  4  1  0  0  0
 12 13  1  0  0  0
M  END
> <minimizedAffinity>
-9.96076

> <CNNscore>
0.7166563272

> <CNNaffinity>
7.6322937012

> <CNN_VS>
5.4697318077

> <CNNaffinity_variance>
0.0389250256

$$$$
[H]c1nc(N([H])c2c([H])c(N([H])C(=O)c3c([H])c([H])c(C([H])([H])N4C([H])([H])C([H])([H])N(C([H])([H])[H])C([H])([H])C4([H])[H])c(C(F)(F)F)c3[H])c([H])c([H])c2C([H])([H])[H])nc(-c2c([H])nc([H])c([H])c2[H])c1[H]


 43 47  0  0  0  0  0  0  0  0999 V2000
  -86.8710   33.4604   -2.8247 C   0  0  0  0  0  0  0  0  0  0  0  0
  -87.2771   32.2966   -3.0144 O   0  0  0  0  0  0  0  0  0  0  0  0
  -85.8870   33.7551   -1.8827 N   0  0  0  0  0  0  0  0  0  0  0  0
  -85.6004   34.7968   -1.7883 H   0  0  0  0  0  0  0  0  0  0  0  0
  -85.1854   32.8979   -1.0174 C   0  0  0  0  0  0  0  0  0  0  0  0
  -83.8269   33.1561   -0.7919 C   0  0  0  0  0  0  0  0  0  0  0  0
  -83.0968   32.3375    0.0323 C   0  0  0  0  0  0  0  0  0  0  0  0
  -83.6850   31.2541    0.6483 C   0  0  0  0  0  0  0  0  0  0  0  0
  -82.8954   30.3768    1.5361 C   0  0  0  0  0  0  0  0  0  0  0  0
  -85.0314   30.9492    0.4604 C   0  0  0  0  0  0  0  0  0  0  0  0
  -85.7359   31.7839   -0.3681 C   0  0  0  0  0  0  0  0  0  0  0  0
  -85.5655   29.8366    1.1074 N   0  0  0  0  0  0  0  0  0  0  0  0
  -85.1751   29.6184    2.0989 H   0  0  0  0  0  0  0  0  0  0  0  0
  -86.5454   28.9196    0.6938 C   0  0  0  0  0  0  0  0  0  0  0  0
  -86.7452   28.4812   -0.5550 N   0  0  0  0  0  0  0  0  0  0  0  0
  -87.7005   27.6032   -0.8824 C   0  0  0  0  0  0  0  0  0  0  0  0
  -88.5559   27.0930    0.1045 C   0  0  0  0  0  0  0  0  0  0  0  0
  -88.3628   27.5337    1.3910 C   0  0  0  0  0  0  0  0  0  0  0  0
  -87.3808   28.4137    1.6223 N   0  0  0  0  0  0  0  0  0  0  0  0
  -89.2098   27.0573    2.5100 C   0  0  0  0  0  0  0  0  0  0  0  0
  -88.8850   25.9308    3.2056 C   0  0  0  0  0  0  0  0  0  0  0  0
  -89.7134   25.5185    4.2558 C   0  0  0  0  0  0  0  0  0  0  0  0
  -90.8405   26.2298    4.5911 C   0  0  0  0  0  0  0  0  0  0  0  0
  -91.1229   27.3331    3.8798 N   0  0  0  0  0  0  0  0  0  0  0  0
  -90.3472   27.7539    2.8666 C   0  0  0  0  0  0  0  0  0  0  0  0
  -88.6843   36.5223   -5.2208 C   0  0  0  0  0  0  0  0  0  0  0  0
  -88.6188   35.2227   -5.6572 C   0  0  0  0  0  0  0  0  0  0  0  0
  -88.0348   34.2204   -4.8869 C   0  0  0  0  0  0  0  0  0  0  0  0
  -87.4977   34.4910   -3.6564 C   0  0  0  0  0  0  0  0  0  0  0  0
  -87.5723   35.8016   -3.2367 C   0  0  0  0  0  0  0  0  0  0  0  0
  -88.1420   36.8125   -3.9720 C   0  0  0  0  0  0  0  0  0  0  0  0
  -88.2052   38.2115   -3.4831 C   0  0  0  0  0  0  0  0  0  0  0  0
  -87.5986   39.1101   -4.3276 F   0  0  0  0  0  0  0  0  0  0  0  0
  -89.5497   38.5548   -3.3979 F   0  0  0  0  0  0  0  0  0  0  0  0
  -87.7084   38.3210   -2.1897 F   0  0  0  0  0  0  0  0  0  0  0  0
  -89.2503   37.5608   -6.0782 C   0  0  0  0  0  0  0  0  0  0  0  0
  -87.2943   39.5986  -10.2409 C   0  0  0  0  0  0  0  0  0  0  0  0
  -88.5012   39.6377   -9.4381 N   0  0  0  0  0  0  0  0  0  0  0  0
  -88.0741   39.6869   -8.0355 C   0  0  0  0  0  0  0  0  0  0  0  0
  -87.6130   38.3190   -7.6315 C   0  0  0  0  0  0  0  0  0  0  0  0
  -88.7439   37.3736   -7.4617 N   0  0  0  0  0  0  0  0  0  0  0  0
  -89.8048   37.8704   -8.3713 C   0  0  0  0  0  0  0  0  0  0  0  0
  -89.2041   38.3733   -9.6691 C   0  0  0  0  0  0  0  0  0  0  0  0
 37 38  1  0  0  0
 38 39  1  0  0  0
 39 40  1  0  0  0
 40 41  1  0  0  0
 41 36  1  0  0  0
 36 26  1  0  0  0
 26 27  2  0  0  0
 27 28  1  0  0  0
 28 29  2  0  0  0
 29 30  1  0  0  0
 30 31  2  0  0  0
 31 32  1  0  0  0
 32 33  1  0  0  0
 32 34  1  0  0  0
 32 35  1  0  0  0
 29  1  1  0  0  0
  1  2  2  0  0  0
  1  3  1  0  0  0
  3  5  1  0  0  0
  5  6  2  0  0  0
  6  7  1  0  0  0
  7  8  2  0  0  0
  8  9  1  0  0  0
  8 10  1  0  0  0
 10 12  1  0  0  0
 12 14  1  0  0  0
 14 15  2  0  0  0
 15 16  1  0  0  0
 16 17  2  0  0  0
 17 18  1  0  0  0
 18 19  2  0  0  0
 18 20  1  0  0  0
 20 21  2  0  0  0
 21 22  1  0  0  0
 22 23  2  0  0  0
 23 24  1  0  0  0
 24 25  2  0  0  0
 10 11  2  0  0  0
 41 42  1  0  0  0
 42 43  1  0  0  0
 43 38  1  0  0  0
 31 26  1  0  0  0
 11  5  1  0  0  0
 19 14  1  0  0  0
 25 20  1  0  0  0
  3  4  1  0  0  0
 12 13  1  0  0  0
M  END
> <minimizedAffinity>
-9.81234

> <CNNscore>
0.4057311714

> <CNNaffinity>
7.0463132858

> <CNN_VS>
2.8589088917

> <CNNaffinity_variance>
0.1677144617

$$$$
[H]c1nc(N([H])c2c([H])c(N([H])C(=O)c3c([H])c([H])c(C([H])([H])N4C([H])([H])C([H])([H])N(C([H])([H])[H])C([H])([H])C4([H])[H])c(C(F)(F)F)c3[H])c([H])c([H])c2C([H])([H])[H])nc(-c2c([H])nc([H])c([H])c2[H])c1[H]


 43 47  0  0  0  0  0  0  0  0999 V2000
  -89.0266   28.3012   -0.6751 C   0  0  0  0  0  0  0  0  0  0  0  0
  -88.0360   28.1078   -1.4076 O   0  0  0  0  0  0  0  0  0  0  0  0
  -89.5612   29.5728   -0.4760 N   0  0  0  0  0  0  0  0  0  0  0  0
  -90.4222   29.6414    0.1798 H   0  0  0  0  0  0  0  0  0  0  0  0
  -89.1571   30.8108   -1.0052 C   0  0  0  0  0  0  0  0  0  0  0  0
  -89.9674   31.4071   -1.9804 C   0  0  0  0  0  0  0  0  0  0  0  0
  -89.6057   32.6076   -2.5377 C   0  0  0  0  0  0  0  0  0  0  0  0
  -88.4459   33.2425   -2.1492 C   0  0  0  0  0  0  0  0  0  0  0  0
  -88.0617   34.5355   -2.7507 C   0  0  0  0  0  0  0  0  0  0  0  0
  -87.6020   32.6962   -1.1846 C   0  0  0  0  0  0  0  0  0  0  0  0
  -87.9883   31.4963   -0.6454 C   0  0  0  0  0  0  0  0  0  0  0  0
  -86.4410   33.3849   -0.8391 N   0  0  0  0  0  0  0  0  0  0  0  0
  -86.4955   34.4709   -0.8645 H   0  0  0  0  0  0  0  0  0  0  0  0
  -85.1758   32.9118   -0.4546 C   0  0  0  0  0  0  0  0  0  0  0  0
  -84.0050   33.5316   -0.6461 N   0  0  0  0  0  0  0  0  0  0  0  0
  -82.8310   33.0238   -0.2533 C   0  0  0  0  0  0  0  0  0  0  0  0
  -82.7829   31.7816    0.3954 C   0  0  0  0  0  0  0  0  0  0  0  0
  -83.9767   31.1337    0.5991 C   0  0  0  0  0  0  0  0  0  0  0  0
  -85.1013   31.7204    0.1708 N   0  0  0  0  0  0  0  0  0  0  0  0
  -84.0394   29.8168    1.2759 C   0  0  0  0  0  0  0  0  0  0  0  0
  -82.9514   29.3057    1.9190 C   0  0  0  0  0  0  0  0  0  0  0  0
  -83.0565   28.0586    2.5458 C   0  0  0  0  0  0  0  0  0  0  0  0
  -84.2334   27.3494    2.5207 C   0  0  0  0  0  0  0  0  0  0  0  0
  -85.2800   27.8898    1.8761 N   0  0  0  0  0  0  0  0  0  0  0  0
  -85.2098   29.0846    1.2653 C   0  0  0  0  0  0  0  0  0  0  0  0
  -90.6551   24.8237    1.2379 C   0  0  0  0  0  0  0  0  0  0  0  0
  -90.7404   24.9937   -0.1213 C   0  0  0  0  0  0  0  0  0  0  0  0
  -90.2132   26.1171   -0.7531 C   0  0  0  0  0  0  0  0  0  0  0  0
  -89.5860   27.1046   -0.0411 C   0  0  0  0  0  0  0  0  0  0  0  0
  -89.5116   26.9160    1.3221 C   0  0  0  0  0  0  0  0  0  0  0  0
  -90.0206   25.8196    1.9748 C   0  0  0  0  0  0  0  0  0  0  0  0
  -89.9175   25.6523    3.4451 C   0  0  0  0  0  0  0  0  0  0  0  0
  -89.2877   24.4887    3.8166 F   0  0  0  0  0  0  0  0  0  0  0  0
  -89.1590   26.7138    3.9255 F   0  0  0  0  0  0  0  0  0  0  0  0
  -91.1588   25.7715    4.0587 F   0  0  0  0  0  0  0  0  0  0  0  0
  -91.2704   23.6627    1.8762 C   0  0  0  0  0  0  0  0  0  0  0  0
  -91.3129   18.7914    0.6211 C   0  0  0  0  0  0  0  0  0  0  0  0
  -91.6448   19.6624    1.7319 N   0  0  0  0  0  0  0  0  0  0  0  0
  -92.3446   20.8208    1.1658 C   0  0  0  0  0  0  0  0  0  0  0  0
  -91.3333   21.7130    0.5114 C   0  0  0  0  0  0  0  0  0  0  0  0
  -90.5066   22.4450    1.5025 N   0  0  0  0  0  0  0  0  0  0  0  0
  -90.4815   21.5761    2.7042 C   0  0  0  0  0  0  0  0  0  0  0  0
  -90.3763   20.1169    2.3068 C   0  0  0  0  0  0  0  0  0  0  0  0
 37 38  1  0  0  0
 38 39  1  0  0  0
 39 40  1  0  0  0
 40 41  1  0  0  0
 41 36  1  0  0  0
 36 26  1  0  0  0
 26 27  2  0  0  0
 27 28  1  0  0  0
 28 29  2  0  0  0
 29 30  1  0  0  0
 30 31  2  0  0  0
 31 32  1  0  0  0
 32 33  1  0  0  0
 32 34  1  0  0  0
 32 35  1  0  0  0
 29  1  1  0  0  0
  1  2  2  0  0  0
  1  3  1  0  0  0
  3  5  1  0  0  0
  5  6  2  0  0  0
  6  7  1  0  0  0
  7  8  2  0  0  0
  8  9  1  0  0  0
  8 10  1  0  0  0
 10 12  1  0  0  0
 12 14  1  0  0  0
 14 15  2  0  0  0
 15 16  1  0  0  0
 16 17  2  0  0  0
 17 18  1  0  0  0
 18 19  2  0  0  0
 18 20  1  0  0  0
 20 21  2  0  0  0
 21 22  1  0  0  0
 22 23  2  0  0  0
 23 24  1  0  0  0
 24 25  2  0  0  0
 10 11  2  0  0  0
 41 42  1  0  0  0
 42 43  1  0  0  0
 43 38  1  0  0  0
 31 26  1  0  0  0
 11  5  1  0  0  0
 19 14  1  0  0  0
 25 20  1  0  0  0
  3  4  1  0  0  0
 12 13  1  0  0  0
M  END
> <minimizedAffinity>
-10.20741

> <CNNscore>
0.2827170193

> <CNNaffinity>
7.4901261330

> <CNN_VS>
2.1175861359

> <CNNaffinity_variance>
0.0961408317

$$$$
[H]c1nc(N([H])c2c([H])c(N([H])C(=O)c3c([H])c([H])c(C([H])([H])N4C([H])([H])C([H])([H])N(C([H])([H])[H])C([H])([H])C4([H])[H])c(C(F)(F)F)c3[H])c([H])c([H])c2C([H])([H])[H])nc(-c2c([H])nc([H])c([H])c2[H])c1[H]


 43 47  0  0  0  0  0  0  0  0999 V2000
  -87.1845   33.8336   -2.5920 C   0  0  0  0  0  0  0  0  0  0  0  0
  -86.9036   32.9286   -3.4027 O   0  0  0  0  0  0  0  0  0  0  0  0
  -86.6479   33.8664   -1.3062 N   0  0  0  0  0  0  0  0  0  0  0  0
  -86.9528   34.6922   -0.6727 H   0  0  0  0  0  0  0  0  0  0  0  0
  -85.7492   32.9824   -0.6844 C   0  0  0  0  0  0  0  0  0  0  0  0
  -84.3969   33.3453   -0.6321 C   0  0  0  0  0  0  0  0  0  0  0  0
  -83.4799   32.5072   -0.0495 C   0  0  0  0  0  0  0  0  0  0  0  0
  -83.8723   31.3017    0.4907 C   0  0  0  0  0  0  0  0  0  0  0  0
  -82.8818   30.4038    1.1184 C   0  0  0  0  0  0  0  0  0  0  0  0
  -85.2029   30.8892    0.4669 C   0  0  0  0  0  0  0  0  0  0  0  0
  -86.0966   31.7462   -0.1215 C   0  0  0  0  0  0  0  0  0  0  0  0
  -85.5347   29.6565    1.0254 N   0  0  0  0  0  0  0  0  0  0  0  0
  -84.9579   29.3464    1.8938 H   0  0  0  0  0  0  0  0  0  0  0  0
  -86.5086   28.7153    0.6539 C   0  0  0  0  0  0  0  0  0  0  0  0
  -86.7087   28.2232   -0.5747 N   0  0  0  0  0  0  0  0  0  0  0  0
  -87.6581   27.3249   -0.8616 C   0  0  0  0  0  0  0  0  0  0  0  0
  -88.5066   26.8501    0.1487 C   0  0  0  0  0  0  0  0  0  0  0  0
  -88.3131   27.3461    1.4148 C   0  0  0  0  0  0  0  0  0  0  0  0
  -87.3373   28.2425    1.6057 N   0  0  0  0  0  0  0  0  0  0  0  0
  -89.1529   26.9107    2.5557 C   0  0  0  0  0  0  0  0  0  0  0  0
  -89.3444   27.7206    3.6354 C   0  0  0  0  0  0  0  0  0  0  0  0
  -90.1465   27.2687    4.6898 C   0  0  0  0  0  0  0  0  0  0  0  0
  -90.7380   26.0289    4.6496 C   0  0  0  0  0  0  0  0  0  0  0  0
  -90.5228   25.2639    3.5674 N   0  0  0  0  0  0  0  0  0  0  0  0
  -89.7582   25.6700    2.5398 C   0  0  0  0  0  0  0  0  0  0  0  0
  -89.8579   36.8644   -4.0314 C   0  0  0  0  0  0  0  0  0  0  0  0
  -90.2514   35.5526   -3.9421 C   0  0  0  0  0  0  0  0  0  0  0  0
  -89.3930   34.5611   -3.4741 C   0  0  0  0  0  0  0  0  0  0  0  0
  -88.1137   34.8546   -3.0829 C   0  0  0  0  0  0  0  0  0  0  0  0
  -87.7374   36.1767   -3.1811 C   0  0  0  0  0  0  0  0  0  0  0  0
  -88.5601   37.1777   -3.6376 C   0  0  0  0  0  0  0  0  0  0  0  0
  -88.1177   38.5908   -3.7256 C   0  0  0  0  0  0  0  0  0  0  0  0
  -88.8102   39.4302   -2.8864 F   0  0  0  0  0  0  0  0  0  0  0  0
  -86.7805   38.6252   -3.3465 F   0  0  0  0  0  0  0  0  0  0  0  0
  -88.1469   39.0521   -5.0363 F   0  0  0  0  0  0  0  0  0  0  0  0
  -90.7628   37.8702   -4.5822 C   0  0  0  0  0  0  0  0  0  0  0  0
  -91.6476   38.4111   -9.5048 C   0  0  0  0  0  0  0  0  0  0  0  0
  -91.9465   39.0511   -8.2384 N   0  0  0  0  0  0  0  0  0  0  0  0
  -90.6997   39.0610   -7.4654 C   0  0  0  0  0  0  0  0  0  0  0  0
  -90.4587   37.6796   -6.9358 C   0  0  0  0  0  0  0  0  0  0  0  0
  -91.3793   37.3369   -5.8237 N   0  0  0  0  0  0  0  0  0  0  0  0
  -92.6006   38.1418   -6.0690 C   0  0  0  0  0  0  0  0  0  0  0  0
  -92.9168   38.1957   -7.5507 C   0  0  0  0  0  0  0  0  0  0  0  0
 37 38  1  0  0  0
 38 39  1  0  0  0
 39 40  1  0  0  0
 40 41  1  0  0  0
 41 36  1  0  0  0
 36 26  1  0  0  0
 26 27  2  0  0  0
 27 28  1  0  0  0
 28 29  2  0  0  0
 29 30  1  0  0  0
 30 31  2  0  0  0
 31 32  1  0  0  0
 32 33  1  0  0  0
 32 34  1  0  0  0
 32 35  1  0  0  0
 29  1  1  0  0  0
  1  2  2  0  0  0
  1  3  1  0  0  0
  3  5  1  0  0  0
  5  6  2  0  0  0
  6  7  1  0  0  0
  7  8  2  0  0  0
  8  9  1  0  0  0
  8 10  1  0  0  0
 10 12  1  0  0  0
 12 14  1  0  0  0
 14 15  2  0  0  0
 15 16  1  0  0  0
 16 17  2  0  0  0
 17 18  1  0  0  0
 18 19  2  0  0  0
 18 20  1  0  0  0
 20 21  2  0  0  0
 21 22  1  0  0  0
 22 23  2  0  0  0
 23 24  1  0  0  0
 24 25  2  0  0  0
 10 11  2  0  0  0
 41 42  1  0  0  0
 42 43  1  0  0  0
 43 38  1  0  0  0
 31 26  1  0  0  0
 11  5  1  0  0  0
 19 14  1  0  0  0
 25 20  1  0  0  0
  3  4  1  0  0  0
 12 13  1  0  0  0
M  END
> <minimizedAffinity>
-9.46659

> <CNNscore>
0.1946675628

> <CNNaffinity>
6.6820092201

> <CNN_VS>
1.3007704020

> <CNNaffinity_variance>
0.0989759266

$$$$
[H]c1nc(N([H])c2c([H])c(N([H])C(=O)c3c([H])c([H])c(C([H])([H])N4C([H])([H])C([H])([H])N(C([H])([H])[H])C([H])([H])C4([H])[H])c(C(F)(F)F)c3[H])c([H])c([H])c2C([H])([H])[H])nc(-c2c([H])nc([H])c([H])c2[H])c1[H]


 43 47  0  0  0  0  0  0  0  0999 V2000
  -87.0748   33.4937   -2.4013 C   0  0  0  0  0  0  0  0  0  0  0  0
  -87.2716   32.3316   -2.8085 O   0  0  0  0  0  0  0  0  0  0  0  0
  -86.1697   33.7752   -1.3795 N   0  0  0  0  0  0  0  0  0  0  0  0
  -86.0683   34.8162   -1.0926 H   0  0  0  0  0  0  0  0  0  0  0  0
  -85.3435   32.9064   -0.6459 C   0  0  0  0  0  0  0  0  0  0  0  0
  -83.9557   33.0469   -0.7790 C   0  0  0  0  0  0  0  0  0  0  0  0
  -83.1092   32.2112   -0.0952 C   0  0  0  0  0  0  0  0  0  0  0  0
  -83.6077   31.2257    0.7290 C   0  0  0  0  0  0  0  0  0  0  0  0
  -82.6924   30.3298    1.4644 C   0  0  0  0  0  0  0  0  0  0  0  0
  -84.9779   31.0398    0.8992 C   0  0  0  0  0  0  0  0  0  0  0  0
  -85.7996   31.8887    0.2037 C   0  0  0  0  0  0  0  0  0  0  0  0
  -85.4187   30.0219    1.7426 N   0  0  0  0  0  0  0  0  0  0  0  0
  -85.2283   30.1559    2.8051 H   0  0  0  0  0  0  0  0  0  0  0  0
  -86.0826   28.8181    1.4557 C   0  0  0  0  0  0  0  0  0  0  0  0
  -85.8145   27.6183    1.9850 N   0  0  0  0  0  0  0  0  0  0  0  0
  -86.4883   26.5068    1.6672 C   0  0  0  0  0  0  0  0  0  0  0  0
  -87.5357   26.5604    0.7365 C   0  0  0  0  0  0  0  0  0  0  0  0
  -87.8226   27.7851    0.1848 C   0  0  0  0  0  0  0  0  0  0  0  0
  -87.0933   28.8416    0.5646 N   0  0  0  0  0  0  0  0  0  0  0  0
  -88.9103   27.9537   -0.8076 C   0  0  0  0  0  0  0  0  0  0  0  0
  -90.2009   27.6472   -0.4931 C   0  0  0  0  0  0  0  0  0  0  0  0
  -91.1962   27.8232   -1.4614 C   0  0  0  0  0  0  0  0  0  0  0  0
  -90.8903   28.2973   -2.7145 C   0  0  0  0  0  0  0  0  0  0  0  0
  -89.6067   28.5866   -2.9817 N   0  0  0  0  0  0  0  0  0  0  0  0
  -88.6294   28.4282   -2.0733 C   0  0  0  0  0  0  0  0  0  0  0  0
  -89.3143   36.5719   -4.3799 C   0  0  0  0  0  0  0  0  0  0  0  0
  -89.9436   35.5322   -3.7423 C   0  0  0  0  0  0  0  0  0  0  0  0
  -89.2270   34.5290   -3.0949 C   0  0  0  0  0  0  0  0  0  0  0  0
  -87.8577   34.5373   -3.0683 C   0  0  0  0  0  0  0  0  0  0  0  0
  -87.2446   35.5886   -3.7149 C   0  0  0  0  0  0  0  0  0  0  0  0
  -87.9225   36.5933   -4.3616 C   0  0  0  0  0  0  0  0  0  0  0  0
  -87.2250   37.7103   -5.0441 C   0  0  0  0  0  0  0  0  0  0  0  0
  -87.5392   38.9441   -4.5268 F   0  0  0  0  0  0  0  0  0  0  0  0
  -85.8608   37.5125   -4.8627 F   0  0  0  0  0  0  0  0  0  0  0  0
  -87.4289   37.6732   -6.4184 F   0  0  0  0  0  0  0  0  0  0  0  0
  -90.0935   37.5759   -5.1001 C   0  0  0  0  0  0  0  0  0  0  0  0
  -92.4145   37.3251   -9.5562 C   0  0  0  0  0  0  0  0  0  0  0  0
  -92.2990   38.1973   -8.4036 N   0  0  0  0  0  0  0  0  0  0  0  0
  -90.8767   38.2392   -8.0465 C   0  0  0  0  0  0  0  0  0  0  0  0
  -90.5221   36.9556   -7.3584 C   0  0  0  0  0  0  0  0  0  0  0  0
  -91.0708   36.8875   -5.9815 N   0  0  0  0  0  0  0  0  0  0  0  0
  -92.2878   37.7346   -6.0064 C   0  0  0  0  0  0  0  0  0  0  0  0
  -93.0368   37.5563   -7.3123 C   0  0  0  0  0  0  0  0  0  0  0  0
 37 38  1  0  0  0
 38 39  1  0  0  0
 39 40  1  0  0  0
 40 41  1  0  0  0
 41 36  1  0  0  0
 36 26  1  0  0  0
 26 27  2  0  0  0
 27 28  1  0  0  0
 28 29  2  0  0  0
 29 30  1  0  0  0
 30 31  2  0  0  0
 31 32  1  0  0  0
 32 33  1  0  0  0
 32 34  1  0  0  0
 32 35  1  0  0  0
 29  1  1  0  0  0
  1  2  2  0  0  0
  1  3  1  0  0  0
  3  5  1  0  0  0
  5  6  2  0  0  0
  6  7  1  0  0  0
  7  8  2  0  0  0
  8  9  1  0  0  0
  8 10  1  0  0  0
 10 12  1  0  0  0
 12 14  1  0  0  0
 14 15  2  0  0  0
 15 16  1  0  0  0
 16 17  2  0  0  0
 17 18  1  0  0  0
 18 19  2  0  0  0
 18 20  1  0  0  0
 20 21  2  0  0  0
 21 22  1  0  0  0
 22 23  2  0  0  0
 23 24  1  0  0  0
 24 25  2  0  0  0
 10 11  2  0  0  0
 41 42  1  0  0  0
 42 43  1  0  0  0
 43 38  1  0  0  0
 31 26  1  0  0  0
 11  5  1  0  0  0
 19 14  1  0  0  0
 25 20  1  0  0  0
  3  4  1  0  0  0
 12 13  1  0  0  0
M  END
> <minimizedAffinity>
-9.12337

> <CNNscore>
0.1778799891

> <CNNaffinity>
6.8873052597

> <CNN_VS>
1.2251137495

> <CNNaffinity_variance>
0.1764572710

$$$$
[H]c1nc(N([H])c2c([H])c(N([H])C(=O)c3c([H])c([H])c(C([H])([H])N4C([H])([H])C([H])([H])N(C([H])([H])[H])C([H])([H])C4([H])[H])c(C(F)(F)F)c3[H])c([H])c([H])c2C([H])([H])[H])nc(-c2c([H])nc([H])c([H])c2[H])c1[H]


 43 47  0  0  0  0  0  0  0  0999 V2000
  -87.1442   33.8317   -2.5710 C   0  0  0  0  0  0  0  0  0  0  0  0
  -86.8674   32.8957   -3.3471 O   0  0  0  0  0  0  0  0  0  0  0  0
  -86.5609   33.9431   -1.3102 N   0  0  0  0  0  0  0  0  0  0  0  0
  -86.8661   34.7906   -0.7062 H   0  0  0  0  0  0  0  0  0  0  0  0
  -85.6139   33.1162   -0.6816 C   0  0  0  0  0  0  0  0  0  0  0  0
  -84.2602   33.3169   -0.9823 C   0  0  0  0  0  0  0  0  0  0  0  0
  -83.3006   32.5237   -0.4057 C   0  0  0  0  0  0  0  0  0  0  0  0
  -83.6511   31.5224    0.4739 C   0  0  0  0  0  0  0  0  0  0  0  0
  -82.6143   30.6723    1.0935 C   0  0  0  0  0  0  0  0  0  0  0  0
  -84.9809   31.2773    0.8093 C   0  0  0  0  0  0  0  0  0  0  0  0
  -85.9179   32.0848    0.2181 C   0  0  0  0  0  0  0  0  0  0  0  0
  -85.2704   30.2463    1.7010 N   0  0  0  0  0  0  0  0  0  0  0  0
  -85.0276   30.4263    2.7458 H   0  0  0  0  0  0  0  0  0  0  0  0
  -85.8345   28.9787    1.4832 C   0  0  0  0  0  0  0  0  0  0  0  0
  -85.4611   27.8333    2.0664 N   0  0  0  0  0  0  0  0  0  0  0  0
  -86.0431   26.6552    1.8134 C   0  0  0  0  0  0  0  0  0  0  0  0
  -87.1015   26.5752    0.8971 C   0  0  0  0  0  0  0  0  0  0  0  0
  -87.4958   27.7428    0.2907 C   0  0  0  0  0  0  0  0  0  0  0  0
  -86.8533   28.8738    0.6074 N   0  0  0  0  0  0  0  0  0  0  0  0
  -88.6047   27.7709   -0.6921 C   0  0  0  0  0  0  0  0  0  0  0  0
  -89.8941   27.5631   -0.3014 C   0  0  0  0  0  0  0  0  0  0  0  0
  -90.9098   27.5997   -1.2638 C   0  0  0  0  0  0  0  0  0  0  0  0
  -90.6249   27.8407   -2.5865 C   0  0  0  0  0  0  0  0  0  0  0  0
  -89.3416   28.0400   -2.9275 N   0  0  0  0  0  0  0  0  0  0  0  0
  -88.3451   28.0109   -2.0267 C   0  0  0  0  0  0  0  0  0  0  0  0
  -89.9587   36.7136   -4.0469 C   0  0  0  0  0  0  0  0  0  0  0  0
  -90.2853   35.3839   -3.9524 C   0  0  0  0  0  0  0  0  0  0  0  0
  -89.3807   34.4402   -3.4725 C   0  0  0  0  0  0  0  0  0  0  0  0
  -88.1209   34.8010   -3.0744 C   0  0  0  0  0  0  0  0  0  0  0  0
  -87.8119   36.1401   -3.1781 C   0  0  0  0  0  0  0  0  0  0  0  0
  -88.6814   37.0951   -3.6462 C   0  0  0  0  0  0  0  0  0  0  0  0
  -88.3111   38.5284   -3.7398 C   0  0  0  0  0  0  0  0  0  0  0  0
  -87.0899   38.8119   -3.1769 F   0  0  0  0  0  0  0  0  0  0  0  0
  -88.2353   38.8439   -5.0917 F   0  0  0  0  0  0  0  0  0  0  0  0
  -89.3076   39.3460   -3.2200 F   0  0  0  0  0  0  0  0  0  0  0  0
  -90.9099   37.6687   -4.6100 C   0  0  0  0  0  0  0  0  0  0  0  0
  -95.8830   38.4123   -4.7594 C   0  0  0  0  0  0  0  0  0  0  0  0
  -94.6456   39.1545   -4.6153 N   0  0  0  0  0  0  0  0  0  0  0  0
  -93.7108   38.6140   -5.6082 C   0  0  0  0  0  0  0  0  0  0  0  0
  -93.2059   37.2918   -5.1143 C   0  0  0  0  0  0  0  0  0  0  0  0
  -92.2429   37.4417   -3.9956 N   0  0  0  0  0  0  0  0  0  0  0  0
  -92.6210   38.7095   -3.3253 C   0  0  0  0  0  0  0  0  0  0  0  0
  -94.1288   38.8595   -3.2766 C   0  0  0  0  0  0  0  0  0  0  0  0
 37 38  1  0  0  0
 38 39  1  0  0  0
 39 40  1  0  0  0
 40 41  1  0  0  0
 41 36  1  0  0  0
 36 26  1  0  0  0
 26 27  2  0  0  0
 27 28  1  0  0  0
 28 29  2  0  0  0
 29 30  1  0  0  0
 30 31  2  0  0  0
 31 32  1  0  0  0
 32 33  1  0  0  0
 32 34  1  0  0  0
 32 35  1  0  0  0
 29  1  1  0  0  0
  1  2  2  0  0  0
  1  3  1  0  0  0
  3  5  1  0  0  0
  5  6  2  0  0  0
  6  7  1  0  0  0
  7  8  2  0  0  0
  8  9  1  0  0  0
  8 10  1  0  0  0
 10 12  1  0  0  0
 12 14  1  0  0  0
 14 15  2  0  0  0
 15 16  1  0  0  0
 16 17  2  0  0  0
 17 18  1  0  0  0
 18 19  2  0  0  0
 18 20  1  0  0  0
 20 21  2  0  0  0
 21 22  1  0  0  0
 22 23  2  0  0  0
 23 24  1  0  0  0
 24 25  2  0  0  0
 10 11  2  0  0  0
 41 42  1  0  0  0
 42 43  1  0  0  0
 43 38  1  0  0  0
 31 26  1  0  0  0
 11  5  1  0  0  0
 19 14  1  0  0  0
 25 20  1  0  0  0
  3  4  1  0  0  0
 12 13  1  0  0  0
M  END
> <minimizedAffinity>
-9.37899

> <CNNscore>
0.1711207032

> <CNNaffinity>
6.6109266281

> <CNN_VS>
1.1312663555

> <CNNaffinity_variance>
0.3421755433

$$$$
[H]c1nc(N([H])c2c([H])c(N([H])C(=O)c3c([H])c([H])c(C([H])([H])N4C([H])([H])C([H])([H])N(C([H])([H])[H])C([H])([H])C4([H])[H])c(C(F)(F)F)c3[H])c([H])c([H])c2C([H])([H])[H])nc(-c2c([H])nc([H])c([H])c2[H])c1[H]


 43 47  0  0  0  0  0  0  0  0999 V2000
  -88.7961   28.5480   -2.4184 C   0  0  0  0  0  0  0  0  0  0  0  0
  -88.0357   28.5604   -3.4066 O   0  0  0  0  0  0  0  0  0  0  0  0
  -89.1541   29.7157   -1.7469 N   0  0  0  0  0  0  0  0  0  0  0  0
  -89.8190   29.6040   -0.8975 H   0  0  0  0  0  0  0  0  0  0  0  0
  -88.7868   31.0482   -2.0025 C   0  0  0  0  0  0  0  0  0  0  0  0
  -89.6457   31.8303   -2.7858 C   0  0  0  0  0  0  0  0  0  0  0  0
  -89.3216   33.1317   -3.0755 C   0  0  0  0  0  0  0  0  0  0  0  0
  -88.1523   33.6873   -2.6030 C   0  0  0  0  0  0  0  0  0  0  0  0
  -87.8086   35.0892   -2.9159 C   0  0  0  0  0  0  0  0  0  0  0  0
  -87.2607   32.9569   -1.8202 C   0  0  0  0  0  0  0  0  0  0  0  0
  -87.6103   31.6597   -1.5470 C   0  0  0  0  0  0  0  0  0  0  0  0
  -86.0927   33.5745   -1.3776 N   0  0  0  0  0  0  0  0  0  0  0  0
  -86.0281   34.6506   -1.5225 H   0  0  0  0  0  0  0  0  0  0  0  0
  -84.9502   33.0383   -0.7615 C   0  0  0  0  0  0  0  0  0  0  0  0
  -83.7379   33.6031   -0.7093 N   0  0  0  0  0  0  0  0  0  0  0  0
  -82.6879   33.0364   -0.1036 C   0  0  0  0  0  0  0  0  0  0  0  0
  -82.8240   31.7878    0.5198 C   0  0  0  0  0  0  0  0  0  0  0  0
  -84.0626   31.1959    0.4743 C   0  0  0  0  0  0  0  0  0  0  0  0
  -85.0536   31.8393   -0.1550 N   0  0  0  0  0  0  0  0  0  0  0  0
  -84.3163   29.8776    1.1022 C   0  0  0  0  0  0  0  0  0  0  0  0
  -83.4034   29.3135    1.9430 C   0  0  0  0  0  0  0  0  0  0  0  0
  -83.6855   28.0672    2.5145 C   0  0  0  0  0  0  0  0  0  0  0  0
  -84.8616   27.4113    2.2402 C   0  0  0  0  0  0  0  0  0  0  0  0
  -85.7323   28.0029    1.4067 N   0  0  0  0  0  0  0  0  0  0  0  0
  -85.4899   29.1983    0.8430 C   0  0  0  0  0  0  0  0  0  0  0  0
  -90.2690   24.6829   -1.2798 C   0  0  0  0  0  0  0  0  0  0  0  0
  -89.0975   25.1781   -0.7641 C   0  0  0  0  0  0  0  0  0  0  0  0
  -88.6112   26.4322   -1.1246 C   0  0  0  0  0  0  0  0  0  0  0  0
  -89.2842   27.2270   -2.0141 C   0  0  0  0  0  0  0  0  0  0  0  0
  -90.4574   26.7116   -2.5213 C   0  0  0  0  0  0  0  0  0  0  0  0
  -90.9638   25.4796   -2.1854 C   0  0  0  0  0  0  0  0  0  0  0  0
  -92.2330   24.9615   -2.7520 C   0  0  0  0  0  0  0  0  0  0  0  0
  -93.2427   24.8655   -1.8247 F   0  0  0  0  0  0  0  0  0  0  0  0
  -92.6425   25.8619   -3.7290 F   0  0  0  0  0  0  0  0  0  0  0  0
  -92.0395   23.7544   -3.4131 F   0  0  0  0  0  0  0  0  0  0  0  0
  -90.7210   23.3394   -0.9265 C   0  0  0  0  0  0  0  0  0  0  0  0
  -90.2320   19.9256    2.7358 C   0  0  0  0  0  0  0  0  0  0  0  0
  -91.2156   20.8334    2.1780 N   0  0  0  0  0  0  0  0  0  0  0  0
  -91.1170   20.7183    0.7189 C   0  0  0  0  0  0  0  0  0  0  0  0
  -89.8915   21.4535    0.2665 C   0  0  0  0  0  0  0  0  0  0  0  0
  -90.0623   22.9256    0.3387 N   0  0  0  0  0  0  0  0  0  0  0  0
  -91.0498   23.1491    1.4224 C   0  0  0  0  0  0  0  0  0  0  0  0
  -90.8122   22.1863    2.5691 C   0  0  0  0  0  0  0  0  0  0  0  0
 37 38  1  0  0  0
 38 39  1  0  0  0
 39 40  1  0  0  0
 40 41  1  0  0  0
 41 36  1  0  0  0
 36 26  1  0  0  0
 26 27  2  0  0  0
 27 28  1  0  0  0
 28 29  2  0  0  0
 29 30  1  0  0  0
 30 31  2  0  0  0
 31 32  1  0  0  0
 32 33  1  0  0  0
 32 34  1  0  0  0
 32 35  1  0  0  0
 29  1  1  0  0  0
  1  2  2  0  0  0
  1  3  1  0  0  0
  3  5  1  0  0  0
  5  6  2  0  0  0
  6  7  1  0  0  0
  7  8  2  0  0  0
  8  9  1  0  0  0
  8 10  1  0  0  0
 10 12  1  0  0  0
 12 14  1  0  0  0
 14 15  2  0  0  0
 15 16  1  0  0  0
 16 17  2  0  0  0
 17 18  1  0  0  0
 18 19  2  0  0  0
 18 20  1  0  0  0
 20 21  2  0  0  0
 21 22  1  0  0  0
 22 23  2  0  0  0
 23 24  1  0  0  0
 24 25  2  0  0  0
 10 11  2  0  0  0
 41 42  1  0  0  0
 42 43  1  0  0  0
 43 38  1  0  0  0
 31 26  1  0  0  0
 11  5  1  0  0  0
 19 14  1  0  0  0
 25 20  1  0  0  0
  3  4  1  0  0  0
 12 13  1  0  0  0
M  END
> <minimizedAffinity>
-10.40893

> <CNNscore>
0.1688695848

> <CNNaffinity>
7.1294655800

> <CNN_VS>
1.2039499283

> <CNNaffinity_variance>
0.1472959965

$$$$
[H]c1nc(N([H])c2c([H])c(N([H])C(=O)c3c([H])c([H])c(C([H])([H])N4C([H])([H])C([H])([H])N(C([H])([H])[H])C([H])([H])C4([H])[H])c(C(F)(F)F)c3[H])c([H])c([H])c2C([H])([H])[H])nc(-c2c([H])nc([H])c([H])c2[H])c1[H]


 43 47  0  0  0  0  0  0  0  0999 V2000
  -87.1884   33.4912   -2.5911 C   0  0  0  0  0  0  0  0  0  0  0  0
  -87.4446   32.3227   -2.9432 O   0  0  0  0  0  0  0  0  0  0  0  0
  -86.2476   33.7757   -1.6030 N   0  0  0  0  0  0  0  0  0  0  0  0
  -86.0947   34.8224   -1.3636 H   0  0  0  0  0  0  0  0  0  0  0  0
  -85.4415   32.9032   -0.8514 C   0  0  0  0  0  0  0  0  0  0  0  0
  -84.0801   33.2087   -0.7236 C   0  0  0  0  0  0  0  0  0  0  0  0
  -83.2507   32.3782   -0.0129 C   0  0  0  0  0  0  0  0  0  0  0  0
  -83.7409   31.2366    0.5832 C   0  0  0  0  0  0  0  0  0  0  0  0
  -82.8445   30.3467    1.3487 C   0  0  0  0  0  0  0  0  0  0  0  0
  -85.0852   30.8829    0.4890 C   0  0  0  0  0  0  0  0  0  0  0  0
  -85.8901   31.7308   -0.2270 C   0  0  0  0  0  0  0  0  0  0  0  0
  -85.5178   29.7129    1.1100 N   0  0  0  0  0  0  0  0  0  0  0  0
  -85.0306   29.4524    2.0469 H   0  0  0  0  0  0  0  0  0  0  0  0
  -86.4981   28.7824    0.7286 C   0  0  0  0  0  0  0  0  0  0  0  0
  -86.7196   28.3256   -0.5099 N   0  0  0  0  0  0  0  0  0  0  0  0
  -87.6739   27.4356   -0.8060 C   0  0  0  0  0  0  0  0  0  0  0  0
  -88.5048   26.9318    0.2049 C   0  0  0  0  0  0  0  0  0  0  0  0
  -88.2894   27.3914    1.4811 C   0  0  0  0  0  0  0  0  0  0  0  0
  -87.3103   28.2823    1.6807 N   0  0  0  0  0  0  0  0  0  0  0  0
  -89.1094   26.9232    2.6234 C   0  0  0  0  0  0  0  0  0  0  0  0
  -88.8362   25.7415    3.2457 C   0  0  0  0  0  0  0  0  0  0  0  0
  -89.6364   25.3393    4.3213 C   0  0  0  0  0  0  0  0  0  0  0  0
  -90.6852   26.1150    4.7538 C   0  0  0  0  0  0  0  0  0  0  0  0
  -90.9189   27.2712    4.1123 N   0  0  0  0  0  0  0  0  0  0  0  0
  -90.1684   27.6840    3.0770 C   0  0  0  0  0  0  0  0  0  0  0  0
  -89.4253   36.5148   -4.6550 C   0  0  0  0  0  0  0  0  0  0  0  0
  -88.6417   36.8245   -3.5716 C   0  0  0  0  0  0  0  0  0  0  0  0
  -87.9095   35.8518   -2.8957 C   0  0  0  0  0  0  0  0  0  0  0  0
  -87.9420   34.5390   -3.2847 C   0  0  0  0  0  0  0  0  0  0  0  0
  -88.7353   34.2482   -4.3735 C   0  0  0  0  0  0  0  0  0  0  0  0
  -89.4685   35.1842   -5.0616 C   0  0  0  0  0  0  0  0  0  0  0  0
  -90.3088   34.8309   -6.2317 C   0  0  0  0  0  0  0  0  0  0  0  0
  -91.6120   35.2504   -6.1113 F   0  0  0  0  0  0  0  0  0  0  0  0
  -89.7607   35.4711   -7.3374 F   0  0  0  0  0  0  0  0  0  0  0  0
  -90.2411   33.4719   -6.5147 F   0  0  0  0  0  0  0  0  0  0  0  0
  -90.2271   37.5483   -5.3051 C   0  0  0  0  0  0  0  0  0  0  0  0
  -94.5398   39.1013   -3.2324 C   0  0  0  0  0  0  0  0  0  0  0  0
  -93.8008   39.1932   -4.4767 N   0  0  0  0  0  0  0  0  0  0  0  0
  -93.2846   37.8499   -4.7616 C   0  0  0  0  0  0  0  0  0  0  0  0
  -92.1174   37.5886   -3.8582 C   0  0  0  0  0  0  0  0  0  0  0  0
  -90.9127   38.3544   -4.2629 N   0  0  0  0  0  0  0  0  0  0  0  0
  -91.4331   39.5668   -4.9403 C   0  0  0  0  0  0  0  0  0  0  0  0
  -92.6671   40.0877   -4.2304 C   0  0  0  0  0  0  0  0  0  0  0  0
 37 38  1  0  0  0
 38 39  1  0  0  0
 39 40  1  0  0  0
 40 41  1  0  0  0
 41 36  1  0  0  0
 36 26  1  0  0  0
 26 27  2  0  0  0
 27 28  1  0  0  0
 28 29  2  0  0  0
 29 30  1  0  0  0
 30 31  2  0  0  0
 31 32  1  0  0  0
 32 33  1  0  0  0
 32 34  1  0  0  0
 32 35  1  0  0  0
 29  1  1  0  0  0
  1  2  2  0  0  0
  1  3  1  0  0  0
  3  5  1  0  0  0
  5  6  2  0  0  0
  6  7  1  0  0  0
  7  8  2  0  0  0
  8  9  1  0  0  0
  8 10  1  0  0  0
 10 12  1  0  0  0
 12 14  1  0  0  0
 14 15  2  0  0  0
 15 16  1  0  0  0
 16 17  2  0  0  0
 17 18  1  0  0  0
 18 19  2  0  0  0
 18 20  1  0  0  0
 20 21  2  0  0  0
 21 22  1  0  0  0
 22 23  2  0  0  0
 23 24  1  0  0  0
 24 25  2  0  0  0
 10 11  2  0  0  0
 41 42  1  0  0  0
 42 43  1  0  0  0
 43 38  1  0  0  0
 31 26  1  0  0  0
 11  5  1  0  0  0
 19 14  1  0  0  0
 25 20  1  0  0  0
  3  4  1  0  0  0
 12 13  1  0  0  0
M  END
> <minimizedAffinity>
-9.40298

> <CNNscore>
0.1649587005

> <CNNaffinity>
6.6830978394

> <CNN_VS>
1.1024351120

> <CNNaffinity_variance>
0.1427205950

$$$$
[H]c1nc(N([H])c2c([H])c(N([H])C(=O)c3c([H])c([H])c(C([H])([H])N4C([H])([H])C([H])([H])N(C([H])([H])[H])C([H])([H])C4([H])[H])c(C(F)(F)F)c3[H])c([H])c([H])c2C([H])([H])[H])nc(-c2c([H])nc([H])c([H])c2[H])c1[H]


 43 47  0  0  0  0  0  0  0  0999 V2000
  -89.8745   27.3884    0.0032 C   0  0  0  0  0  0  0  0  0  0  0  0
  -90.2058   27.3482    1.2048 O   0  0  0  0  0  0  0  0  0  0  0  0
  -88.5494   27.5615   -0.3924 N   0  0  0  0  0  0  0  0  0  0  0  0
  -88.3595   27.5854   -1.4599 H   0  0  0  0  0  0  0  0  0  0  0  0
  -87.3901   27.7093    0.3886 C   0  0  0  0  0  0  0  0  0  0  0  0
  -86.8826   26.5753    1.0366 C   0  0  0  0  0  0  0  0  0  0  0  0
  -85.7624   26.6738    1.8228 C   0  0  0  0  0  0  0  0  0  0  0  0
  -85.1220   27.8829    1.9866 C   0  0  0  0  0  0  0  0  0  0  0  0
  -83.9155   27.9835    2.8325 C   0  0  0  0  0  0  0  0  0  0  0  0
  -85.5819   29.0429    1.3670 C   0  0  0  0  0  0  0  0  0  0  0  0
  -86.7028   28.9149    0.5879 C   0  0  0  0  0  0  0  0  0  0  0  0
  -84.8929   30.2358    1.5767 N   0  0  0  0  0  0  0  0  0  0  0  0
  -84.4633   30.3803    2.5655 H   0  0  0  0  0  0  0  0  0  0  0  0
  -84.6493   31.3165    0.7137 C   0  0  0  0  0  0  0  0  0  0  0  0
  -83.4680   31.9065    0.4947 N   0  0  0  0  0  0  0  0  0  0  0  0
  -83.3043   32.9360   -0.3443 C   0  0  0  0  0  0  0  0  0  0  0  0
  -84.4016   33.4517   -1.0486 C   0  0  0  0  0  0  0  0  0  0  0  0
  -85.6206   32.8562   -0.8341 C   0  0  0  0  0  0  0  0  0  0  0  0
  -85.6867   31.8313    0.0245 N   0  0  0  0  0  0  0  0  0  0  0  0
  -86.8446   33.3217   -1.5281 C   0  0  0  0  0  0  0  0  0  0  0  0
  -86.7783   34.2617   -2.5132 C   0  0  0  0  0  0  0  0  0  0  0  0
  -87.9598   34.6709   -3.1423 C   0  0  0  0  0  0  0  0  0  0  0  0
  -89.1754   34.1408   -2.7817 C   0  0  0  0  0  0  0  0  0  0  0  0
  -89.1948   33.2177   -1.8067 N   0  0  0  0  0  0  0  0  0  0  0  0
  -88.0778   32.8049   -1.1845 C   0  0  0  0  0  0  0  0  0  0  0  0
  -93.0589   27.0084   -2.8465 C   0  0  0  0  0  0  0  0  0  0  0  0
  -92.8523   26.0569   -1.8792 C   0  0  0  0  0  0  0  0  0  0  0  0
  -91.8236   26.1711   -0.9477 C   0  0  0  0  0  0  0  0  0  0  0  0
  -90.9700   27.2421   -0.9588 C   0  0  0  0  0  0  0  0  0  0  0  0
  -91.1930   28.1858   -1.9381 C   0  0  0  0  0  0  0  0  0  0  0  0
  -92.1986   28.1026   -2.8703 C   0  0  0  0  0  0  0  0  0  0  0  0
  -92.4075   29.1420   -3.9077 C   0  0  0  0  0  0  0  0  0  0  0  0
  -91.4498   30.1274   -3.8901 F   0  0  0  0  0  0  0  0  0  0  0  0
  -92.3364   28.5074   -5.1427 F   0  0  0  0  0  0  0  0  0  0  0  0
  -93.6866   29.6810   -3.8371 F   0  0  0  0  0  0  0  0  0  0  0  0
  -94.1098   26.8293   -3.8451 C   0  0  0  0  0  0  0  0  0  0  0  0
  -95.2716   23.6937   -7.6034 C   0  0  0  0  0  0  0  0  0  0  0  0
  -95.8993   24.4054   -6.5069 N   0  0  0  0  0  0  0  0  0  0  0  0
  -95.3381   25.7607   -6.5067 C   0  0  0  0  0  0  0  0  0  0  0  0
  -93.9534   25.7010   -5.9358 C   0  0  0  0  0  0  0  0  0  0  0  0
  -93.9612   25.4889   -4.4672 N   0  0  0  0  0  0  0  0  0  0  0  0
  -95.2174   24.7516   -4.1883 C   0  0  0  0  0  0  0  0  0  0  0  0
  -95.4894   23.7289   -5.2739 C   0  0  0  0  0  0  0  0  0  0  0  0
 37 38  1  0  0  0
 38 39  1  0  0  0
 39 40  1  0  0  0
 40 41  1  0  0  0
 41 36  1  0  0  0
 36 26  1  0  0  0
 26 27  2  0  0  0
 27 28  1  0  0  0
 28 29  2  0  0  0
 29 30  1  0  0  0
 30 31  2  0  0  0
 31 32  1  0  0  0
 32 33  1  0  0  0
 32 34  1  0  0  0
 32 35  1  0  0  0
 29  1  1  0  0  0
  1  2  2  0  0  0
  1  3  1  0  0  0
  3  5  1  0  0  0
  5  6  2  0  0  0
  6  7  1  0  0  0
  7  8  2  0  0  0
  8  9  1  0  0  0
  8 10  1  0  0  0
 10 12  1  0  0  0
 12 14  1  0  0  0
 14 15  2  0  0  0
 15 16  1  0  0  0
 16 17  2  0  0  0
 17 18  1  0  0  0
 18 19  2  0  0  0
 18 20  1  0  0  0
 20 21  2  0  0  0
 21 22  1  0  0  0
 22 23  2  0  0  0
 23 24  1  0  0  0
 24 25  2  0  0  0
 10 11  2  0  0  0
 41 42  1  0  0  0
 42 43  1  0  0  0
 43 38  1  0  0  0
 31 26  1  0  0  0
 11  5  1  0  0  0
 19 14  1  0  0  0
 25 20  1  0  0  0
  3  4  1  0  0  0
 12 13  1  0  0  0
M  END
> <minimizedAffinity>
-8.76412

> <CNNscore>
0.1530647427

> <CNNaffinity>
6.7888016701

> <CNN_VS>
1.0391261578

> <CNNaffinity_variance>
0.1591182053

$$$$
[H]/C(=C1/C(=O)N([H])c2c1c([H])c([H])c([H])c2C([H])([H])[H])c1c(C([H])([H])[H])c(C(=O)OC([H])([H])C([H])([H])[H])c(C([H])([H])[H])n1[H]


 26 28  0  0  0  0  0  0  0  0999 V2000
  -85.9248   32.0752   -0.3618 C   0  0  0  0  0  0  0  0  0  0  0  0
  -84.8538   32.7718   -0.8772 C   0  0  0  0  0  0  0  0  0  0  0  0
  -83.4401   32.4422   -0.5550 C   0  0  0  0  0  0  0  0  0  0  0  0
  -85.3261   33.7477   -1.6794 N   0  0  0  0  0  0  0  0  0  0  0  0
  -86.6735   33.7261   -1.7161 C   0  0  0  0  0  0  0  0  0  0  0  0
  -87.0505   32.6658   -0.8812 C   0  0  0  0  0  0  0  0  0  0  0  0
  -88.4524   32.2752   -0.6252 C   0  0  0  0  0  0  0  0  0  0  0  0
  -84.7104   34.4144   -2.2085 H   0  0  0  0  0  0  0  0  0  0  0  0
  -87.6427   34.5497   -2.3897 C   0  0  0  0  0  0  0  0  0  0  0  0
  -88.2242   34.1979   -3.4947 C   0  0  0  0  0  0  0  0  0  0  0  0
  -88.0630   32.9866   -4.2854 C   0  0  0  0  0  0  0  0  0  0  0  0
  -87.2966   32.0279   -4.0664 O   0  0  0  0  0  0  0  0  0  0  0  0
  -88.9638   33.0950   -5.3930 N   0  0  0  0  0  0  0  0  0  0  0  0
  -89.6628   34.3297   -5.3000 C   0  0  0  0  0  0  0  0  0  0  0  0
  -90.6421   34.9261   -6.1079 C   0  0  0  0  0  0  0  0  0  0  0  0
  -91.0698   34.1532   -7.3191 C   0  0  0  0  0  0  0  0  0  0  0  0
  -91.1935   36.1566   -5.8216 C   0  0  0  0  0  0  0  0  0  0  0  0
  -90.7561   36.8160   -4.6934 C   0  0  0  0  0  0  0  0  0  0  0  0
  -89.7958   36.2554   -3.8808 C   0  0  0  0  0  0  0  0  0  0  0  0
  -89.2558   35.0217   -4.1851 C   0  0  0  0  0  0  0  0  0  0  0  0
  -89.0907   32.3959   -6.1406 H   0  0  0  0  0  0  0  0  0  0  0  0
  -85.8534   30.9462    0.5457 C   0  0  0  0  0  0  0  0  0  0  0  0
  -86.3518   29.8565    0.1696 O   0  0  0  0  0  0  0  0  0  0  0  0
  -85.2721   30.9883    1.7993 O   0  0  0  0  0  0  0  0  0  0  0  0
  -83.3454   29.6386    1.9166 C   0  0  0  0  0  0  0  0  0  0  0  0
  -84.7347   29.9043    2.4950 C   0  0  0  0  0  0  0  0  0  0  0  0
 25 26  1  0  0  0
 26 24  1  0  0  0
 24 22  1  0  0  0
 22 23  2  0  0  0
 22  1  1  0  0  0
  1  2  2  0  0  0
  2  3  1  0  0  0
  2  4  1  0  0  0
  4  5  1  0  0  0
  5  9  1  0  0  0
  9 10  2  0  0  0
 10 11  1  0  0  0
 11 12  2  0  0  0
 11 13  1  0  0  0
 13 14  1  0  0  0
 14 15  2  0  0  0
 15 16  1  0  0  0
 15 17  1  0  0  0
 17 18  2  0  0  0
 18 19  1  0  0  0
 19 20  2  0  0  0
  5  6  2  0  0  0
  6  7  1  0  0  0
  6  1  1  0  0  0
 20 10  1  0  0  0
 20 14  1  0  0  0
  4  8  1  0  0  0
 13 21  1  0  0  0
M  END
> <minimizedAffinity>
-7.67923

> <CNNscore>
0.5309261680

> <CNNaffinity>
5.7086343765

> <CNN_VS>
3.0308632851

> <CNNaffinity_variance>
0.1605670899

$$$$
[H]/C(=C1/C(=O)N([H])c2c1c([H])c([H])c([H])c2C([H])([H])[H])c1c(C([H])([H])[H])c(C(=O)OC([H])([H])C([H])([H])[H])c(C([H])([H])[H])n1[H]


 26 28  0  0  0  0  0  0  0  0999 V2000
  -88.6575   34.8737   -4.1595 C   0  0  0  0  0  0  0  0  0  0  0  0
  -87.3053   35.1334   -4.2057 C   0  0  0  0  0  0  0  0  0  0  0  0
  -86.7332   36.3475   -4.8457 C   0  0  0  0  0  0  0  0  0  0  0  0
  -86.6561   34.1237   -3.5909 N   0  0  0  0  0  0  0  0  0  0  0  0
  -87.5276   33.2007   -3.1374 C   0  0  0  0  0  0  0  0  0  0  0  0
  -88.7947   33.6780   -3.4983 C   0  0  0  0  0  0  0  0  0  0  0  0
  -90.0585   32.9745   -3.1959 C   0  0  0  0  0  0  0  0  0  0  0  0
  -85.6124   34.0877   -3.4766 H   0  0  0  0  0  0  0  0  0  0  0  0
  -87.3506   31.9507   -2.4463 C   0  0  0  0  0  0  0  0  0  0  0  0
  -86.6903   31.8443   -1.3347 C   0  0  0  0  0  0  0  0  0  0  0  0
  -86.0051   32.8673   -0.5588 C   0  0  0  0  0  0  0  0  0  0  0  0
  -85.8922   34.0801   -0.8249 O   0  0  0  0  0  0  0  0  0  0  0  0
  -85.4650   32.2154    0.5960 N   0  0  0  0  0  0  0  0  0  0  0  0
  -85.7990   30.8344    0.5445 C   0  0  0  0  0  0  0  0  0  0  0  0
  -85.5250   29.7616    1.4057 C   0  0  0  0  0  0  0  0  0  0  0  0
  -84.7267   30.0788    2.6342 C   0  0  0  0  0  0  0  0  0  0  0  0
  -85.9569   28.4771    1.1535 C   0  0  0  0  0  0  0  0  0  0  0  0
  -86.6859   28.2520    0.0060 C   0  0  0  0  0  0  0  0  0  0  0  0
  -86.9706   29.2855   -0.8587 C   0  0  0  0  0  0  0  0  0  0  0  0
  -86.5287   30.5653   -0.5880 C   0  0  0  0  0  0  0  0  0  0  0  0
  -84.9213   32.6671    1.3471 H   0  0  0  0  0  0  0  0  0  0  0  0
  -89.7079   35.7112   -4.7060 C   0  0  0  0  0  0  0  0  0  0  0  0
  -90.0160   35.5556   -5.9135 O   0  0  0  0  0  0  0  0  0  0  0  0
  -90.3948   36.6708   -3.9860 O   0  0  0  0  0  0  0  0  0  0  0  0
  -89.1744   38.6543   -3.6334 C   0  0  0  0  0  0  0  0  0  0  0  0
  -90.4262   38.0394   -4.2582 C   0  0  0  0  0  0  0  0  0  0  0  0
 25 26  1  0  0  0
 26 24  1  0  0  0
 24 22  1  0  0  0
 22 23  2  0  0  0
 22  1  1  0  0  0
  1  2  2  0  0  0
  2  3  1  0  0  0
  2  4  1  0  0  0
  4  5  1  0  0  0
  5  9  1  0  0  0
  9 10  2  0  0  0
 10 11  1  0  0  0
 11 12  2  0  0  0
 11 13  1  0  0  0
 13 14  1  0  0  0
 14 15  2  0  0  0
 15 16  1  0  0  0
 15 17  1  0  0  0
 17 18  2  0  0  0
 18 19  1  0  0  0
 19 20  2  0  0  0
  5  6  2  0  0  0
  6  7  1  0  0  0
  6  1  1  0  0  0
 20 10  1  0  0  0
 20 14  1  0  0  0
  4  8  1  0  0  0
 13 21  1  0  0  0
M  END
> <minimizedAffinity>
-7.01846

> <CNNscore>
0.4044193923

> <CNNaffinity>
5.7913436890

> <CNN_VS>
2.3421316147

> <CNNaffinity_variance>
0.2308367938

$$$$
[H]/C(=C1/C(=O)N([H])c2c1c([H])c([H])c([H])c2C([H])([H])[H])c1c(C([H])([H])[H])c(C(=O)OC([H])([H])C([H])([H])[H])c(C([H])([H])[H])n1[H]


 26 28  0  0  0  0  0  0  0  0999 V2000
  -86.1378   29.7747    0.5011 C   0  0  0  0  0  0  0  0  0  0  0  0
  -85.7616   31.0261    0.9377 C   0  0  0  0  0  0  0  0  0  0  0  0
  -84.8528   31.2431    2.0944 C   0  0  0  0  0  0  0  0  0  0  0  0
  -86.3509   31.9477    0.1489 N   0  0  0  0  0  0  0  0  0  0  0  0
  -87.1067   31.3548   -0.7969 C   0  0  0  0  0  0  0  0  0  0  0  0
  -86.9699   29.9785   -0.5721 C   0  0  0  0  0  0  0  0  0  0  0  0
  -87.6342   28.9394   -1.3861 C   0  0  0  0  0  0  0  0  0  0  0  0
  -86.2141   32.9831    0.2623 H   0  0  0  0  0  0  0  0  0  0  0  0
  -87.9387   31.8781   -1.8482 C   0  0  0  0  0  0  0  0  0  0  0  0
  -87.5741   32.8564   -2.6183 C   0  0  0  0  0  0  0  0  0  0  0  0
  -86.3386   33.6255   -2.6224 C   0  0  0  0  0  0  0  0  0  0  0  0
  -85.3652   33.5112   -1.8518 O   0  0  0  0  0  0  0  0  0  0  0  0
  -86.4427   34.5660   -3.6970 N   0  0  0  0  0  0  0  0  0  0  0  0
  -87.6981   34.3929   -4.3415 C   0  0  0  0  0  0  0  0  0  0  0  0
  -88.3000   35.0398   -5.4309 C   0  0  0  0  0  0  0  0  0  0  0  0
  -87.5076   36.1360   -6.0773 C   0  0  0  0  0  0  0  0  0  0  0  0
  -89.5522   34.7014   -5.8970 C   0  0  0  0  0  0  0  0  0  0  0  0
  -90.2288   33.6851   -5.2580 C   0  0  0  0  0  0  0  0  0  0  0  0
  -89.6635   33.0314   -4.1856 C   0  0  0  0  0  0  0  0  0  0  0  0
  -88.4077   33.3855   -3.7339 C   0  0  0  0  0  0  0  0  0  0  0  0
  -85.7279   35.2592   -3.9659 H   0  0  0  0  0  0  0  0  0  0  0  0
  -85.7242   28.5088    1.0755 C   0  0  0  0  0  0  0  0  0  0  0  0
  -84.4992   28.3312    1.2877 O   0  0  0  0  0  0  0  0  0  0  0  0
  -86.5891   27.4824    1.4063 O   0  0  0  0  0  0  0  0  0  0  0  0
  -88.2401   26.1806    2.4681 C   0  0  0  0  0  0  0  0  0  0  0  0
  -87.7490   27.5976    2.1740 C   0  0  0  0  0  0  0  0  0  0  0  0
 25 26  1  0  0  0
 26 24  1  0  0  0
 24 22  1  0  0  0
 22 23  2  0  0  0
 22  1  1  0  0  0
  1  2  2  0  0  0
  2  3  1  0  0  0
  2  4  1  0  0  0
  4  5  1  0  0  0
  5  9  1  0  0  0
  9 10  2  0  0  0
 10 11  1  0  0  0
 11 12  2  0  0  0
 11 13  1  0  0  0
 13 14  1  0  0  0
 14 15  2  0  0  0
 15 16  1  0  0  0
 15 17  1  0  0  0
 17 18  2  0  0  0
 18 19  1  0  0  0
 19 20  2  0  0  0
  5  6  2  0  0  0
  6  7  1  0  0  0
  6  1  1  0  0  0
 20 10  1  0  0  0
 20 14  1  0  0  0
  4  8  1  0  0  0
 13 21  1  0  0  0
M  END
> <minimizedAffinity>
-7.51755

> <CNNscore>
0.3420863450

> <CNNaffinity>
5.7563714981

> <CNN_VS>
1.9691760540

> <CNNaffinity_variance>
0.3030517995

$$$$
[H]/C(=C1/C(=O)N([H])c2c1c([H])c([H])c([H])c2C([H])([H])[H])c1c(C([H])([H])[H])c(C(=O)OC([H])([H])C([H])([H])[H])c(C([H])([H])[H])n1[H]


 26 28  0  0  0  0  0  0  0  0999 V2000
  -88.5474   34.0685   -3.0007 C   0  0  0  0  0  0  0  0  0  0  0  0
  -87.3105   34.3303   -3.5480 C   0  0  0  0  0  0  0  0  0  0  0  0
  -87.1293   35.0293   -4.8478 C   0  0  0  0  0  0  0  0  0  0  0  0
  -86.3652   33.8517   -2.7135 N   0  0  0  0  0  0  0  0  0  0  0  0
  -86.9285   33.2799   -1.6305 C   0  0  0  0  0  0  0  0  0  0  0  0
  -88.3107   33.4187   -1.8143 C   0  0  0  0  0  0  0  0  0  0  0  0
  -89.3239   32.9287   -0.8568 C   0  0  0  0  0  0  0  0  0  0  0  0
  -85.3337   33.9371   -2.8932 H   0  0  0  0  0  0  0  0  0  0  0  0
  -86.3739   32.6172   -0.4796 C   0  0  0  0  0  0  0  0  0  0  0  0
  -86.4225   31.3317   -0.3117 C   0  0  0  0  0  0  0  0  0  0  0  0
  -87.0052   30.3044   -1.1623 C   0  0  0  0  0  0  0  0  0  0  0  0
  -87.6111   30.4590   -2.2409 O   0  0  0  0  0  0  0  0  0  0  0  0
  -86.7553   29.0487   -0.5213 N   0  0  0  0  0  0  0  0  0  0  0  0
  -86.0431   29.2813    0.6870 C   0  0  0  0  0  0  0  0  0  0  0  0
  -85.5559   28.4182    1.6796 C   0  0  0  0  0  0  0  0  0  0  0  0
  -85.8099   26.9549    1.4754 C   0  0  0  0  0  0  0  0  0  0  0  0
  -84.8782   28.8712    2.7912 C   0  0  0  0  0  0  0  0  0  0  0  0
  -84.6783   30.2286    2.9198 C   0  0  0  0  0  0  0  0  0  0  0  0
  -85.1450   31.1006    1.9614 C   0  0  0  0  0  0  0  0  0  0  0  0
  -85.8217   30.6267    0.8551 C   0  0  0  0  0  0  0  0  0  0  0  0
  -87.0420   28.1223   -0.8725 H   0  0  0  0  0  0  0  0  0  0  0  0
  -89.8300   34.4193   -3.5798 C   0  0  0  0  0  0  0  0  0  0  0  0
  -90.4759   33.5177   -4.1691 O   0  0  0  0  0  0  0  0  0  0  0  0
  -90.3910   35.6817   -3.5267 O   0  0  0  0  0  0  0  0  0  0  0  0
  -89.5890   37.8148   -4.1219 C   0  0  0  0  0  0  0  0  0  0  0  0
  -90.4230   36.6134   -4.5653 C   0  0  0  0  0  0  0  0  0  0  0  0
 25 26  1  0  0  0
 26 24  1  0  0  0
 24 22  1  0  0  0
 22 23  2  0  0  0
 22  1  1  0  0  0
  1  2  2  0  0  0
  2  3  1  0  0  0
  2  4  1  0  0  0
  4  5  1  0  0  0
  5  9  1  0  0  0
  9 10  2  0  0  0
 10 11  1  0  0  0
 11 12  2  0  0  0
 11 13  1  0  0  0
 13 14  1  0  0  0
 14 15  2  0  0  0
 15 16  1  0  0  0
 15 17  1  0  0  0
 17 18  2  0  0  0
 18 19  1  0  0  0
 19 20  2  0  0  0
  5  6  2  0  0  0
  6  7  1  0  0  0
  6  1  1  0  0  0
 20 10  1  0  0  0
 20 14  1  0  0  0
  4  8  1  0  0  0
 13 21  1  0  0  0
M  END
> <minimizedAffinity>
-7.76623

> <CNNscore>
0.3376613855

> <CNNaffinity>
5.7652506828

> <CNN_VS>
1.9467024803

> <CNNaffinity_variance>
0.2660260201

$$$$
[H]/C(=C1/C(=O)N([H])c2c1c([H])c([H])c([H])c2C([H])([H])[H])c1c(C([H])([H])[H])c(C(=O)OC([H])([H])C([H])([H])[H])c(C([H])([H])[H])n1[H]


 26 28  0  0  0  0  0  0  0  0999 V2000
  -89.0391   33.6949   -4.2024 C   0  0  0  0  0  0  0  0  0  0  0  0
  -89.1393   34.8803   -3.5076 C   0  0  0  0  0  0  0  0  0  0  0  0
  -90.2281   35.8666   -3.7376 C   0  0  0  0  0  0  0  0  0  0  0  0
  -88.1126   34.9516   -2.6360 N   0  0  0  0  0  0  0  0  0  0  0  0
  -87.3319   33.8564   -2.7261 C   0  0  0  0  0  0  0  0  0  0  0  0
  -87.9208   33.0615   -3.7185 C   0  0  0  0  0  0  0  0  0  0  0  0
  -87.3906   31.7512   -4.1490 C   0  0  0  0  0  0  0  0  0  0  0  0
  -87.9672   35.7535   -1.9732 H   0  0  0  0  0  0  0  0  0  0  0  0
  -86.1266   33.4609   -2.0462 C   0  0  0  0  0  0  0  0  0  0  0  0
  -86.1108   32.5951   -1.0802 C   0  0  0  0  0  0  0  0  0  0  0  0
  -87.2102   31.8604   -0.4722 C   0  0  0  0  0  0  0  0  0  0  0  0
  -88.4236   31.9339   -0.7491 O   0  0  0  0  0  0  0  0  0  0  0  0
  -86.6360   31.0161    0.5315 N   0  0  0  0  0  0  0  0  0  0  0  0
  -85.2284   31.2156    0.5520 C   0  0  0  0  0  0  0  0  0  0  0  0
  -84.2039   30.6533    1.3278 C   0  0  0  0  0  0  0  0  0  0  0  0
  -84.6207   29.6394    2.3503 C   0  0  0  0  0  0  0  0  0  0  0  0
  -82.8790   31.0013    1.1743 C   0  0  0  0  0  0  0  0  0  0  0  0
  -82.5624   31.9404    0.2168 C   0  0  0  0  0  0  0  0  0  0  0  0
  -83.5467   32.5100   -0.5602 C   0  0  0  0  0  0  0  0  0  0  0  0
  -84.8682   32.1478   -0.3908 C   0  0  0  0  0  0  0  0  0  0  0  0
  -87.1524   30.3664    1.1439 H   0  0  0  0  0  0  0  0  0  0  0  0
  -89.9460   33.2294   -5.2341 C   0  0  0  0  0  0  0  0  0  0  0  0
  -89.9533   33.8412   -6.3309 O   0  0  0  0  0  0  0  0  0  0  0  0
  -90.8045   32.1553   -5.0917 O   0  0  0  0  0  0  0  0  0  0  0  0
  -91.0421   30.3057   -3.6529 C   0  0  0  0  0  0  0  0  0  0  0  0
  -91.4390   31.7583   -3.9137 C   0  0  0  0  0  0  0  0  0  0  0  0
 25 26  1  0  0  0
 26 24  1  0  0  0
 24 22  1  0  0  0
 22 23  2  0  0  0
 22  1  1  0  0  0
  1  2  2  0  0  0
  2  3  1  0  0  0
  2  4  1  0  0  0
  4  5  1  0  0  0
  5  9  1  0  0  0
  9 10  2  0  0  0
 10 11  1  0  0  0
 11 12  2  0  0  0
 11 13  1  0  0  0
 13 14  1  0  0  0
 14 15  2  0  0  0
 15 16  1  0  0  0
 15 17  1  0  0  0
 17 18  2  0  0  0
 18 19  1  0  0  0
 19 20  2  0  0  0
  5  6  2  0  0  0
  6  7  1  0  0  0
  6  1  1  0  0  0
 20 10  1  0  0  0
 20 14  1  0  0  0
  4  8  1  0  0  0
 13 21  1  0  0  0
M  END
> <minimizedAffinity>
-7.93682

> <CNNscore>
0.3226200044

> <CNNaffinity>
5.6196169853

> <CNN_VS>
1.8130007982

> <CNNaffinity_variance>
0.2091061771

$$$$
[H]/C(=C1/C(=O)N([H])c2c1c([H])c([H])c([H])c2C([H])([H])[H])c1c(C([H])([H])[H])c(C(=O)OC([H])([H])C([H])([H])[H])c(C([H])([H])[H])n1[H]


 26 28  0  0  0  0  0  0  0  0999 V2000
  -89.7061   34.0858   -4.6087 C   0  0  0  0  0  0  0  0  0  0  0  0
  -89.8938   35.2333   -3.8698 C   0  0  0  0  0  0  0  0  0  0  0  0
  -91.0561   36.1408   -4.0608 C   0  0  0  0  0  0  0  0  0  0  0  0
  -88.8717   35.3507   -2.9979 N   0  0  0  0  0  0  0  0  0  0  0  0
  -88.0097   34.3228   -3.1302 C   0  0  0  0  0  0  0  0  0  0  0  0
  -88.5404   33.5226   -4.1508 C   0  0  0  0  0  0  0  0  0  0  0  0
  -87.9131   32.2739   -4.6310 C   0  0  0  0  0  0  0  0  0  0  0  0
  -88.7852   36.1362   -2.3057 H   0  0  0  0  0  0  0  0  0  0  0  0
  -86.7745   33.9960   -2.4677 C   0  0  0  0  0  0  0  0  0  0  0  0
  -86.6948   33.1262   -1.5085 C   0  0  0  0  0  0  0  0  0  0  0  0
  -87.7405   32.3226   -0.8930 C   0  0  0  0  0  0  0  0  0  0  0  0
  -88.9594   32.3248   -1.1549 O   0  0  0  0  0  0  0  0  0  0  0  0
  -87.1042   31.5076    0.0975 N   0  0  0  0  0  0  0  0  0  0  0  0
  -85.7110   31.7914    0.1028 C   0  0  0  0  0  0  0  0  0  0  0  0
  -84.6451   31.2866    0.8622 C   0  0  0  0  0  0  0  0  0  0  0  0
  -84.9876   30.2426    1.8820 C   0  0  0  0  0  0  0  0  0  0  0  0
  -83.3456   31.7149    0.6956 C   0  0  0  0  0  0  0  0  0  0  0  0
  -83.0978   32.6778   -0.2585 C   0  0  0  0  0  0  0  0  0  0  0  0
  -84.1240   33.1923   -1.0195 C   0  0  0  0  0  0  0  0  0  0  0  0
  -85.4192   32.7500   -0.8372 C   0  0  0  0  0  0  0  0  0  0  0  0
  -87.5730   30.8239    0.7110 H   0  0  0  0  0  0  0  0  0  0  0  0
  -90.5793   33.5907   -5.6557 C   0  0  0  0  0  0  0  0  0  0  0  0
  -91.4716   32.7665   -5.3368 O   0  0  0  0  0  0  0  0  0  0  0  0
  -90.4958   33.9658   -6.9836 O   0  0  0  0  0  0  0  0  0  0  0  0
  -89.9562   36.1523   -7.6734 C   0  0  0  0  0  0  0  0  0  0  0  0
  -91.0635   35.1057   -7.5549 C   0  0  0  0  0  0  0  0  0  0  0  0
 25 26  1  0  0  0
 26 24  1  0  0  0
 24 22  1  0  0  0
 22 23  2  0  0  0
 22  1  1  0  0  0
  1  2  2  0  0  0
  2  3  1  0  0  0
  2  4  1  0  0  0
  4  5  1  0  0  0
  5  9  1  0  0  0
  9 10  2  0  0  0
 10 11  1  0  0  0
 11 12  2  0  0  0
 11 13  1  0  0  0
 13 14  1  0  0  0
 14 15  2  0  0  0
 15 16  1  0  0  0
 15 17  1  0  0  0
 17 18  2  0  0  0
 18 19  1  0  0  0
 19 20  2  0  0  0
  5  6  2  0  0  0
  6  7  1  0  0  0
  6  1  1  0  0  0
 20 10  1  0  0  0
 20 14  1  0  0  0
  4  8  1  0  0  0
 13 21  1  0  0  0
M  END
> <minimizedAffinity>
-7.66483

> <CNNscore>
0.3078174591

> <CNNaffinity>
5.2889351845

> <CNN_VS>
1.6280266047

> <CNNaffinity_variance>
0.2225297987

$$$$
[H]/C(=C1/C(=O)N([H])c2c1c([H])c([H])c([H])c2C([H])([H])[H])c1c(C([H])([H])[H])c(C(=O)OC([H])([H])C([H])([H])[H])c(C([H])([H])[H])n1[H]


 26 28  0  0  0  0  0  0  0  0999 V2000
  -86.5493   31.2308   -0.0452 C   0  0  0  0  0  0  0  0  0  0  0  0
  -87.5984   30.3712   -0.2866 C   0  0  0  0  0  0  0  0  0  0  0  0
  -87.6348   28.9729    0.2177 C   0  0  0  0  0  0  0  0  0  0  0  0
  -88.5206   31.0211   -1.0257 N   0  0  0  0  0  0  0  0  0  0  0  0
  -88.1227   32.2825   -1.2855 C   0  0  0  0  0  0  0  0  0  0  0  0
  -86.8740   32.4134   -0.6632 C   0  0  0  0  0  0  0  0  0  0  0  0
  -86.0637   33.6487   -0.6905 C   0  0  0  0  0  0  0  0  0  0  0  0
  -89.4278   30.5902   -1.3337 H   0  0  0  0  0  0  0  0  0  0  0  0
  -88.7194   33.3574   -2.0338 C   0  0  0  0  0  0  0  0  0  0  0  0
  -89.0677   33.2448   -3.2784 C   0  0  0  0  0  0  0  0  0  0  0  0
  -88.9530   32.1053   -4.1765 C   0  0  0  0  0  0  0  0  0  0  0  0
  -88.4631   30.9855   -3.9308 O   0  0  0  0  0  0  0  0  0  0  0  0
  -89.5154   32.5103   -5.4294 N   0  0  0  0  0  0  0  0  0  0  0  0
  -89.9650   33.8547   -5.3202 C   0  0  0  0  0  0  0  0  0  0  0  0
  -90.5818   34.7235   -6.2324 C   0  0  0  0  0  0  0  0  0  0  0  0
  -90.8389   34.1778   -7.6048 C   0  0  0  0  0  0  0  0  0  0  0  0
  -90.9395   36.0137   -5.9046 C   0  0  0  0  0  0  0  0  0  0  0  0
  -90.6747   36.4547   -4.6261 C   0  0  0  0  0  0  0  0  0  0  0  0
  -90.0701   35.6245   -3.7085 C   0  0  0  0  0  0  0  0  0  0  0  0
  -89.7194   34.3352   -4.0567 C   0  0  0  0  0  0  0  0  0  0  0  0
  -89.5865   31.9276   -6.2775 H   0  0  0  0  0  0  0  0  0  0  0  0
  -85.3515   30.9259    0.7137 C   0  0  0  0  0  0  0  0  0  0  0  0
  -85.3750   31.1222    1.9540 O   0  0  0  0  0  0  0  0  0  0  0  0
  -84.1834   30.4325    0.1632 O   0  0  0  0  0  0  0  0  0  0  0  0
  -82.8093   32.3181   -0.1594 C   0  0  0  0  0  0  0  0  0  0  0  0
  -82.8930   30.9027    0.4110 C   0  0  0  0  0  0  0  0  0  0  0  0
 25 26  1  0  0  0
 26 24  1  0  0  0
 24 22  1  0  0  0
 22 23  2  0  0  0
 22  1  1  0  0  0
  1  2  2  0  0  0
  2  3  1  0  0  0
  2  4  1  0  0  0
  4  5  1  0  0  0
  5  9  1  0  0  0
  9 10  2  0  0  0
 10 11  1  0  0  0
 11 12  2  0  0  0
 11 13  1  0  0  0
 13 14  1  0  0  0
 14 15  2  0  0  0
 15 16  1  0  0  0
 15 17  1  0  0  0
 17 18  2  0  0  0
 18 19  1  0  0  0
 19 20  2  0  0  0
  5  6  2  0  0  0
  6  7  1  0  0  0
  6  1  1  0  0  0
 20 10  1  0  0  0
 20 14  1  0  0  0
  4  8  1  0  0  0
 13 21  1  0  0  0
M  END
> <minimizedAffinity>
-7.48318

> <CNNscore>
0.2965689301

> <CNNaffinity>
5.3227696419

> <CNN_VS>
1.5785681009

> <CNNaffinity_variance>
0.2478908747

$$$$
[H]/C(=C1/C(=O)N([H])c2c1c([H])c([H])c([H])c2C([H])([H])[H])c1c(C([H])([H])[H])c(C(=O)OC([H])([H])C([H])([H])[H])c(C([H])([H])[H])n1[H]


 26 28  0  0  0  0  0  0  0  0999 V2000
  -90.2029   33.4172   -4.2781 C   0  0  0  0  0  0  0  0  0  0  0  0
  -89.9559   34.5512   -3.5358 C   0  0  0  0  0  0  0  0  0  0  0  0
  -90.4440   35.9000   -3.9273 C   0  0  0  0  0  0  0  0  0  0  0  0
  -89.2284   34.2030   -2.4549 N   0  0  0  0  0  0  0  0  0  0  0  0
  -88.9816   32.8777   -2.4512 C   0  0  0  0  0  0  0  0  0  0  0  0
  -89.6001   32.3820   -3.6067 C   0  0  0  0  0  0  0  0  0  0  0  0
  -89.5839   30.9593   -4.0058 C   0  0  0  0  0  0  0  0  0  0  0  0
  -88.9191   34.8848   -1.7179 H   0  0  0  0  0  0  0  0  0  0  0  0
  -88.2484   32.0261   -1.5520 C   0  0  0  0  0  0  0  0  0  0  0  0
  -87.0126   32.2428   -1.2222 C   0  0  0  0  0  0  0  0  0  0  0  0
  -86.1116   33.3065   -1.6402 C   0  0  0  0  0  0  0  0  0  0  0  0
  -86.3449   34.2355   -2.4383 O   0  0  0  0  0  0  0  0  0  0  0  0
  -84.8729   33.0897   -0.9556 N   0  0  0  0  0  0  0  0  0  0  0  0
  -84.9935   31.9317   -0.1395 C   0  0  0  0  0  0  0  0  0  0  0  0
  -84.0968   31.2841    0.7232 C   0  0  0  0  0  0  0  0  0  0  0  0
  -82.7309   31.8900    0.8437 C   0  0  0  0  0  0  0  0  0  0  0  0
  -84.4337   30.1501    1.4306 C   0  0  0  0  0  0  0  0  0  0  0  0
  -85.7055   29.6429    1.2747 C   0  0  0  0  0  0  0  0  0  0  0  0
  -86.6078   30.2570    0.4347 C   0  0  0  0  0  0  0  0  0  0  0  0
  -86.2508   31.3923   -0.2652 C   0  0  0  0  0  0  0  0  0  0  0  0
  -84.0266   33.6737   -1.0360 H   0  0  0  0  0  0  0  0  0  0  0  0
  -90.9532   33.3534   -5.5177 C   0  0  0  0  0  0  0  0  0  0  0  0
  -92.1365   32.9356   -5.4684 O   0  0  0  0  0  0  0  0  0  0  0  0
  -90.4530   33.7227   -6.7524 O   0  0  0  0  0  0  0  0  0  0  0  0
  -90.3278   35.8465   -7.7630 C   0  0  0  0  0  0  0  0  0  0  0  0
  -91.0957   34.5270   -7.6946 C   0  0  0  0  0  0  0  0  0  0  0  0
 25 26  1  0  0  0
 26 24  1  0  0  0
 24 22  1  0  0  0
 22 23  2  0  0  0
 22  1  1  0  0  0
  1  2  2  0  0  0
  2  3  1  0  0  0
  2  4  1  0  0  0
  4  5  1  0  0  0
  5  9  1  0  0  0
  9 10  2  0  0  0
 10 11  1  0  0  0
 11 12  2  0  0  0
 11 13  1  0  0  0
 13 14  1  0  0  0
 14 15  2  0  0  0
 15 16  1  0  0  0
 15 17  1  0  0  0
 17 18  2  0  0  0
 18 19  1  0  0  0
 19 20  2  0  0  0
  5  6  2  0  0  0
  6  7  1  0  0  0
  6  1  1  0  0  0
 20 10  1  0  0  0
 20 14  1  0  0  0
  4  8  1  0  0  0
 13 21  1  0  0  0
M  END
> <minimizedAffinity>
-7.40108

> <CNNscore>
0.1798413694

> <CNNaffinity>
5.3395261765

> <CNN_VS>
0.9602677226

> <CNNaffinity_variance>
0.2324258536

$$$$
[H]/C(=C1/C(=O)N([H])c2c1c([H])c([H])c([H])c2C([H])([H])[H])c1c(C([H])([H])[H])c(C(=O)OC([H])([H])C([H])([H])[H])c(C([H])([H])[H])n1[H]


 26 28  0  0  0  0  0  0  0  0999 V2000
  -89.4581   34.1010   -4.6619 C   0  0  0  0  0  0  0  0  0  0  0  0
  -89.8003   34.8544   -3.5604 C   0  0  0  0  0  0  0  0  0  0  0  0
  -90.4244   36.2004   -3.6595 C   0  0  0  0  0  0  0  0  0  0  0  0
  -89.4722   34.1611   -2.4511 N   0  0  0  0  0  0  0  0  0  0  0  0
  -88.9231   32.9732   -2.7745 C   0  0  0  0  0  0  0  0  0  0  0  0
  -88.9155   32.9371   -4.1753 C   0  0  0  0  0  0  0  0  0  0  0  0
  -88.3959   31.8041   -4.9688 C   0  0  0  0  0  0  0  0  0  0  0  0
  -89.6442   34.5099   -1.4752 H   0  0  0  0  0  0  0  0  0  0  0  0
  -88.3958   31.8953   -1.9799 C   0  0  0  0  0  0  0  0  0  0  0  0
  -87.2921   31.9885   -1.3044 C   0  0  0  0  0  0  0  0  0  0  0  0
  -86.3675   33.1060   -1.1839 C   0  0  0  0  0  0  0  0  0  0  0  0
  -86.4399   34.2204   -1.7382 O   0  0  0  0  0  0  0  0  0  0  0  0
  -85.3282   32.6862   -0.2930 N   0  0  0  0  0  0  0  0  0  0  0  0
  -85.5919   31.3541    0.1282 C   0  0  0  0  0  0  0  0  0  0  0  0
  -84.9072   30.4790    0.9843 C   0  0  0  0  0  0  0  0  0  0  0  0
  -83.6443   31.0006    1.6011 C   0  0  0  0  0  0  0  0  0  0  0  0
  -85.3543   29.2038    1.2563 C   0  0  0  0  0  0  0  0  0  0  0  0
  -86.5220   28.7848    0.6564 C   0  0  0  0  0  0  0  0  0  0  0  0
  -87.2163   29.6216   -0.1888 C   0  0  0  0  0  0  0  0  0  0  0  0
  -86.7516   30.8956   -0.4485 C   0  0  0  0  0  0  0  0  0  0  0  0
  -84.5173   33.2520    0.0004 H   0  0  0  0  0  0  0  0  0  0  0  0
  -89.6441   34.4813   -6.0490 C   0  0  0  0  0  0  0  0  0  0  0  0
  -90.5387   33.8931   -6.7056 O   0  0  0  0  0  0  0  0  0  0  0  0
  -88.9019   35.4499   -6.6988 O   0  0  0  0  0  0  0  0  0  0  0  0
  -87.2922   37.0724   -7.2681 C   0  0  0  0  0  0  0  0  0  0  0  0
  -87.7101   36.0170   -6.2449 C   0  0  0  0  0  0  0  0  0  0  0  0
 25 26  1  0  0  0
 26 24  1  0  0  0
 24 22  1  0  0  0
 22 23  2  0  0  0
 22  1  1  0  0  0
  1  2  2  0  0  0
  2  3  1  0  0  0
  2  4  1  0  0  0
  4  5  1  0  0  0
  5  9  1  0  0  0
  9 10  2  0  0  0
 10 11  1  0  0  0
 11 12  2  0  0  0
 11 13  1  0  0  0
 13 14  1  0  0  0
 14 15  2  0  0  0
 15 16  1  0  0  0
 15 17  1  0  0  0
 17 18  2  0  0  0
 18 19  1  0  0  0
 19 20  2  0  0  0
  5  6  2  0  0  0
  6  7  1  0  0  0
  6  1  1  0  0  0
 20 10  1  0  0  0
 20 14  1  0  0  0
  4  8  1  0  0  0
 13 21  1  0  0  0
M  END
> <minimizedAffinity>
-7.48238

> <CNNscore>
0.1623208523

> <CNNaffinity>
5.4130148888

> <CNN_VS>
0.8786451817

> <CNNaffinity_variance>
0.3189591765

$$$$
[H]C1=C2C([H])([H])C([H])([H])[C@@]3([H])[C@]4([H])C([H])([H])C([H])([H])C(=O)[C@@]4(C([H])([H])[H])C([H])([H])C([H])([H])[C@]3([H])[C@]2(C([H])([H])[H])C([H])([H])C([H])([H])C1=O


 21 24  0  0  0  0  0  0  0  0999 V2000
  -84.5210   29.5923    0.0829 C   0  0  0  0  0  0  0  0  0  0  0  0
  -85.6324   30.1704    0.9207 C   0  0  0  0  0  0  0  0  0  0  0  0
  -86.9490   29.5665    0.6112 C   0  0  0  0  0  0  0  0  0  0  0  0
  -87.4079   29.9633   -0.7620 C   0  0  0  0  0  0  0  0  0  0  0  0
  -87.4924   31.4793   -0.9114 C   0  0  0  0  0  0  0  0  0  0  0  0
  -86.1041   32.0219   -0.6816 C   0  0  0  0  0  0  0  0  0  0  0  0
  -86.0210   33.5124   -0.8464 C   0  0  0  0  0  0  0  0  0  0  0  0
  -86.6391   34.0446   -2.0832 C   0  0  0  0  0  0  0  0  0  0  0  0
  -87.5660   33.1216   -2.7708 C   0  0  0  0  0  0  0  0  0  0  0  0
  -87.9302   33.4606   -4.0102 C   0  0  0  0  0  0  0  0  0  0  0  0
  -88.8416   32.5965   -4.7471 C   0  0  0  0  0  0  0  0  0  0  0  0
  -89.5518   33.0828   -5.6388 O   0  0  0  0  0  0  0  0  0  0  0  0
  -88.9187   31.1558   -4.4351 C   0  0  0  0  0  0  0  0  0  0  0  0
  -88.0204   30.7946   -3.2601 C   0  0  0  0  0  0  0  0  0  0  0  0
  -88.1053   31.8886   -2.2030 C   0  0  0  0  0  0  0  0  0  0  0  0
  -89.5971   32.1158   -1.9543 C   0  0  0  0  0  0  0  0  0  0  0  0
  -85.7654   31.6760    0.7166 C   0  0  0  0  0  0  0  0  0  0  0  0
  -84.5243   32.1992    1.2885 C   0  0  0  0  0  0  0  0  0  0  0  0
  -84.3200   31.3114    2.5251 C   0  0  0  0  0  0  0  0  0  0  0  0
  -85.2145   30.1412    2.3208 C   0  0  0  0  0  0  0  0  0  0  0  0
  -85.5320   29.3250    3.1564 O   0  0  0  0  0  0  0  0  0  0  0  0
  2  1  1  0  0  0
  2  3  1  0  0  0
  3  4  1  0  0  0
  4  5  1  0  0  0
  5  6  1  0  0  0
  6  7  1  0  0  0
  7  8  1  0  0  0
  8  9  1  0  0  0
  9 10  2  0  0  0
 10 11  1  0  0  0
 11 12  2  0  0  0
 11 13  1  0  0  0
 13 14  1  0  0  0
 14 15  1  0  0  0
 15 16  1  0  0  0
  6 17  1  0  0  0
 17 18  1  0  0  0
 18 19  1  0  0  0
 19 20  1  0  0  0
 20 21  2  0  0  0
 17  2  1  0  0  0
 20  2  1  0  0  0
 15  5  1  0  0  0
 15  9  1  0  0  0
M  END
> <minimizedAffinity>
-8.91547

> <CNNscore>
0.6694501638

> <CNNaffinity>
6.2057580948

> <CNN_VS>
4.1544456482

> <CNNaffinity_variance>
0.2881494164

$$$$
[H]C1=C2C([H])([H])C([H])([H])[C@@]3([H])[C@]4([H])C([H])([H])C([H])([H])C(=O)[C@@]4(C([H])([H])[H])C([H])([H])C([H])([H])[C@]3([H])[C@]2(C([H])([H])[H])C([H])([H])C([H])([H])C1=O


 21 24  0  0  0  0  0  0  0  0999 V2000
  -89.5245   32.8035   -0.5297 C   0  0  0  0  0  0  0  0  0  0  0  0
  -88.8636   32.2548   -1.7680 C   0  0  0  0  0  0  0  0  0  0  0  0
  -89.1764   30.8244   -1.9914 C   0  0  0  0  0  0  0  0  0  0  0  0
  -88.5357   29.9678   -0.9380 C   0  0  0  0  0  0  0  0  0  0  0  0
  -87.0228   30.1608   -0.8987 C   0  0  0  0  0  0  0  0  0  0  0  0
  -86.7729   31.6115   -0.5710 C   0  0  0  0  0  0  0  0  0  0  0  0
  -85.3132   31.9433   -0.4488 C   0  0  0  0  0  0  0  0  0  0  0  0
  -84.5287   31.0259    0.4100 C   0  0  0  0  0  0  0  0  0  0  0  0
  -85.1762   29.7301    0.7027 C   0  0  0  0  0  0  0  0  0  0  0  0
  -84.6256   28.9978    1.6744 C   0  0  0  0  0  0  0  0  0  0  0  0
  -85.2124   27.7096    2.0160 C   0  0  0  0  0  0  0  0  0  0  0  0
  -84.4989   26.8329    2.5241 O   0  0  0  0  0  0  0  0  0  0  0  0
  -86.6429   27.4506    1.7597 C   0  0  0  0  0  0  0  0  0  0  0  0
  -87.3036   28.6325    1.0633 C   0  0  0  0  0  0  0  0  0  0  0  0
  -86.3522   29.2002    0.0174 C   0  0  0  0  0  0  0  0  0  0  0  0
  -85.8918   28.0072   -0.8215 C   0  0  0  0  0  0  0  0  0  0  0  0
  -87.3453   32.3809   -1.6978 C   0  0  0  0  0  0  0  0  0  0  0  0
  -87.1302   33.8277   -1.7412 C   0  0  0  0  0  0  0  0  0  0  0  0
  -88.1870   34.2974   -2.7521 C   0  0  0  0  0  0  0  0  0  0  0  0
  -89.1416   33.1642   -2.8778 C   0  0  0  0  0  0  0  0  0  0  0  0
  -89.9843   33.0264   -3.7357 O   0  0  0  0  0  0  0  0  0  0  0  0
  2  1  1  0  0  0
  2  3  1  0  0  0
  3  4  1  0  0  0
  4  5  1  0  0  0
  5  6  1  0  0  0
  6  7  1  0  0  0
  7  8  1  0  0  0
  8  9  1  0  0  0
  9 10  2  0  0  0
 10 11  1  0  0  0
 11 12  2  0  0  0
 11 13  1  0  0  0
 13 14  1  0  0  0
 14 15  1  0  0  0
 15 16  1  0  0  0
  6 17  1  0  0  0
 17 18  1  0  0  0
 18 19  1  0  0  0
 19 20  1  0  0  0
 20 21  2  0  0  0
 17  2  1  0  0  0
 20  2  1  0  0  0
 15  5  1  0  0  0
 15  9  1  0  0  0
M  END
> <minimizedAffinity>
-8.07115

> <CNNscore>
0.5665944815

> <CNNaffinity>
6.2979412079

> <CNN_VS>
3.5683786869

> <CNNaffinity_variance>
0.4150752425

$$$$
[H]C1=C2C([H])([H])C([H])([H])[C@@]3([H])[C@]4([H])C([H])([H])C([H])([H])C(=O)[C@@]4(C([H])([H])[H])C([H])([H])C([H])([H])[C@]3([H])[C@]2(C([H])([H])[H])C([H])([H])C([H])([H])C1=O


 21 24  0  0  0  0  0  0  0  0999 V2000
  -86.2688   32.5001   -3.0546 C   0  0  0  0  0  0  0  0  0  0  0  0
  -86.9147   33.0893   -1.8270 C   0  0  0  0  0  0  0  0  0  0  0  0
  -85.9228   33.6222   -0.8647 C   0  0  0  0  0  0  0  0  0  0  0  0
  -85.1279   32.5085   -0.2469 C   0  0  0  0  0  0  0  0  0  0  0  0
  -86.0282   31.4957    0.4542 C   0  0  0  0  0  0  0  0  0  0  0  0
  -86.9447   30.9207   -0.5965 C   0  0  0  0  0  0  0  0  0  0  0  0
  -87.8646   29.8626   -0.0584 C   0  0  0  0  0  0  0  0  0  0  0  0
  -87.2090   28.8132    0.7563 C   0  0  0  0  0  0  0  0  0  0  0  0
  -85.8546   29.1489    1.2430 C   0  0  0  0  0  0  0  0  0  0  0  0
  -85.1385   28.1406    1.7472 C   0  0  0  0  0  0  0  0  0  0  0  0
  -83.7948   28.3996    2.2450 C   0  0  0  0  0  0  0  0  0  0  0  0
  -83.3166   27.6586    3.1158 O   0  0  0  0  0  0  0  0  0  0  0  0
  -83.0102   29.5334    1.7179 C   0  0  0  0  0  0  0  0  0  0  0  0
  -83.8189   30.3498    0.7191 C   0  0  0  0  0  0  0  0  0  0  0  0
  -85.2536   30.4799    1.2155 C   0  0  0  0  0  0  0  0  0  0  0  0
  -85.1538   30.9649    2.6624 C   0  0  0  0  0  0  0  0  0  0  0  0
  -87.7569   32.0572   -1.0846 C   0  0  0  0  0  0  0  0  0  0  0  0
  -88.8512   31.7883   -2.0182 C   0  0  0  0  0  0  0  0  0  0  0  0
  -89.1489   33.1780   -2.6009 C   0  0  0  0  0  0  0  0  0  0  0  0
  -87.9649   34.0097   -2.2579 C   0  0  0  0  0  0  0  0  0  0  0  0
  -87.8907   35.2160   -2.3246 O   0  0  0  0  0  0  0  0  0  0  0  0
  2  1  1  0  0  0
  2  3  1  0  0  0
  3  4  1  0  0  0
  4  5  1  0  0  0
  5  6  1  0  0  0
  6  7  1  0  0  0
  7  8  1  0  0  0
  8  9  1  0  0  0
  9 10  2  0  0  0
 10 11  1  0  0  0
 11 12  2  0  0  0
 11 13  1  0  0  0
 13 14  1  0  0  0
 14 15  1  0  0  0
 15 16  1  0  0  0
  6 17  1  0  0  0
 17 18  1  0  0  0
 18 19  1  0  0  0
 19 20  1  0  0  0
 20 21  2  0  0  0
 17  2  1  0  0  0
 20  2  1  0  0  0
 15  5  1  0  0  0
 15  9  1  0  0  0
M  END
> <minimizedAffinity>
-9.45784

> <CNNscore>
0.5563488603

> <CNNaffinity>
6.2835073471

> <CNN_VS>
3.4958221912

> <CNNaffinity_variance>
0.2492459118

$$$$
[H]C1=C2C([H])([H])C([H])([H])[C@@]3([H])[C@]4([H])C([H])([H])C([H])([H])C(=O)[C@@]4(C([H])([H])[H])C([H])([H])C([H])([H])[C@]3([H])[C@]2(C([H])([H])[H])C([H])([H])C([H])([H])C1=O


 21 24  0  0  0  0  0  0  0  0999 V2000
  -85.8546   28.3513   -0.3725 C   0  0  0  0  0  0  0  0  0  0  0  0
  -86.8008   29.1019    0.5289 C   0  0  0  0  0  0  0  0  0  0  0  0
  -88.1642   29.2057   -0.0404 C   0  0  0  0  0  0  0  0  0  0  0  0
  -88.1714   30.0984   -1.2473 C   0  0  0  0  0  0  0  0  0  0  0  0
  -87.6462   31.4929   -0.9194 C   0  0  0  0  0  0  0  0  0  0  0  0
  -86.2260   31.3264   -0.4401 C   0  0  0  0  0  0  0  0  0  0  0  0
  -85.5556   32.6326   -0.1238 C   0  0  0  0  0  0  0  0  0  0  0  0
  -85.6816   33.6744   -1.1695 C   0  0  0  0  0  0  0  0  0  0  0  0
  -86.7414   33.4356   -2.1712 C   0  0  0  0  0  0  0  0  0  0  0  0
  -86.7098   34.2038   -3.2632 C   0  0  0  0  0  0  0  0  0  0  0  0
  -87.7241   34.0225   -4.2922 C   0  0  0  0  0  0  0  0  0  0  0  0
  -88.0159   34.9735   -5.0315 O   0  0  0  0  0  0  0  0  0  0  0  0
  -88.3979   32.7190   -4.4531 C   0  0  0  0  0  0  0  0  0  0  0  0
  -87.9417   31.7251   -3.3938 C   0  0  0  0  0  0  0  0  0  0  0  0
  -87.8037   32.4397   -2.0552 C   0  0  0  0  0  0  0  0  0  0  0  0
  -89.1165   33.1960   -1.8469 C   0  0  0  0  0  0  0  0  0  0  0  0
  -86.3132   30.5216    0.7985 C   0  0  0  0  0  0  0  0  0  0  0  0
  -85.0980   30.3111    1.5861 C   0  0  0  0  0  0  0  0  0  0  0  0
  -85.4816   29.1322    2.4930 C   0  0  0  0  0  0  0  0  0  0  0  0
  -86.6967   28.5394    1.8738 C   0  0  0  0  0  0  0  0  0  0  0  0
  -87.4506   27.7446    2.3887 O   0  0  0  0  0  0  0  0  0  0  0  0
  2  1  1  0  0  0
  2  3  1  0  0  0
  3  4  1  0  0  0
  4  5  1  0  0  0
  5  6  1  0  0  0
  6  7  1  0  0  0
  7  8  1  0  0  0
  8  9  1  0  0  0
  9 10  2  0  0  0
 10 11  1  0  0  0
 11 12  2  0  0  0
 11 13  1  0  0  0
 13 14  1  0  0  0
 14 15  1  0  0  0
 15 16  1  0  0  0
  6 17  1  0  0  0
 17 18  1  0  0  0
 18 19  1  0  0  0
 19 20  1  0  0  0
 20 21  2  0  0  0
 17  2  1  0  0  0
 20  2  1  0  0  0
 15  5  1  0  0  0
 15  9  1  0  0  0
M  END
> <minimizedAffinity>
-8.56140

> <CNNscore>
0.4353033006

> <CNNaffinity>
6.0073542595

> <CNN_VS>
2.6150212288

> <CNNaffinity_variance>
0.1388898790

$$$$
[H]C1=C2C([H])([H])C([H])([H])[C@@]3([H])[C@]4([H])C([H])([H])C([H])([H])C(=O)[C@@]4(C([H])([H])[H])C([H])([H])C([H])([H])[C@]3([H])[C@]2(C([H])([H])[H])C([H])([H])C([H])([H])C1=O


 21 24  0  0  0  0  0  0  0  0999 V2000
  -84.7703   29.5310   -0.5373 C   0  0  0  0  0  0  0  0  0  0  0  0
  -85.5908   29.7926    0.6995 C   0  0  0  0  0  0  0  0  0  0  0  0
  -86.5766   28.7192    0.9637 C   0  0  0  0  0  0  0  0  0  0  0  0
  -87.6535   28.7153   -0.0823 C   0  0  0  0  0  0  0  0  0  0  0  0
  -88.3696   30.0603   -0.1583 C   0  0  0  0  0  0  0  0  0  0  0  0
  -87.3316   31.0909   -0.5260 C   0  0  0  0  0  0  0  0  0  0  0  0
  -87.9042   32.4699   -0.6871 C   0  0  0  0  0  0  0  0  0  0  0  0
  -89.1124   32.5544   -1.5401 C   0  0  0  0  0  0  0  0  0  0  0  0
  -89.7988   31.2693   -1.7879 C   0  0  0  0  0  0  0  0  0  0  0  0
  -90.7217   31.2660   -2.7533 C   0  0  0  0  0  0  0  0  0  0  0  0
  -91.4373   30.0334   -3.0514 C   0  0  0  0  0  0  0  0  0  0  0  0
  -92.5687   30.0943   -3.5534 O   0  0  0  0  0  0  0  0  0  0  0  0
  -90.8211   28.7243   -2.7585 C   0  0  0  0  0  0  0  0  0  0  0  0
  -89.4696   28.8884   -2.0768 C   0  0  0  0  0  0  0  0  0  0  0  0
  -89.5476   30.0251   -1.0652 C   0  0  0  0  0  0  0  0  0  0  0  0
  -90.7814   29.7389   -0.2080 C   0  0  0  0  0  0  0  0  0  0  0  0
  -86.3647   31.1025    0.5940 C   0  0  0  0  0  0  0  0  0  0  0  0
  -85.3073   32.1140    0.5982 C   0  0  0  0  0  0  0  0  0  0  0  0
  -84.3063   31.5538    1.6199 C   0  0  0  0  0  0  0  0  0  0  0  0
  -84.6797   30.1248    1.7929 C   0  0  0  0  0  0  0  0  0  0  0  0
  -84.2995   29.3842    2.6715 O   0  0  0  0  0  0  0  0  0  0  0  0
  2  1  1  0  0  0
  2  3  1  0  0  0
  3  4  1  0  0  0
  4  5  1  0  0  0
  5  6  1  0  0  0
  6  7  1  0  0  0
  7  8  1  0  0  0
  8  9  1  0  0  0
  9 10  2  0  0  0
 10 11  1  0  0  0
 11 12  2  0  0  0
 11 13  1  0  0  0
 13 14  1  0  0  0
 14 15  1  0  0  0
 15 16  1  0  0  0
  6 17  1  0  0  0
 17 18  1  0  0  0
 18 19  1  0  0  0
 19 20  1  0  0  0
 20 21  2  0  0  0
 17  2  1  0  0  0
 20  2  1  0  0  0
 15  5  1  0  0  0
 15  9  1  0  0  0
M  END
> <minimizedAffinity>
-7.46134

> <CNNscore>
0.3721051812

> <CNNaffinity>
5.8868827820

> <CNN_VS>
2.1905395985

> <CNNaffinity_variance>
0.5812517405

$$$$
[H]C1=C2C([H])([H])C([H])([H])[C@@]3([H])[C@]4([H])C([H])([H])C([H])([H])C(=O)[C@@]4(C([H])([H])[H])C([H])([H])C([H])([H])[C@]3([H])[C@]2(C([H])([H])[H])C([H])([H])C([H])([H])C1=O


 21 24  0  0  0  0  0  0  0  0999 V2000
  -87.0464   31.5382   -2.8482 C   0  0  0  0  0  0  0  0  0  0  0  0
  -87.6765   32.1074   -1.6030 C   0  0  0  0  0  0  0  0  0  0  0  0
  -86.6978   32.8131   -0.7439 C   0  0  0  0  0  0  0  0  0  0  0  0
  -85.7239   31.8443   -0.1384 C   0  0  0  0  0  0  0  0  0  0  0  0
  -86.4339   30.7658    0.6742 C   0  0  0  0  0  0  0  0  0  0  0  0
  -87.3387   30.0230   -0.2768 C   0  0  0  0  0  0  0  0  0  0  0  0
  -88.0736   28.8881    0.3771 C   0  0  0  0  0  0  0  0  0  0  0  0
  -87.2321   27.9761    1.1864 C   0  0  0  0  0  0  0  0  0  0  0  0
  -85.9023   28.5064    1.5531 C   0  0  0  0  0  0  0  0  0  0  0  0
  -85.0278   27.6258    2.0466 C   0  0  0  0  0  0  0  0  0  0  0  0
  -83.6979   28.0794    2.4287 C   0  0  0  0  0  0  0  0  0  0  0  0
  -83.0681   27.4535    3.2933 O   0  0  0  0  0  0  0  0  0  0  0  0
  -83.1059   29.2727    1.7926 C   0  0  0  0  0  0  0  0  0  0  0  0
  -84.0814   29.9245    0.8222 C   0  0  0  0  0  0  0  0  0  0  0  0
  -85.4828   29.8991    1.4197 C   0  0  0  0  0  0  0  0  0  0  0  0
  -85.3466   30.4713    2.8314 C   0  0  0  0  0  0  0  0  0  0  0  0
  -88.3237   31.0192   -0.7527 C   0  0  0  0  0  0  0  0  0  0  0  0
  -89.4359   30.5636   -1.5874 C   0  0  0  0  0  0  0  0  0  0  0  0
  -89.9516   31.8705   -2.2082 C   0  0  0  0  0  0  0  0  0  0  0  0
  -88.8649   32.8627   -1.9942 C   0  0  0  0  0  0  0  0  0  0  0  0
  -88.9529   34.0633   -2.1209 O   0  0  0  0  0  0  0  0  0  0  0  0
  2  1  1  0  0  0
  2  3  1  0  0  0
  3  4  1  0  0  0
  4  5  1  0  0  0
  5  6  1  0  0  0
  6  7  1  0  0  0
  7  8  1  0  0  0
  8  9  1  0  0  0
  9 10  2  0  0  0
 10 11  1  0  0  0
 11 12  2  0  0  0
 11 13  1  0  0  0
 13 14  1  0  0  0
 14 15  1  0  0  0
 15 16  1  0  0  0
  6 17  1  0  0  0
 17 18  1  0  0  0
 18 19  1  0  0  0
 19 20  1  0  0  0
 20 21  2  0  0  0
 17  2  1  0  0  0
 20  2  1  0  0  0
 15  5  1  0  0  0
 15  9  1  0  0  0
M  END
> <minimizedAffinity>
-9.39592

> <CNNscore>
0.3631619215

> <CNNaffinity>
6.2028899193

> <CNN_VS>
2.2526533604

> <CNNaffinity_variance>
0.2414342165

$$$$
[H]C1=C2C([H])([H])C([H])([H])[C@@]3([H])[C@]4([H])C([H])([H])C([H])([H])C(=O)[C@@]4(C([H])([H])[H])C([H])([H])C([H])([H])[C@]3([H])[C@]2(C([H])([H])[H])C([H])([H])C([H])([H])C1=O


 21 24  0  0  0  0  0  0  0  0999 V2000
  -84.7211   31.3180    2.7476 C   0  0  0  0  0  0  0  0  0  0  0  0
  -84.3525   30.4677    1.5591 C   0  0  0  0  0  0  0  0  0  0  0  0
  -83.7749   31.2623    0.4506 C   0  0  0  0  0  0  0  0  0  0  0  0
  -84.8143   32.1542   -0.1640 C   0  0  0  0  0  0  0  0  0  0  0  0
  -86.0100   31.3563   -0.6752 C   0  0  0  0  0  0  0  0  0  0  0  0
  -86.6097   30.6513    0.5156 C   0  0  0  0  0  0  0  0  0  0  0  0
  -87.8375   29.8576    0.1715 C   0  0  0  0  0  0  0  0  0  0  0  0
  -88.8528   30.5828   -0.6272 C   0  0  0  0  0  0  0  0  0  0  0  0
  -88.3708   31.8123   -1.2905 C   0  0  0  0  0  0  0  0  0  0  0  0
  -89.3071   32.6220   -1.7919 C   0  0  0  0  0  0  0  0  0  0  0  0
  -88.9034   33.8518   -2.4590 C   0  0  0  0  0  0  0  0  0  0  0  0
  -89.6464   34.3491   -3.3173 O   0  0  0  0  0  0  0  0  0  0  0  0
  -87.6221   34.4997   -2.1164 C   0  0  0  0  0  0  0  0  0  0  0  0
  -86.8409   33.6788   -1.0994 C   0  0  0  0  0  0  0  0  0  0  0  0
  -86.9699   32.1986   -1.4372 C   0  0  0  0  0  0  0  0  0  0  0  0
  -86.6160   32.0752   -2.9199 C   0  0  0  0  0  0  0  0  0  0  0  0
  -85.5628   29.7257    1.0019 C   0  0  0  0  0  0  0  0  0  0  0  0
  -85.8982   28.7865    2.0727 C   0  0  0  0  0  0  0  0  0  0  0  0
  -84.5177   28.3366    2.5739 C   0  0  0  0  0  0  0  0  0  0  0  0
  -83.5585   29.3360    2.0331 C   0  0  0  0  0  0  0  0  0  0  0  0
  -82.3535   29.2280    1.9952 O   0  0  0  0  0  0  0  0  0  0  0  0
  2  1  1  0  0  0
  2  3  1  0  0  0
  3  4  1  0  0  0
  4  5  1  0  0  0
  5  6  1  0  0  0
  6  7  1  0  0  0
  7  8  1  0  0  0
  8  9  1  0  0  0
  9 10  2  0  0  0
 10 11  1  0  0  0
 11 12  2  0  0  0
 11 13  1  0  0  0
 13 14  1  0  0  0
 14 15  1  0  0  0
 15 16  1  0  0  0
  6 17  1  0  0  0
 17 18  1  0  0  0
 18 19  1  0  0  0
 19 20  1  0  0  0
 20 21  2  0  0  0
 17  2  1  0  0  0
 20  2  1  0  0  0
 15  5  1  0  0  0
 15  9  1  0  0  0
M  END
> <minimizedAffinity>
-9.16578

> <CNNscore>
0.3561456501

> <CNNaffinity>
6.0041055679

> <CNN_VS>
2.1383361816

> <CNNaffinity_variance>
0.1357468069

$$$$
[H]C1=C2C([H])([H])C([H])([H])[C@@]3([H])[C@]4([H])C([H])([H])C([H])([H])C(=O)[C@@]4(C([H])([H])[H])C([H])([H])C([H])([H])[C@]3([H])[C@]2(C([H])([H])[H])C([H])([H])C([H])([H])C1=O


 21 24  0  0  0  0  0  0  0  0999 V2000
  -89.2255   33.2919   -1.7153 C   0  0  0  0  0  0  0  0  0  0  0  0
  -88.2357   32.6137   -2.6273 C   0  0  0  0  0  0  0  0  0  0  0  0
  -88.7262   31.3081   -3.1260 C   0  0  0  0  0  0  0  0  0  0  0  0
  -88.8012   30.3056   -2.0111 C   0  0  0  0  0  0  0  0  0  0  0  0
  -87.4486   30.1180   -1.3306 C   0  0  0  0  0  0  0  0  0  0  0  0
  -87.0535   31.4575   -0.7610 C   0  0  0  0  0  0  0  0  0  0  0  0
  -85.7528   31.4165   -0.0111 C   0  0  0  0  0  0  0  0  0  0  0  0
  -85.6316   30.3220    0.9799 C   0  0  0  0  0  0  0  0  0  0  0  0
  -86.6071   29.2227    0.8258 C   0  0  0  0  0  0  0  0  0  0  0  0
  -86.6991   28.3639    1.8445 C   0  0  0  0  0  0  0  0  0  0  0  0
  -87.6406   27.2562    1.7603 C   0  0  0  0  0  0  0  0  0  0  0  0
  -87.4228   26.2235    2.4100 O   0  0  0  0  0  0  0  0  0  0  0  0
  -88.8424   27.3624    0.9098 C   0  0  0  0  0  0  0  0  0  0  0  0
  -88.8669   28.6802    0.1476 C   0  0  0  0  0  0  0  0  0  0  0  0
  -87.4612   29.0093   -0.3397 C   0  0  0  0  0  0  0  0  0  0  0  0
  -86.9585   27.7510   -1.0488 C   0  0  0  0  0  0  0  0  0  0  0  0
  -86.9063   32.3597   -1.9245 C   0  0  0  0  0  0  0  0  0  0  0  0
  -86.3838   33.7088   -1.7051 C   0  0  0  0  0  0  0  0  0  0  0  0
  -86.7764   34.4388   -2.9983 C   0  0  0  0  0  0  0  0  0  0  0  0
  -87.8070   33.5785   -3.6378 C   0  0  0  0  0  0  0  0  0  0  0  0
  -88.2095   33.6650   -4.7761 O   0  0  0  0  0  0  0  0  0  0  0  0
  2  1  1  0  0  0
  2  3  1  0  0  0
  3  4  1  0  0  0
  4  5  1  0  0  0
  5  6  1  0  0  0
  6  7  1  0  0  0
  7  8  1  0  0  0
  8  9  1  0  0  0
  9 10  2  0  0  0
 10 11  1  0  0  0
 11 12  2  0  0  0
 11 13  1  0  0  0
 13 14  1  0  0  0
 14 15  1  0  0  0
 15 16  1  0  0  0
  6 17  1  0  0  0
 17 18  1  0  0  0
 18 19  1  0  0  0
 19 20  1  0  0  0
 20 21  2  0  0  0
 17  2  1  0  0  0
 20  2  1  0  0  0
 15  5  1  0  0  0
 15  9  1  0  0  0
M  END
> <minimizedAffinity>
-8.11506

> <CNNscore>
0.3090575933

> <CNNaffinity>
5.9712057114

> <CNN_VS>
1.8454464674

> <CNNaffinity_variance>
0.2595135570

$$$$
[H]C1=C2C([H])([H])C([H])([H])[C@@]3([H])[C@]4([H])C([H])([H])C([H])([H])C(=O)[C@@]4(C([H])([H])[H])C([H])([H])C([H])([H])[C@]3([H])[C@]2(C([H])([H])[H])C([H])([H])C([H])([H])C1=O


 21 24  0  0  0  0  0  0  0  0999 V2000
  -89.7391   31.7398   -1.5702 C   0  0  0  0  0  0  0  0  0  0  0  0
  -89.9203   30.3908   -2.2173 C   0  0  0  0  0  0  0  0  0  0  0  0
  -91.1857   29.7343   -1.8154 C   0  0  0  0  0  0  0  0  0  0  0  0
  -91.1449   29.3391   -0.3678 C   0  0  0  0  0  0  0  0  0  0  0  0
  -89.9703   28.4119   -0.0701 C   0  0  0  0  0  0  0  0  0  0  0  0
  -88.7128   29.1732   -0.4070 C   0  0  0  0  0  0  0  0  0  0  0  0
  -87.4603   28.3973   -0.1157 C   0  0  0  0  0  0  0  0  0  0  0  0
  -87.4028   27.7758    1.2279 C   0  0  0  0  0  0  0  0  0  0  0  0
  -88.6994   27.6723    1.9293 C   0  0  0  0  0  0  0  0  0  0  0  0
  -88.6485   27.3667    3.2284 C   0  0  0  0  0  0  0  0  0  0  0  0
  -89.8887   27.2487    3.9823 C   0  0  0  0  0  0  0  0  0  0  0  0
  -89.9201   26.5293    4.9909 O   0  0  0  0  0  0  0  0  0  0  0  0
  -91.0965   27.9788    3.5493 C   0  0  0  0  0  0  0  0  0  0  0  0
  -90.8512   28.7342    2.2503 C   0  0  0  0  0  0  0  0  0  0  0  0
  -90.0095   27.8741    1.3158 C   0  0  0  0  0  0  0  0  0  0  0  0
  -90.7025   26.5118    1.2627 C   0  0  0  0  0  0  0  0  0  0  0  0
  -88.7831   29.4391   -1.8609 C   0  0  0  0  0  0  0  0  0  0  0  0
  -87.6254   30.0434   -2.5210 C   0  0  0  0  0  0  0  0  0  0  0  0
  -88.2141   30.5407   -3.8498 C   0  0  0  0  0  0  0  0  0  0  0  0
  -89.6880   30.5356   -3.6529 C   0  0  0  0  0  0  0  0  0  0  0  0
  -90.5288   30.6329   -4.5182 O   0  0  0  0  0  0  0  0  0  0  0  0
  2  1  1  0  0  0
  2  3  1  0  0  0
  3  4  1  0  0  0
  4  5  1  0  0  0
  5  6  1  0  0  0
  6  7  1  0  0  0
  7  8  1  0  0  0
  8  9  1  0  0  0
  9 10  2  0  0  0
 10 11  1  0  0  0
 11 12  2  0  0  0
 11 13  1  0  0  0
 13 14  1  0  0  0
 14 15  1  0  0  0
 15 16  1  0  0  0
  6 17  1  0  0  0
 17 18  1  0  0  0
 18 19  1  0  0  0
 19 20  1  0  0  0
 20 21  2  0  0  0
 17  2  1  0  0  0
 20  2  1  0  0  0
 15  5  1  0  0  0
 15  9  1  0  0  0
M  END
> <minimizedAffinity>
-7.20527

> <CNNscore>
0.2899167538

> <CNNaffinity>
5.6502704620

> <CNN_VS>
1.6381080151

> <CNNaffinity_variance>
0.2596334219

$$$$
[H]c1sc(N2C([H])([H])C([H])([H])[C@@]([H])(N([H])C(=O)c3c([H])c([H])c(F)c([H])c3[H])C2([H])[H])nc1-c1c([H])c([H])c([H])c(Cl)c1[H]


 28 31  0  0  0  0  0  0  0  0999 V2000
  -88.9701   25.4407    0.1603 C   0  0  0  0  0  0  0  0  0  0  0  0
  -89.3989   25.8666    1.5469 C   0  0  0  0  0  0  0  0  0  0  0  0
  -88.0833   26.2632    2.1778 C   0  0  0  0  0  0  0  0  0  0  0  0
  -87.3989   26.9277    1.0901 N   0  0  0  0  0  0  0  0  0  0  0  0
  -88.0272   26.6111   -0.1762 C   0  0  0  0  0  0  0  0  0  0  0  0
  -86.2567   27.7762    1.2577 C   0  0  0  0  0  0  0  0  0  0  0  0
  -86.0096   28.9435    0.7001 N   0  0  0  0  0  0  0  0  0  0  0  0
  -84.9097   29.5750    0.9712 C   0  0  0  0  0  0  0  0  0  0  0  0
  -84.0406   28.9734    1.8493 C   0  0  0  0  0  0  0  0  0  0  0  0
  -84.8745   27.5296    2.2257 S   0  0  0  0  0  0  0  0  0  0  0  0
  -84.5949   30.8958    0.3585 C   0  0  0  0  0  0  0  0  0  0  0  0
  -83.3024   31.3706    0.2722 C   0  0  0  0  0  0  0  0  0  0  0  0
  -82.9689   32.5806   -0.2817 C   0  0  0  0  0  0  0  0  0  0  0  0
  -84.0249   33.3508   -0.7775 C   0  0  0  0  0  0  0  0  0  0  0  0
  -85.3273   32.9239   -0.7155 C   0  0  0  0  0  0  0  0  0  0  0  0
  -86.6540   33.8961   -1.3398 Cl  0  0  0  0  0  0  0  0  0  0  0  0
  -85.5912   31.6987   -0.1463 C   0  0  0  0  0  0  0  0  0  0  0  0
  -90.5015   24.3467   -1.5029 C   0  0  0  0  0  0  0  0  0  0  0  0
  -89.9368   23.2484   -1.2828 O   0  0  0  0  0  0  0  0  0  0  0  0
  -90.0538   25.4772   -0.8040 N   0  0  0  0  0  0  0  0  0  0  0  0
  -90.4912   26.4154   -0.9512 H   0  0  0  0  0  0  0  0  0  0  0  0
  -94.6986   24.4383   -5.2830 F   0  0  0  0  0  0  0  0  0  0  0  0
  -93.6836   24.4184   -4.3698 C   0  0  0  0  0  0  0  0  0  0  0  0
  -92.9958   25.5544   -4.0059 C   0  0  0  0  0  0  0  0  0  0  0  0
  -91.9742   25.5407   -3.0864 C   0  0  0  0  0  0  0  0  0  0  0  0
  -91.5945   24.3612   -2.4829 C   0  0  0  0  0  0  0  0  0  0  0  0
  -92.2651   23.2119   -2.8285 C   0  0  0  0  0  0  0  0  0  0  0  0
  -93.2826   23.2513   -3.7503 C   0  0  0  0  0  0  0  0  0  0  0  0
 22 23  1  0  0  0
 23 24  2  0  0  0
 24 25  1  0  0  0
 25 26  2  0  0  0
 26 27  1  0  0  0
 27 28  2  0  0  0
 26 18  1  0  0  0
 18 19  2  0  0  0
 18 20  1  0  0  0
 20  1  1  0  0  0
  1  2  1  0  0  0
  2  3  1  0  0  0
  3  4  1  0  0  0
  4  5  1  0  0  0
  4  6  1  0  0  0
  6  7  2  0  0  0
  7  8  1  0  0  0
  8  9  2  0  0  0
  9 10  1  0  0  0
  8 11  1  0  0  0
 11 12  2  0  0  0
 12 13  1  0  0  0
 13 14  2  0  0  0
 14 15  1  0  0  0
 15 16  1  0  0  0
 15 17  2  0  0  0
 28 23  1  0  0  0
  5  1  1  0  0  0
 10  6  1  0  0  0
 17 11  1  0  0  0
 20 21  1  0  0  0
M  END
> <minimizedAffinity>
-8.24228

> <CNNscore>
0.3798055947

> <CNNaffinity>
6.1920137405

> <CNN_VS>
2.3517615795

> <CNNaffinity_variance>
0.1089717597

$$$$
[H]c1sc(N2C([H])([H])C([H])([H])[C@@]([H])(N([H])C(=O)c3c([H])c([H])c(F)c([H])c3[H])C2([H])[H])nc1-c1c([H])c([H])c([H])c(Cl)c1[H]


 28 31  0  0  0  0  0  0  0  0999 V2000
  -88.9399   35.2555   -3.6821 C   0  0  0  0  0  0  0  0  0  0  0  0
  -87.4877   35.1765   -4.0975 C   0  0  0  0  0  0  0  0  0  0  0  0
  -86.8446   34.5451   -2.8835 C   0  0  0  0  0  0  0  0  0  0  0  0
  -87.8280   33.5640   -2.4792 N   0  0  0  0  0  0  0  0  0  0  0  0
  -89.1072   33.8390   -3.1009 C   0  0  0  0  0  0  0  0  0  0  0  0
  -87.5594   32.4779   -1.5843 C   0  0  0  0  0  0  0  0  0  0  0  0
  -86.4219   32.1482   -1.0081 N   0  0  0  0  0  0  0  0  0  0  0  0
  -86.3652   31.1197   -0.2200 C   0  0  0  0  0  0  0  0  0  0  0  0
  -87.5276   30.4131   -0.0255 C   0  0  0  0  0  0  0  0  0  0  0  0
  -88.6289   31.2857   -0.9987 S   0  0  0  0  0  0  0  0  0  0  0  0
  -85.0965   30.7152    0.4476 C   0  0  0  0  0  0  0  0  0  0  0  0
  -83.9548   31.4863    0.3731 C   0  0  0  0  0  0  0  0  0  0  0  0
  -82.7663   31.1504    0.9705 C   0  0  0  0  0  0  0  0  0  0  0  0
  -82.7471   29.9509    1.6882 C   0  0  0  0  0  0  0  0  0  0  0  0
  -83.8552   29.1487    1.7922 C   0  0  0  0  0  0  0  0  0  0  0  0
  -83.8273   27.6392    2.6956 Cl  0  0  0  0  0  0  0  0  0  0  0  0
  -85.0157   29.5460    1.1677 C   0  0  0  0  0  0  0  0  0  0  0  0
  -91.0324   36.1104   -4.7771 C   0  0  0  0  0  0  0  0  0  0  0  0
  -91.3233   36.7190   -3.7195 O   0  0  0  0  0  0  0  0  0  0  0  0
  -89.8468   35.3619   -4.8099 N   0  0  0  0  0  0  0  0  0  0  0  0
  -89.5593   34.8368   -5.6671 H   0  0  0  0  0  0  0  0  0  0  0  0
  -94.6368   36.6004   -9.0992 F   0  0  0  0  0  0  0  0  0  0  0  0
  -93.7669   36.4835   -8.0533 C   0  0  0  0  0  0  0  0  0  0  0  0
  -93.9910   37.0866   -6.8359 C   0  0  0  0  0  0  0  0  0  0  0  0
  -93.1196   36.9715   -5.7792 C   0  0  0  0  0  0  0  0  0  0  0  0
  -91.9642   36.2307   -5.9052 C   0  0  0  0  0  0  0  0  0  0  0  0
  -91.7161   35.6180   -7.1106 C   0  0  0  0  0  0  0  0  0  0  0  0
  -92.6023   35.7480   -8.1519 C   0  0  0  0  0  0  0  0  0  0  0  0
 22 23  1  0  0  0
 23 24  2  0  0  0
 24 25  1  0  0  0
 25 26  2  0  0  0
 26 27  1  0  0  0
 27 28  2  0  0  0
 26 18  1  0  0  0
 18 19  2  0  0  0
 18 20  1  0  0  0
 20  1  1  0  0  0
  1  2  1  0  0  0
  2  3  1  0  0  0
  3  4  1  0  0  0
  4  5  1  0  0  0
  4  6  1  0  0  0
  6  7  2  0  0  0
  7  8  1  0  0  0
  8  9  2  0  0  0
  9 10  1  0  0  0
  8 11  1  0  0  0
 11 12  2  0  0  0
 12 13  1  0  0  0
 13 14  2  0  0  0
 14 15  1  0  0  0
 15 16  1  0  0  0
 15 17  2  0  0  0
 28 23  1  0  0  0
  5  1  1  0  0  0
 10  6  1  0  0  0
 17 11  1  0  0  0
 20 21  1  0  0  0
M  END
> <minimizedAffinity>
-7.33438

> <CNNscore>
0.2366422266

> <CNNaffinity>
5.6683244705

> <CNN_VS>
1.3413649797

> <CNNaffinity_variance>
0.1808843762

$$$$
[H]c1sc(N2C([H])([H])C([H])([H])[C@@]([H])(N([H])C(=O)c3c([H])c([H])c(F)c([H])c3[H])C2([H])[H])nc1-c1c([H])c([H])c([H])c(Cl)c1[H]


 28 31  0  0  0  0  0  0  0  0999 V2000
  -91.2916   27.1983   -0.5303 C   0  0  0  0  0  0  0  0  0  0  0  0
  -91.3953   28.6365   -0.0735 C   0  0  0  0  0  0  0  0  0  0  0  0
  -90.3218   28.7101    0.9886 C   0  0  0  0  0  0  0  0  0  0  0  0
  -89.2582   27.9120    0.4187 N   0  0  0  0  0  0  0  0  0  0  0  0
  -89.7610   27.0926   -0.6650 C   0  0  0  0  0  0  0  0  0  0  0  0
  -87.9006   27.9370    0.8759 C   0  0  0  0  0  0  0  0  0  0  0  0
  -86.9893   28.8711    0.6980 N   0  0  0  0  0  0  0  0  0  0  0  0
  -85.7981   28.7206    1.1882 C   0  0  0  0  0  0  0  0  0  0  0  0
  -85.5477   27.5628    1.8849 C   0  0  0  0  0  0  0  0  0  0  0  0
  -87.0566   26.7662    1.7841 S   0  0  0  0  0  0  0  0  0  0  0  0
  -84.7411   29.7541    1.0058 C   0  0  0  0  0  0  0  0  0  0  0  0
  -83.4708   29.5976    1.5211 C   0  0  0  0  0  0  0  0  0  0  0  0
  -82.4693   30.5243    1.3783 C   0  0  0  0  0  0  0  0  0  0  0  0
  -82.7896   31.6821    0.6634 C   0  0  0  0  0  0  0  0  0  0  0  0
  -84.0376   31.8857    0.1314 C   0  0  0  0  0  0  0  0  0  0  0  0
  -84.4375   33.3445   -0.7671 Cl  0  0  0  0  0  0  0  0  0  0  0  0
  -84.9961   30.9143    0.3123 C   0  0  0  0  0  0  0  0  0  0  0  0
  -92.5217   25.8073   -2.2214 C   0  0  0  0  0  0  0  0  0  0  0  0
  -92.6456   24.8980   -1.3661 O   0  0  0  0  0  0  0  0  0  0  0  0
  -91.8505   26.9820   -1.8518 N   0  0  0  0  0  0  0  0  0  0  0  0
  -91.7210   27.7692   -2.5275 H   0  0  0  0  0  0  0  0  0  0  0  0
  -94.7428   24.8546   -7.3275 F   0  0  0  0  0  0  0  0  0  0  0  0
  -94.2071   25.0830   -6.0925 C   0  0  0  0  0  0  0  0  0  0  0  0
  -94.3906   24.2181   -5.0369 C   0  0  0  0  0  0  0  0  0  0  0  0
  -93.8529   24.4422   -3.7919 C   0  0  0  0  0  0  0  0  0  0  0  0
  -93.0936   25.5671   -3.5520 C   0  0  0  0  0  0  0  0  0  0  0  0
  -92.8949   26.4474   -4.5891 C   0  0  0  0  0  0  0  0  0  0  0  0
  -93.4429   26.2014   -5.8244 C   0  0  0  0  0  0  0  0  0  0  0  0
 22 23  1  0  0  0
 23 24  2  0  0  0
 24 25  1  0  0  0
 25 26  2  0  0  0
 26 27  1  0  0  0
 27 28  2  0  0  0
 26 18  1  0  0  0
 18 19  2  0  0  0
 18 20  1  0  0  0
 20  1  1  0  0  0
  1  2  1  0  0  0
  2  3  1  0  0  0
  3  4  1  0  0  0
  4  5  1  0  0  0
  4  6  1  0  0  0
  6  7  2  0  0  0
  7  8  1  0  0  0
  8  9  2  0  0  0
  9 10  1  0  0  0
  8 11  1  0  0  0
 11 12  2  0  0  0
 12 13  1  0  0  0
 13 14  2  0  0  0
 14 15  1  0  0  0
 15 16  1  0  0  0
 15 17  2  0  0  0
 28 23  1  0  0  0
  5  1  1  0  0  0
 10  6  1  0  0  0
 17 11  1  0  0  0
 20 21  1  0  0  0
M  END
> <minimizedAffinity>
-8.25550

> <CNNscore>
0.2292594761

> <CNNaffinity>
5.4893293381

> <CNN_VS>
1.2584807873

> <CNNaffinity_variance>
0.2295592278

$$$$
[H]c1sc(N2C([H])([H])C([H])([H])[C@@]([H])(N([H])C(=O)c3c([H])c([H])c(F)c([H])c3[H])C2([H])[H])nc1-c1c([H])c([H])c([H])c(Cl)c1[H]


 28 31  0  0  0  0  0  0  0  0999 V2000
  -91.0939   28.9010   -2.1812 C   0  0  0  0  0  0  0  0  0  0  0  0
  -91.0362   29.8144   -3.3854 C   0  0  0  0  0  0  0  0  0  0  0  0
  -90.3703   31.0470   -2.8167 C   0  0  0  0  0  0  0  0  0  0  0  0
  -89.3713   30.4870   -1.9326 N   0  0  0  0  0  0  0  0  0  0  0  0
  -89.6588   29.0943   -1.6566 C   0  0  0  0  0  0  0  0  0  0  0  0
  -88.2589   31.2220   -1.4082 C   0  0  0  0  0  0  0  0  0  0  0  0
  -87.1725   30.7634   -0.8216 N   0  0  0  0  0  0  0  0  0  0  0  0
  -86.2612   31.5863   -0.4039 C   0  0  0  0  0  0  0  0  0  0  0  0
  -86.4873   32.9271   -0.6030 C   0  0  0  0  0  0  0  0  0  0  0  0
  -88.0080   32.9085   -1.3833 S   0  0  0  0  0  0  0  0  0  0  0  0
  -85.0206   31.1050    0.2656 C   0  0  0  0  0  0  0  0  0  0  0  0
  -83.8219   31.7786    0.1519 C   0  0  0  0  0  0  0  0  0  0  0  0
  -82.6566   31.3697    0.7496 C   0  0  0  0  0  0  0  0  0  0  0  0
  -82.7245   30.1987    1.5102 C   0  0  0  0  0  0  0  0  0  0  0  0
  -83.8918   29.4924    1.6541 C   0  0  0  0  0  0  0  0  0  0  0  0
  -83.9734   28.0186    2.6115 Cl  0  0  0  0  0  0  0  0  0  0  0  0
  -85.0246   29.9594    1.0268 C   0  0  0  0  0  0  0  0  0  0  0  0
  -92.4563   26.8189   -2.5236 C   0  0  0  0  0  0  0  0  0  0  0  0
  -93.4858   27.4510   -2.1856 O   0  0  0  0  0  0  0  0  0  0  0  0
  -91.2310   27.5012   -2.5381 N   0  0  0  0  0  0  0  0  0  0  0  0
  -90.3443   27.0198   -2.8125 H   0  0  0  0  0  0  0  0  0  0  0  0
  -93.1028   21.3831   -3.9190 F   0  0  0  0  0  0  0  0  0  0  0  0
  -92.9482   22.6976   -3.5832 C   0  0  0  0  0  0  0  0  0  0  0  0
  -93.8028   23.6795   -4.0322 C   0  0  0  0  0  0  0  0  0  0  0  0
  -93.6530   25.0039   -3.6965 C   0  0  0  0  0  0  0  0  0  0  0  0
  -92.6175   25.4038   -2.8796 C   0  0  0  0  0  0  0  0  0  0  0  0
  -91.7494   24.4432   -2.4173 C   0  0  0  0  0  0  0  0  0  0  0  0
  -91.9201   23.1259   -2.7669 C   0  0  0  0  0  0  0  0  0  0  0  0
 22 23  1  0  0  0
 23 24  2  0  0  0
 24 25  1  0  0  0
 25 26  2  0  0  0
 26 27  1  0  0  0
 27 28  2  0  0  0
 26 18  1  0  0  0
 18 19  2  0  0  0
 18 20  1  0  0  0
 20  1  1  0  0  0
  1  2  1  0  0  0
  2  3  1  0  0  0
  3  4  1  0  0  0
  4  5  1  0  0  0
  4  6  1  0  0  0
  6  7  2  0  0  0
  7  8  1  0  0  0
  8  9  2  0  0  0
  9 10  1  0  0  0
  8 11  1  0  0  0
 11 12  2  0  0  0
 12 13  1  0  0  0
 13 14  2  0  0  0
 14 15  1  0  0  0
 15 16  1  0  0  0
 15 17  2  0  0  0
 28 23  1  0  0  0
  5  1  1  0  0  0
 10  6  1  0  0  0
 17 11  1  0  0  0
 20 21  1  0  0  0
M  END
> <minimizedAffinity>
-8.14237

> <CNNscore>
0.1936085671

> <CNNaffinity>
5.5275516510

> <CNN_VS>
1.0701813698

> <CNNaffinity_variance>
0.2395130843

$$$$
[H]c1sc(N2C([H])([H])C([H])([H])[C@@]([H])(N([H])C(=O)c3c([H])c([H])c(F)c([H])c3[H])C2([H])[H])nc1-c1c([H])c([H])c([H])c(Cl)c1[H]


 28 31  0  0  0  0  0  0  0  0999 V2000
  -90.3340   25.8841    2.0273 C   0  0  0  0  0  0  0  0  0  0  0  0
  -90.9112   25.6684    0.6460 C   0  0  0  0  0  0  0  0  0  0  0  0
  -91.0294   27.0836    0.1271 C   0  0  0  0  0  0  0  0  0  0  0  0
  -89.8210   27.7045    0.6245 N   0  0  0  0  0  0  0  0  0  0  0  0
  -89.2326   26.9023    1.6776 C   0  0  0  0  0  0  0  0  0  0  0  0
  -89.2934   28.9434    0.1353 C   0  0  0  0  0  0  0  0  0  0  0  0
  -88.0767   29.4298    0.2689 N   0  0  0  0  0  0  0  0  0  0  0  0
  -87.7759   30.5819   -0.2451 C   0  0  0  0  0  0  0  0  0  0  0  0
  -88.7715   31.2479   -0.9188 C   0  0  0  0  0  0  0  0  0  0  0  0
  -90.0807   30.1602   -0.7633 S   0  0  0  0  0  0  0  0  0  0  0  0
  -86.4116   31.1650   -0.1128 C   0  0  0  0  0  0  0  0  0  0  0  0
  -86.0956   32.4060   -0.6261 C   0  0  0  0  0  0  0  0  0  0  0  0
  -84.8527   32.9788   -0.5284 C   0  0  0  0  0  0  0  0  0  0  0  0
  -83.8742   32.2338    0.1361 C   0  0  0  0  0  0  0  0  0  0  0  0
  -84.1377   30.9952    0.6640 C   0  0  0  0  0  0  0  0  0  0  0  0
  -82.9035   30.0600    1.4991 Cl  0  0  0  0  0  0  0  0  0  0  0  0
  -85.4070   30.4797    0.5300 C   0  0  0  0  0  0  0  0  0  0  0  0
  -90.3179   23.7514    3.3537 C   0  0  0  0  0  0  0  0  0  0  0  0
  -91.5302   23.9250    3.6256 O   0  0  0  0  0  0  0  0  0  0  0  0
  -89.6715   24.7058    2.5547 N   0  0  0  0  0  0  0  0  0  0  0  0
  -88.6624   24.6071    2.2996 H   0  0  0  0  0  0  0  0  0  0  0  0
  -87.8273   19.1214    5.4209 F   0  0  0  0  0  0  0  0  0  0  0  0
  -88.4303   20.2392    4.9195 C   0  0  0  0  0  0  0  0  0  0  0  0
  -89.3383   20.1873    3.8857 C   0  0  0  0  0  0  0  0  0  0  0  0
  -89.9493   21.3089    3.3777 C   0  0  0  0  0  0  0  0  0  0  0  0
  -89.6671   22.5534    3.8984 C   0  0  0  0  0  0  0  0  0  0  0  0
  -88.7637   22.6334    4.9315 C   0  0  0  0  0  0  0  0  0  0  0  0
  -88.1661   21.4981    5.4219 C   0  0  0  0  0  0  0  0  0  0  0  0
 22 23  1  0  0  0
 23 24  2  0  0  0
 24 25  1  0  0  0
 25 26  2  0  0  0
 26 27  1  0  0  0
 27 28  2  0  0  0
 26 18  1  0  0  0
 18 19  2  0  0  0
 18 20  1  0  0  0
 20  1  1  0  0  0
  1  2  1  0  0  0
  2  3  1  0  0  0
  3  4  1  0  0  0
  4  5  1  0  0  0
  4  6  1  0  0  0
  6  7  2  0  0  0
  7  8  1  0  0  0
  8  9  2  0  0  0
  9 10  1  0  0  0
  8 11  1  0  0  0
 11 12  2  0  0  0
 12 13  1  0  0  0
 13 14  2  0  0  0
 14 15  1  0  0  0
 15 16  1  0  0  0
 15 17  2  0  0  0
 28 23  1  0  0  0
  5  1  1  0  0  0
 10  6  1  0  0  0
 17 11  1  0  0  0
 20 21  1  0  0  0
M  END
> <minimizedAffinity>
-9.43414

> <CNNscore>
0.1795313209

> <CNNaffinity>
5.7955379486

> <CNN_VS>
1.0404806137

> <CNNaffinity_variance>
0.3100956976

$$$$
[H]c1sc(N2C([H])([H])C([H])([H])[C@@]([H])(N([H])C(=O)c3c([H])c([H])c(F)c([H])c3[H])C2([H])[H])nc1-c1c([H])c([H])c([H])c(Cl)c1[H]


 28 31  0  0  0  0  0  0  0  0999 V2000
  -87.0219   33.5890   -1.9008 C   0  0  0  0  0  0  0  0  0  0  0  0
  -85.8015   33.1064   -1.1489 C   0  0  0  0  0  0  0  0  0  0  0  0
  -86.3394   31.9009   -0.4117 C   0  0  0  0  0  0  0  0  0  0  0  0
  -87.2189   31.2989   -1.3900 N   0  0  0  0  0  0  0  0  0  0  0  0
  -87.5229   32.2396   -2.4488 C   0  0  0  0  0  0  0  0  0  0  0  0
  -87.7150   29.9573   -1.3076 C   0  0  0  0  0  0  0  0  0  0  0  0
  -88.2000   29.3220   -0.2608 N   0  0  0  0  0  0  0  0  0  0  0  0
  -88.6049   28.0950   -0.3737 C   0  0  0  0  0  0  0  0  0  0  0  0
  -88.5022   27.5117   -1.6137 C   0  0  0  0  0  0  0  0  0  0  0  0
  -87.8244   28.7805   -2.5369 S   0  0  0  0  0  0  0  0  0  0  0  0
  -89.1572   27.3439    0.7880 C   0  0  0  0  0  0  0  0  0  0  0  0
  -89.5013   26.0108    0.6980 C   0  0  0  0  0  0  0  0  0  0  0  0
  -90.0144   25.2825    1.7413 C   0  0  0  0  0  0  0  0  0  0  0  0
  -90.1850   25.9624    2.9508 C   0  0  0  0  0  0  0  0  0  0  0  0
  -89.8586   27.2874    3.0919 C   0  0  0  0  0  0  0  0  0  0  0  0
  -90.0754   28.1402    4.6154 Cl  0  0  0  0  0  0  0  0  0  0  0  0
  -89.3482   27.9584    2.0037 C   0  0  0  0  0  0  0  0  0  0  0  0
  -87.5942   35.3135   -3.6349 C   0  0  0  0  0  0  0  0  0  0  0  0
  -88.7459   35.4056   -3.1463 O   0  0  0  0  0  0  0  0  0  0  0  0
  -86.6911   34.4164   -3.0462 N   0  0  0  0  0  0  0  0  0  0  0  0
  -85.7196   34.3026   -3.4155 H   0  0  0  0  0  0  0  0  0  0  0  0
  -86.3633   38.5835   -8.0739 F   0  0  0  0  0  0  0  0  0  0  0  0
  -86.6592   37.7943   -6.9997 C   0  0  0  0  0  0  0  0  0  0  0  0
  -86.1592   38.0430   -5.7411 C   0  0  0  0  0  0  0  0  0  0  0  0
  -86.4546   37.2528   -4.6558 C   0  0  0  0  0  0  0  0  0  0  0  0
  -87.2812   36.1586   -4.7938 C   0  0  0  0  0  0  0  0  0  0  0  0
  -87.7941   35.8877   -6.0402 C   0  0  0  0  0  0  0  0  0  0  0  0
  -87.4841   36.6922   -7.1094 C   0  0  0  0  0  0  0  0  0  0  0  0
 22 23  1  0  0  0
 23 24  2  0  0  0
 24 25  1  0  0  0
 25 26  2  0  0  0
 26 27  1  0  0  0
 27 28  2  0  0  0
 26 18  1  0  0  0
 18 19  2  0  0  0
 18 20  1  0  0  0
 20  1  1  0  0  0
  1  2  1  0  0  0
  2  3  1  0  0  0
  3  4  1  0  0  0
  4  5  1  0  0  0
  4  6  1  0  0  0
  6  7  2  0  0  0
  7  8  1  0  0  0
  8  9  2  0  0  0
  9 10  1  0  0  0
  8 11  1  0  0  0
 11 12  2  0  0  0
 12 13  1  0  0  0
 13 14  2  0  0  0
 14 15  1  0  0  0
 15 16  1  0  0  0
 15 17  2  0  0  0
 28 23  1  0  0  0
  5  1  1  0  0  0
 10  6  1  0  0  0
 17 11  1  0  0  0
 20 21  1  0  0  0
M  END
> <minimizedAffinity>
-7.67679

> <CNNscore>
0.1403740048

> <CNNaffinity>
5.5839805603

> <CNN_VS>
0.7838457227

> <CNNaffinity_variance>
0.2527392507

$$$$
[H]c1sc(N2C([H])([H])C([H])([H])[C@@]([H])(N([H])C(=O)c3c([H])c([H])c(F)c([H])c3[H])C2([H])[H])nc1-c1c([H])c([H])c([H])c(Cl)c1[H]


 28 31  0  0  0  0  0  0  0  0999 V2000
  -90.8490   27.4807    0.8599 C   0  0  0  0  0  0  0  0  0  0  0  0
  -91.4921   27.9417   -0.4292 C   0  0  0  0  0  0  0  0  0  0  0  0
  -91.0320   29.3793   -0.5166 C   0  0  0  0  0  0  0  0  0  0  0  0
  -89.6654   29.3028   -0.0478 N   0  0  0  0  0  0  0  0  0  0  0  0
  -89.4350   28.0532    0.6480 C   0  0  0  0  0  0  0  0  0  0  0  0
  -88.6876   30.3304   -0.2488 C   0  0  0  0  0  0  0  0  0  0  0  0
  -87.4056   30.3171    0.0530 N   0  0  0  0  0  0  0  0  0  0  0  0
  -86.6654   31.3507   -0.2034 C   0  0  0  0  0  0  0  0  0  0  0  0
  -87.2779   32.4309   -0.7921 C   0  0  0  0  0  0  0  0  0  0  0  0
  -88.8890   31.8782   -0.9358 S   0  0  0  0  0  0  0  0  0  0  0  0
  -85.2128   31.3731    0.1254 C   0  0  0  0  0  0  0  0  0  0  0  0
  -84.3881   32.4012   -0.2826 C   0  0  0  0  0  0  0  0  0  0  0  0
  -83.0461   32.4602   -0.0037 C   0  0  0  0  0  0  0  0  0  0  0  0
  -82.5173   31.4005    0.7390 C   0  0  0  0  0  0  0  0  0  0  0  0
  -83.2948   30.3547    1.1681 C   0  0  0  0  0  0  0  0  0  0  0  0
  -82.6258   29.0222    2.1019 Cl  0  0  0  0  0  0  0  0  0  0  0  0
  -84.6347   30.3588    0.8527 C   0  0  0  0  0  0  0  0  0  0  0  0
  -90.6599   25.3375    2.1557 C   0  0  0  0  0  0  0  0  0  0  0  0
  -90.7295   25.9911    3.2242 O   0  0  0  0  0  0  0  0  0  0  0  0
  -90.7155   26.0381    0.9420 N   0  0  0  0  0  0  0  0  0  0  0  0
  -90.6618   25.5401    0.0243 H   0  0  0  0  0  0  0  0  0  0  0  0
  -90.1339   19.7251    2.5265 F   0  0  0  0  0  0  0  0  0  0  0  0
  -90.2609   21.0815    2.4346 C   0  0  0  0  0  0  0  0  0  0  0  0
  -90.4361   21.7265    1.2307 C   0  0  0  0  0  0  0  0  0  0  0  0
  -90.5658   23.0913    1.1321 C   0  0  0  0  0  0  0  0  0  0  0  0
  -90.5240   23.8796    2.2619 C   0  0  0  0  0  0  0  0  0  0  0  0
  -90.3500   23.2607    3.4771 C   0  0  0  0  0  0  0  0  0  0  0  0
  -90.2226   21.8950    3.5498 C   0  0  0  0  0  0  0  0  0  0  0  0
 22 23  1  0  0  0
 23 24  2  0  0  0
 24 25  1  0  0  0
 25 26  2  0  0  0
 26 27  1  0  0  0
 27 28  2  0  0  0
 26 18  1  0  0  0
 18 19  2  0  0  0
 18 20  1  0  0  0
 20  1  1  0  0  0
  1  2  1  0  0  0
  2  3  1  0  0  0
  3  4  1  0  0  0
  4  5  1  0  0  0
  4  6  1  0  0  0
  6  7  2  0  0  0
  7  8  1  0  0  0
  8  9  2  0  0  0
  9 10  1  0  0  0
  8 11  1  0  0  0
 11 12  2  0  0  0
 12 13  1  0  0  0
 13 14  2  0  0  0
 14 15  1  0  0  0
 15 16  1  0  0  0
 15 17  2  0  0  0
 28 23  1  0  0  0
  5  1  1  0  0  0
 10  6  1  0  0  0
 17 11  1  0  0  0
 20 21  1  0  0  0
M  END
> <minimizedAffinity>
-8.92266

> <CNNscore>
0.1257267743

> <CNNaffinity>
5.7268996239

> <CNN_VS>
0.7200246453

> <CNNaffinity_variance>
0.3016834855

$$$$
[H]c1sc(N2C([H])([H])C([H])([H])[C@@]([H])(N([H])C(=O)c3c([H])c([H])c(F)c([H])c3[H])C2([H])[H])nc1-c1c([H])c([H])c([H])c(Cl)c1[H]


 28 31  0  0  0  0  0  0  0  0999 V2000
  -89.3409   24.9916    0.9737 C   0  0  0  0  0  0  0  0  0  0  0  0
  -89.8045   25.7075    2.2228 C   0  0  0  0  0  0  0  0  0  0  0  0
  -88.5594   26.4576    2.6389 C   0  0  0  0  0  0  0  0  0  0  0  0
  -88.0177   26.8983    1.3718 N   0  0  0  0  0  0  0  0  0  0  0  0
  -88.6119   26.1567    0.2784 C   0  0  0  0  0  0  0  0  0  0  0  0
  -87.0282   27.9252    1.2338 C   0  0  0  0  0  0  0  0  0  0  0  0
  -87.1390   29.1021    0.6531 N   0  0  0  0  0  0  0  0  0  0  0  0
  -86.1255   29.9108    0.6219 C   0  0  0  0  0  0  0  0  0  0  0  0
  -84.9616   29.4817    1.2131 C   0  0  0  0  0  0  0  0  0  0  0  0
  -85.4116   27.9320    1.7765 S   0  0  0  0  0  0  0  0  0  0  0  0
  -86.2124   31.2486   -0.0274 C   0  0  0  0  0  0  0  0  0  0  0  0
  -85.1413   32.1178   -0.0537 C   0  0  0  0  0  0  0  0  0  0  0  0
  -85.1788   33.3584   -0.6383 C   0  0  0  0  0  0  0  0  0  0  0  0
  -86.3883   33.7306   -1.2324 C   0  0  0  0  0  0  0  0  0  0  0  0
  -87.4825   32.9029   -1.2330 C   0  0  0  0  0  0  0  0  0  0  0  0
  -89.0034   33.3748   -1.9808 Cl  0  0  0  0  0  0  0  0  0  0  0  0
  -87.3755   31.6710   -0.6281 C   0  0  0  0  0  0  0  0  0  0  0  0
  -90.5388   23.3260   -0.4750 C   0  0  0  0  0  0  0  0  0  0  0  0
  -89.6387   22.4862   -0.2336 O   0  0  0  0  0  0  0  0  0  0  0  0
  -90.4361   24.5979    0.1070 N   0  0  0  0  0  0  0  0  0  0  0  0
  -91.1599   25.3330   -0.0627 H   0  0  0  0  0  0  0  0  0  0  0  0
  -94.7825   21.7012   -3.8312 F   0  0  0  0  0  0  0  0  0  0  0  0
  -93.7579   22.0930   -3.0181 C   0  0  0  0  0  0  0  0  0  0  0  0
  -93.6924   21.7370   -1.6896 C   0  0  0  0  0  0  0  0  0  0  0  0
  -92.6630   22.1274   -0.8667 C   0  0  0  0  0  0  0  0  0  0  0  0
  -91.6367   22.9070   -1.3550 C   0  0  0  0  0  0  0  0  0  0  0  0
  -91.6778   23.2767   -2.6785 C   0  0  0  0  0  0  0  0  0  0  0  0
  -92.7174   22.8741   -3.4808 C   0  0  0  0  0  0  0  0  0  0  0  0
 22 23  1  0  0  0
 23 24  2  0  0  0
 24 25  1  0  0  0
 25 26  2  0  0  0
 26 27  1  0  0  0
 27 28  2  0  0  0
 26 18  1  0  0  0
 18 19  2  0  0  0
 18 20  1  0  0  0
 20  1  1  0  0  0
  1  2  1  0  0  0
  2  3  1  0  0  0
  3  4  1  0  0  0
  4  5  1  0  0  0
  4  6  1  0  0  0
  6  7  2  0  0  0
  7  8  1  0  0  0
  8  9  2  0  0  0
  9 10  1  0  0  0
  8 11  1  0  0  0
 11 12  2  0  0  0
 12 13  1  0  0  0
 13 14  2  0  0  0
 14 15  1  0  0  0
 15 16  1  0  0  0
 15 17  2  0  0  0
 28 23  1  0  0  0
  5  1  1  0  0  0
 10  6  1  0  0  0
 17 11  1  0  0  0
 20 21  1  0  0  0
M  END
> <minimizedAffinity>
-7.61527

> <CNNscore>
0.1254036278

> <CNNaffinity>
5.7966465950

> <CNN_VS>
0.7269204855

> <CNNaffinity_variance>
0.3589575887

$$$$
[H]c1sc(N2C([H])([H])C([H])([H])[C@@]([H])(N([H])C(=O)c3c([H])c([H])c(F)c([H])c3[H])C2([H])[H])nc1-c1c([H])c([H])c([H])c(Cl)c1[H]


 28 31  0  0  0  0  0  0  0  0999 V2000
  -87.1747   33.7117   -2.1524 C   0  0  0  0  0  0  0  0  0  0  0  0
  -86.0261   33.3607   -1.2330 C   0  0  0  0  0  0  0  0  0  0  0  0
  -86.5451   32.1240   -0.5351 C   0  0  0  0  0  0  0  0  0  0  0  0
  -87.2285   31.4232   -1.6004 N   0  0  0  0  0  0  0  0  0  0  0  0
  -87.4736   32.3109   -2.7187 C   0  0  0  0  0  0  0  0  0  0  0  0
  -87.6069   30.0426   -1.5416 C   0  0  0  0  0  0  0  0  0  0  0  0
  -88.6973   29.4676   -2.0053 N   0  0  0  0  0  0  0  0  0  0  0  0
  -88.8734   28.1911   -1.8579 C   0  0  0  0  0  0  0  0  0  0  0  0
  -87.8846   27.4919   -1.2084 C   0  0  0  0  0  0  0  0  0  0  0  0
  -86.7624   28.7311   -0.8526 S   0  0  0  0  0  0  0  0  0  0  0  0
  -90.0943   27.5063   -2.3671 C   0  0  0  0  0  0  0  0  0  0  0  0
  -91.1165   28.1992   -2.9824 C   0  0  0  0  0  0  0  0  0  0  0  0
  -92.2576   27.6088   -3.4635 C   0  0  0  0  0  0  0  0  0  0  0  0
  -92.3568   26.2235   -3.3042 C   0  0  0  0  0  0  0  0  0  0  0  0
  -91.3684   25.4891   -2.6993 C   0  0  0  0  0  0  0  0  0  0  0  0
  -91.4969   23.7458   -2.4996 Cl  0  0  0  0  0  0  0  0  0  0  0  0
  -90.2494   26.1456   -2.2392 C   0  0  0  0  0  0  0  0  0  0  0  0
  -87.5913   35.5375   -3.8260 C   0  0  0  0  0  0  0  0  0  0  0  0
  -88.7306   35.7146   -3.3317 O   0  0  0  0  0  0  0  0  0  0  0  0
  -86.7714   34.5447   -3.2701 N   0  0  0  0  0  0  0  0  0  0  0  0
  -85.8137   34.3580   -3.6455 H   0  0  0  0  0  0  0  0  0  0  0  0
  -86.1282   38.8024   -8.1978 F   0  0  0  0  0  0  0  0  0  0  0  0
  -86.4834   38.0121   -7.1425 C   0  0  0  0  0  0  0  0  0  0  0  0
  -87.3353   36.9388   -7.2779 C   0  0  0  0  0  0  0  0  0  0  0  0
  -87.6954   36.1391   -6.2196 C   0  0  0  0  0  0  0  0  0  0  0  0
  -87.2043   36.3903   -4.9566 C   0  0  0  0  0  0  0  0  0  0  0  0
  -86.3515   37.4563   -4.7936 C   0  0  0  0  0  0  0  0  0  0  0  0
  -86.0066   38.2410   -5.8669 C   0  0  0  0  0  0  0  0  0  0  0  0
 22 23  1  0  0  0
 23 24  2  0  0  0
 24 25  1  0  0  0
 25 26  2  0  0  0
 26 27  1  0  0  0
 27 28  2  0  0  0
 26 18  1  0  0  0
 18 19  2  0  0  0
 18 20  1  0  0  0
 20  1  1  0  0  0
  1  2  1  0  0  0
  2  3  1  0  0  0
  3  4  1  0  0  0
  4  5  1  0  0  0
  4  6  1  0  0  0
  6  7  2  0  0  0
  7  8  1  0  0  0
  8  9  2  0  0  0
  9 10  1  0  0  0
  8 11  1  0  0  0
 11 12  2  0  0  0
 12 13  1  0  0  0
 13 14  2  0  0  0
 14 15  1  0  0  0
 15 16  1  0  0  0
 15 17  2  0  0  0
 28 23  1  0  0  0
  5  1  1  0  0  0
 10  6  1  0  0  0
 17 11  1  0  0  0
 20 21  1  0  0  0
M  END
> <minimizedAffinity>
-7.15526

> <CNNscore>
0.1170537695

> <CNNaffinity>
5.2115635872

> <CNN_VS>
0.6100331545

> <CNNaffinity_variance>
0.2942165732

$$$$
