[H]N=C(N([H])[H])N([H])C([H])([H])C([H])([H])C([H])([H])[C@@]([H])(C(=O)c1nc2c([H])c([H])c([H])c([H])c2s1)N([H])C(=O)[C@@]1([H])N(C(=O)[C@@]([H])(N([H])[H])C([H])([H])c2c([H])c([H])c([H])c([H])c2[H])C([H])([H])C([H])([H])C1([H])[H]
     RDKit          3D

 71 74  0  0  0  0  0  0  0  0999 V2000
   -4.4909   -0.2046   -1.3602 N   0  0  0  0  0  0  0  0  0  0  0  0
   -4.0687    0.7175   -0.3675 C   0  0  1  0  0  0  0  0  0  0  0  0
   -5.1977    1.2359    0.4944 C   0  0  0  0  0  0  0  0  0  0  0  0
   -5.9345    0.2373    1.2500 C   0  0  0  0  0  0  0  0  0  0  0  0
   -5.5213   -0.1285    2.5112 C   0  0  0  0  0  0  0  0  0  0  0  0
   -6.1937   -1.0694    3.2736 C   0  0  0  0  0  0  0  0  0  0  0  0
   -7.3208   -1.6759    2.7735 C   0  0  0  0  0  0  0  0  0  0  0  0
   -7.7461   -1.3204    1.5139 C   0  0  0  0  0  0  0  0  0  0  0  0
   -7.0669   -0.3791    0.7606 C   0  0  0  0  0  0  0  0  0  0  0  0
   -2.8999    0.3216    0.3747 C   0  0  0  0  0  0  0  0  0  0  0  0
   -2.3904    1.2086    1.1543 O   0  0  0  0  0  0  0  0  0  0  0  0
   -2.2694   -0.9338    0.3256 N   0  0  0  0  0  0  0  0  0  0  0  0
   -2.5482   -2.1673   -0.3646 C   0  0  0  0  0  0  0  0  0  0  0  0
   -2.1740   -3.2119    0.7109 C   0  0  0  0  0  0  0  0  0  0  0  0
   -0.7650   -2.6642    1.0278 C   0  0  0  0  0  0  0  0  0  0  0  0
   -1.0191   -1.2136    1.0699 C   0  0  1  0  0  0  0  0  0  0  0  0
    0.1083   -0.4255    0.5679 C   0  0  0  0  0  0  0  0  0  0  0  0
   -0.1371    0.3631   -0.4078 O   0  0  0  0  0  0  0  0  0  0  0  0
    1.4307   -0.4435    1.0546 N   0  0  0  0  0  0  0  0  0  0  0  0
    2.5201    0.3699    0.5739 C   0  0  1  0  0  0  0  0  0  0  0  0
    2.8856    0.2279   -0.8479 C   0  0  0  0  0  0  0  0  0  0  0  0
    3.3777   -1.1176   -1.2681 C   0  0  0  0  0  0  0  0  0  0  0  0
    2.4925   -2.2831   -1.1040 C   0  0  0  0  0  0  0  0  0  0  0  0
    3.2264   -3.4482   -1.6334 N   0  0  0  0  0  0  0  0  0  0  0  0
    3.4686   -3.5083   -3.0370 C   0  0  0  0  0  0  0  0  0  0  0  0
    4.7630   -3.8479   -3.4954 N   0  0  0  0  0  0  0  0  0  0  0  0
    2.5572   -3.2663   -3.9092 N   0  0  0  0  0  0  0  0  0  0  0  0
    2.2247    1.7851    0.8962 C   0  0  0  0  0  0  0  0  0  0  0  0
    1.1050    2.1138    1.4274 O   0  0  0  0  0  0  0  0  0  0  0  0
    3.1363    2.9013    0.6575 C   0  0  0  0  0  0  0  0  0  0  0  0
    4.3534    2.9383    0.1584 N   0  0  0  0  0  0  0  0  0  0  0  0
    4.9966    4.0582    0.0316 C   0  0  0  0  0  0  0  0  0  0  0  0
    6.2973    4.2114   -0.4878 C   0  0  0  0  0  0  0  0  0  0  0  0
    6.8785    5.4328   -0.5763 C   0  0  0  0  0  0  0  0  0  0  0  0
    6.2494    6.5845   -0.1725 C   0  0  0  0  0  0  0  0  0  0  0  0
    4.9799    6.4611    0.3377 C   0  0  0  0  0  0  0  0  0  0  0  0
    4.3640    5.2021    0.4359 C   0  0  0  0  0  0  0  0  0  0  0  0
    2.8667    4.5871    0.9790 S   0  0  0  0  0  0  0  0  0  0  0  0
   -4.4319    0.1316   -2.3484 H   0  0  0  0  0  0  0  0  0  0  0  0
   -5.3117   -0.7795   -1.1659 H   0  0  0  0  0  0  0  0  0  0  0  0
   -3.7533    1.6506   -0.9585 H   0  0  0  0  0  0  0  0  0  0  0  0
   -5.8929    1.7798   -0.1752 H   0  0  0  0  0  0  0  0  0  0  0  0
   -4.7532    2.0019    1.1729 H   0  0  0  0  0  0  0  0  0  0  0  0
   -4.6435    0.3073    2.9677 H   0  0  0  0  0  0  0  0  0  0  0  0
   -5.8732   -1.3619    4.2681 H   0  0  0  0  0  0  0  0  0  0  0  0
   -7.8540   -2.4220    3.3781 H   0  0  0  0  0  0  0  0  0  0  0  0
   -8.6457   -1.8221    1.1461 H   0  0  0  0  0  0  0  0  0  0  0  0
   -7.4703   -0.1574   -0.2205 H   0  0  0  0  0  0  0  0  0  0  0  0
   -3.5619   -2.3327   -0.7041 H   0  0  0  0  0  0  0  0  0  0  0  0
   -1.8521   -2.3511   -1.2079 H   0  0  0  0  0  0  0  0  0  0  0  0
   -2.7743   -3.1102    1.6115 H   0  0  0  0  0  0  0  0  0  0  0  0
   -2.1498   -4.2234    0.3157 H   0  0  0  0  0  0  0  0  0  0  0  0
   -0.4148   -3.0958    1.9947 H   0  0  0  0  0  0  0  0  0  0  0  0
   -0.1568   -3.0093    0.1748 H   0  0  0  0  0  0  0  0  0  0  0  0
   -1.2171   -0.9134    2.1312 H   0  0  0  0  0  0  0  0  0  0  0  0
    1.6135   -1.1256    1.8447 H   0  0  0  0  0  0  0  0  0  0  0  0
    3.4120    0.1286    1.2505 H   0  0  0  0  0  0  0  0  0  0  0  0
    3.7376    0.9333   -1.0924 H   0  0  0  0  0  0  0  0  0  0  0  0
    2.0739    0.5915   -1.5406 H   0  0  0  0  0  0  0  0  0  0  0  0
    4.3955   -1.2666   -0.8110 H   0  0  0  0  0  0  0  0  0  0  0  0
    3.6127   -1.0321   -2.3761 H   0  0  0  0  0  0  0  0  0  0  0  0
    1.5576   -2.1237   -1.6472 H   0  0  0  0  0  0  0  0  0  0  0  0
    2.2564   -2.5673   -0.0567 H   0  0  0  0  0  0  0  0  0  0  0  0
    3.5467   -4.1829   -1.0008 H   0  0  0  0  0  0  0  0  0  0  0  0
    5.3325   -4.5754   -3.0012 H   0  0  0  0  0  0  0  0  0  0  0  0
    5.1629   -3.3808   -4.3258 H   0  0  0  0  0  0  0  0  0  0  0  0
    1.6046   -3.0167   -3.5517 H   0  0  0  0  0  0  0  0  0  0  0  0
    6.8696    3.3368   -0.8335 H   0  0  0  0  0  0  0  0  0  0  0  0
    7.8986    5.5226   -0.9882 H   0  0  0  0  0  0  0  0  0  0  0  0
    6.7455    7.5210   -0.2614 H   0  0  0  0  0  0  0  0  0  0  0  0
    4.3987    7.2963    0.6823 H   0  0  0  0  0  0  0  0  0  0  0  0
  1  2  1  0
  2  3  1  0
  3  4  1  0
  4  5  2  0
  5  6  1  0
  6  7  2  0
  7  8  1  0
  8  9  2  0
  2 10  1  0
 10 11  2  0
 10 12  1  0
 12 13  1  0
 13 14  1  0
 14 15  1  0
 15 16  1  0
 16 17  1  0
 17 18  2  0
 17 19  1  0
 19 20  1  0
 20 21  1  0
 21 22  1  0
 22 23  1  0
 23 24  1  0
 24 25  1  0
 25 26  1  0
 25 27  2  3
 20 28  1  0
 28 29  2  0
 28 30  1  0
 30 31  2  0
 31 32  1  0
 32 33  2  0
 33 34  1  0
 34 35  2  0
 35 36  1  0
 36 37  2  0
 37 38  1  0
  9  4  1  0
 16 12  1  0
 38 30  1  0
 37 32  1  0
  1 39  1  0
  1 40  1  0
  2 41  1  6
  3 42  1  0
  3 43  1  0
  5 44  1  0
  6 45  1  0
  7 46  1  0
  8 47  1  0
  9 48  1  0
 13 49  1  0
 13 50  1  0
 14 51  1  0
 14 52  1  0
 15 53  1  0
 15 54  1  0
 16 55  1  1
 19 56  1  0
 20 57  1  1
 21 58  1  0
 21 59  1  0
 22 60  1  0
 22 61  1  0
 23 62  1  0
 23 63  1  0
 24 64  1  0
 26 65  1  0
 26 66  1  0
 27 67  1  0
 33 68  1  0
 34 69  1  0
 35 70  1  0
 36 71  1  0
M  END
$$$$
[H]C1=C(C(=O)[O-])N2C(=O)/C(=C(\[H])c3nn4c(c3[H])C([H])([H])C([H])([H])C([H])([H])C4([H])[H])[C@@]2([H])S1
     RDKit          3D

 33 36  0  0  0  0  0  0  0  0999 V2000
    6.6143   -1.0096    1.7922 O   0  0  0  0  0  0  0  0  0  0  0  0
    5.9670   -0.6239    0.6323 C   0  0  0  0  0  0  0  0  0  0  0  0
    6.6594   -0.4854   -0.4027 O   0  0  0  0  0  0  0  0  0  0  0  0
    4.5144   -0.4021    0.6861 C   0  0  0  0  0  0  0  0  0  0  0  0
    3.8146   -0.5547    1.7792 C   0  0  0  0  0  0  0  0  0  0  0  0
    2.1219   -0.1727    1.3491 S   0  0  0  0  0  0  0  0  0  0  0  0
    2.5752    0.7092   -0.2061 C   0  0  1  0  0  0  0  0  0  0  0  0
    3.8002   -0.0271   -0.4625 N   0  0  0  0  0  0  0  0  0  0  0  0
    3.4642    0.1087   -1.8639 C   0  0  0  0  0  0  0  0  0  0  0  0
    4.0887    0.1881   -2.9557 O   0  0  0  0  0  0  0  0  0  0  0  0
    2.0511    0.1103   -1.4189 C   0  0  0  0  0  0  0  0  0  0  0  0
    0.9194   -0.2887   -1.9758 C   0  0  0  0  0  0  0  0  0  0  0  0
   -0.3018   -0.1232   -1.2026 C   0  0  0  0  0  0  0  0  0  0  0  0
   -1.3506   -1.0228   -1.1858 C   0  0  0  0  0  0  0  0  0  0  0  0
   -2.3238   -0.5234   -0.3453 C   0  0  0  0  0  0  0  0  0  0  0  0
   -3.6299   -1.1185    0.0009 C   0  0  0  0  0  0  0  0  0  0  0  0
   -4.5190   -0.1865    0.7534 C   0  0  0  0  0  0  0  0  0  0  0  0
   -4.0859    1.2489    0.6864 C   0  0  0  0  0  0  0  0  0  0  0  0
   -2.6306    1.4348    1.0323 C   0  0  0  0  0  0  0  0  0  0  0  0
   -1.8608    0.6295    0.1152 N   0  0  0  0  0  0  0  0  0  0  0  0
   -0.6465    0.8686   -0.4004 N   0  0  0  0  0  0  0  0  0  0  0  0
    4.1279   -0.8436    2.7568 H   0  0  0  0  0  0  0  0  0  0  0  0
    2.6398    1.7858   -0.1150 H   0  0  0  0  0  0  0  0  0  0  0  0
    0.9339   -0.7173   -2.9666 H   0  0  0  0  0  0  0  0  0  0  0  0
   -1.3579   -1.9422   -1.7524 H   0  0  0  0  0  0  0  0  0  0  0  0
   -3.4117   -2.0193    0.6393 H   0  0  0  0  0  0  0  0  0  0  0  0
   -4.1383   -1.4798   -0.9180 H   0  0  0  0  0  0  0  0  0  0  0  0
   -5.5577   -0.2291    0.3313 H   0  0  0  0  0  0  0  0  0  0  0  0
   -4.6308   -0.4522    1.8234 H   0  0  0  0  0  0  0  0  0  0  0  0
   -4.2967    1.7184   -0.3004 H   0  0  0  0  0  0  0  0  0  0  0  0
   -4.6818    1.8128    1.4317 H   0  0  0  0  0  0  0  0  0  0  0  0
   -2.4114    2.5136    0.9066 H   0  0  0  0  0  0  0  0  0  0  0  0
   -2.4568    1.0933    2.0833 H   0  0  0  0  0  0  0  0  0  0  0  0
  1  2  1  0
  2  3  2  0
  2  4  1  0
  4  5  2  0
  5  6  1  0
  6  7  1  0
  7  8  1  0
  8  9  1  0
  9 10  2  0
  9 11  1  0
 11 12  2  0
 12 13  1  0
 13 14  1  0
 14 15  2  0
 15 16  1  0
 16 17  1  0
 17 18  1  0
 18 19  1  0
 19 20  1  0
 20 21  1  0
  8  4  1  0
 21 13  2  0
 11  7  1  0
 20 15  1  0
  5 22  1  0
  7 23  1  1
 12 24  1  0
 14 25  1  0
 16 26  1  0
 16 27  1  0
 17 28  1  0
 17 29  1  0
 18 30  1  0
 18 31  1  0
 19 32  1  0
 19 33  1  0
M  CHG  1   1  -1
M  END
$$$$
[H]Oc1c([H])c([H])c(C([H])([H])[C@@]2([H])C(=O)N([H])[C@@]([H])(C([H])([H])c3c([H])c([H])c(O[H])c([H])c3[H])C(=O)N3C([H])([H])C([H])([H])C([H])([H])[C@@]3([H])C(=O)N([H])[C@@]([H])(C([H])([H])c3c([H])n([H])c4c([H])c([H])c([H])c([H])c34)C(=O)N([H])[C@@]([H])(C([H])(C([H])([H])[H])C([H])([H])[H])C(=O)N([H])[C@@]([H])(C([H])([H])c3c([H])n([H])c4c([H])c([H])c([H])c([H])c34)C(=O)N2[H])c([H])c1[H]
     RDKit          3D

120127  0  0  0  0  0  0  0  0999 V2000
   -2.2959    5.0496    1.0739 C   0  0  0  0  0  0  0  0  0  0  0  0
   -2.0679    3.6928    1.7216 C   0  0  0  0  0  0  0  0  0  0  0  0
   -3.1838    3.3435    2.6807 C   0  0  0  0  0  0  0  0  0  0  0  0
   -1.9013    2.6160    0.6334 C   0  0  2  0  0  0  0  0  0  0  0  0
   -1.6938    1.3786    1.3315 N   0  0  0  0  0  0  0  0  0  0  0  0
   -2.7762    0.4654    1.6046 C   0  0  0  0  0  0  0  0  0  0  0  0
   -2.7933   -0.0616    2.7369 O   0  0  0  0  0  0  0  0  0  0  0  0
   -3.8321    0.1332    0.6492 C   0  0  2  0  0  0  0  0  0  0  0  0
   -5.0579   -0.4070    1.3496 C   0  0  0  0  0  0  0  0  0  0  0  0
   -6.1553   -0.7499    0.4141 C   0  0  0  0  0  0  0  0  0  0  0  0
   -6.5709   -2.0046    0.0286 C   0  0  0  0  0  0  0  0  0  0  0  0
   -7.6116   -1.8981   -0.8375 N   0  0  0  0  0  0  0  0  0  0  0  0
   -7.8948   -0.6064   -1.0348 C   0  0  0  0  0  0  0  0  0  0  0  0
   -8.8432    0.0176   -1.8111 C   0  0  0  0  0  0  0  0  0  0  0  0
   -8.9363    1.4108   -1.8490 C   0  0  0  0  0  0  0  0  0  0  0  0
   -8.0447    2.1518   -1.0816 C   0  0  0  0  0  0  0  0  0  0  0  0
   -7.0948    1.4799   -0.3057 C   0  0  0  0  0  0  0  0  0  0  0  0
   -7.0034    0.1081   -0.2682 C   0  0  0  0  0  0  0  0  0  0  0  0
   -3.4605   -0.5473   -0.5558 N   0  0  0  0  0  0  0  0  0  0  0  0
   -2.4718   -1.4372   -0.9179 C   0  0  0  0  0  0  0  0  0  0  0  0
   -1.5373   -0.9066   -1.6725 O   0  0  0  0  0  0  0  0  0  0  0  0
   -2.2221   -2.8521   -0.6566 C   0  0  2  0  0  0  0  0  0  0  0  0
   -3.2587   -3.7806   -1.2563 C   0  0  0  0  0  0  0  0  0  0  0  0
   -3.6626   -4.7659   -0.1919 C   0  0  0  0  0  0  0  0  0  0  0  0
   -3.2379   -4.0769    1.0835 C   0  0  0  0  0  0  0  0  0  0  0  0
   -2.0397   -3.2960    0.6857 N   0  0  0  0  0  0  0  0  0  0  0  0
   -0.9177   -3.0705    1.4910 C   0  0  0  0  0  0  0  0  0  0  0  0
   -1.1012   -2.9182    2.7421 O   0  0  0  0  0  0  0  0  0  0  0  0
    0.5117   -2.9979    0.9665 C   0  0  2  0  0  0  0  0  0  0  0  0
    0.8123   -4.4199    0.5630 C   0  0  0  0  0  0  0  0  0  0  0  0
    2.1316   -4.6776    0.0120 C   0  0  0  0  0  0  0  0  0  0  0  0
    2.3135   -4.4833   -1.3473 C   0  0  0  0  0  0  0  0  0  0  0  0
    3.4986   -4.7110   -2.0021 C   0  0  0  0  0  0  0  0  0  0  0  0
    4.5660   -5.1594   -1.2556 C   0  0  0  0  0  0  0  0  0  0  0  0
    5.7814   -5.3956   -1.9155 O   0  0  0  0  0  0  0  0  0  0  0  0
    4.4285   -5.3672    0.1085 C   0  0  0  0  0  0  0  0  0  0  0  0
    3.2189   -5.1251    0.7238 C   0  0  0  0  0  0  0  0  0  0  0  0
    1.3461   -2.6256    2.0850 N   0  0  0  0  0  0  0  0  0  0  0  0
    1.9463   -1.3827    2.3351 C   0  0  0  0  0  0  0  0  0  0  0  0
    1.6527   -0.7678    3.4183 O   0  0  0  0  0  0  0  0  0  0  0  0
    2.9219   -0.6649    1.4619 C   0  0  2  0  0  0  0  0  0  0  0  0
    4.2766   -1.2646    1.8818 C   0  0  0  0  0  0  0  0  0  0  0  0
    5.4297   -0.7362    1.1799 C   0  0  0  0  0  0  0  0  0  0  0  0
    6.1084    0.3362    1.7726 C   0  0  0  0  0  0  0  0  0  0  0  0
    7.2319    0.8876    1.1682 C   0  0  0  0  0  0  0  0  0  0  0  0
    7.6658    0.3637   -0.0220 C   0  0  0  0  0  0  0  0  0  0  0  0
    8.7860    0.8939   -0.6506 O   0  0  0  0  0  0  0  0  0  0  0  0
    6.9844   -0.6980   -0.5992 C   0  0  0  0  0  0  0  0  0  0  0  0
    5.8742   -1.2479   -0.0068 C   0  0  0  0  0  0  0  0  0  0  0  0
    2.8987    0.7378    1.7885 N   0  0  0  0  0  0  0  0  0  0  0  0
    2.3397    1.8049    1.0926 C   0  0  0  0  0  0  0  0  0  0  0  0
    2.6225    2.9981    1.4642 O   0  0  0  0  0  0  0  0  0  0  0  0
    1.4089    1.7394   -0.0876 C   0  0  2  0  0  0  0  0  0  0  0  0
    2.2669    1.7283   -1.3351 C   0  0  0  0  0  0  0  0  0  0  0  0
    3.1292    2.8722   -1.5489 C   0  0  0  0  0  0  0  0  0  0  0  0
    4.4399    2.9213   -1.0420 C   0  0  0  0  0  0  0  0  0  0  0  0
    4.9998    4.1052   -1.3270 N   0  0  0  0  0  0  0  0  0  0  0  0
    4.1165    4.8635   -2.0116 C   0  0  0  0  0  0  0  0  0  0  0  0
    4.1890    6.1218   -2.5470 C   0  0  0  0  0  0  0  0  0  0  0  0
    3.1278    6.6608   -3.2332 C   0  0  0  0  0  0  0  0  0  0  0  0
    1.9700    5.8791   -3.3660 C   0  0  0  0  0  0  0  0  0  0  0  0
    1.8968    4.6287   -2.8337 C   0  0  0  0  0  0  0  0  0  0  0  0
    2.9706    4.1117   -2.1501 C   0  0  0  0  0  0  0  0  0  0  0  0
    0.5766    2.9092   -0.1065 N   0  0  0  0  0  0  0  0  0  0  0  0
   -0.8123    3.0384   -0.2522 C   0  0  0  0  0  0  0  0  0  0  0  0
   -1.2441    3.6238   -1.3321 O   0  0  0  0  0  0  0  0  0  0  0  0
   -2.8515    5.7367    1.7442 H   0  0  0  0  0  0  0  0  0  0  0  0
   -2.9211    4.8967    0.1518 H   0  0  0  0  0  0  0  0  0  0  0  0
   -1.3674    5.5315    0.7485 H   0  0  0  0  0  0  0  0  0  0  0  0
   -1.1438    3.7817    2.3244 H   0  0  0  0  0  0  0  0  0  0  0  0
   -2.7765    2.7445    3.5234 H   0  0  0  0  0  0  0  0  0  0  0  0
   -4.0500    2.8646    2.1892 H   0  0  0  0  0  0  0  0  0  0  0  0
   -3.5630    4.3364    3.0659 H   0  0  0  0  0  0  0  0  0  0  0  0
   -2.8392    2.5898    0.0220 H   0  0  0  0  0  0  0  0  0  0  0  0
   -0.7288    1.1604    1.6449 H   0  0  0  0  0  0  0  0  0  0  0  0
   -4.2173    1.1936    0.3652 H   0  0  0  0  0  0  0  0  0  0  0  0
   -4.8355   -1.2270    2.0578 H   0  0  0  0  0  0  0  0  0  0  0  0
   -5.4368    0.4193    2.0146 H   0  0  0  0  0  0  0  0  0  0  0  0
   -6.1417   -2.9331    0.3612 H   0  0  0  0  0  0  0  0  0  0  0  0
   -8.0966   -2.7316   -1.2675 H   0  0  0  0  0  0  0  0  0  0  0  0
   -9.5379   -0.5518   -2.4096 H   0  0  0  0  0  0  0  0  0  0  0  0
   -9.6533    1.9468   -2.4347 H   0  0  0  0  0  0  0  0  0  0  0  0
   -8.0979    3.2377   -1.0956 H   0  0  0  0  0  0  0  0  0  0  0  0
   -6.4246    2.0953    0.2757 H   0  0  0  0  0  0  0  0  0  0  0  0
   -4.1347   -0.2642   -1.3779 H   0  0  0  0  0  0  0  0  0  0  0  0
   -1.2707   -3.2122   -1.1788 H   0  0  0  0  0  0  0  0  0  0  0  0
   -4.1424   -3.1991   -1.5582 H   0  0  0  0  0  0  0  0  0  0  0  0
   -2.9175   -4.3134   -2.1621 H   0  0  0  0  0  0  0  0  0  0  0  0
   -4.7591   -4.9041   -0.1607 H   0  0  0  0  0  0  0  0  0  0  0  0
   -3.2018   -5.7581   -0.3277 H   0  0  0  0  0  0  0  0  0  0  0  0
   -3.0522   -4.8284    1.8332 H   0  0  0  0  0  0  0  0  0  0  0  0
   -3.9921   -3.3448    1.4093 H   0  0  0  0  0  0  0  0  0  0  0  0
    0.6278   -2.2658    0.1803 H   0  0  0  0  0  0  0  0  0  0  0  0
    0.0604   -4.8598   -0.1225 H   0  0  0  0  0  0  0  0  0  0  0  0
    0.7329   -5.0757    1.4913 H   0  0  0  0  0  0  0  0  0  0  0  0
    1.4824   -4.1258   -1.9694 H   0  0  0  0  0  0  0  0  0  0  0  0
    3.6143   -4.5475   -3.0804 H   0  0  0  0  0  0  0  0  0  0  0  0
    6.4060   -4.5895   -1.9547 H   0  0  0  0  0  0  0  0  0  0  0  0
    5.2951   -5.7204    0.6451 H   0  0  0  0  0  0  0  0  0  0  0  0
    3.1020   -5.2825    1.7852 H   0  0  0  0  0  0  0  0  0  0  0  0
    1.5088   -3.3943    2.8136 H   0  0  0  0  0  0  0  0  0  0  0  0
    2.7501   -0.8917    0.3923 H   0  0  0  0  0  0  0  0  0  0  0  0
    4.3778   -1.1605    2.9853 H   0  0  0  0  0  0  0  0  0  0  0  0
    4.2155   -2.3522    1.6854 H   0  0  0  0  0  0  0  0  0  0  0  0
    5.7742    0.7633    2.7220 H   0  0  0  0  0  0  0  0  0  0  0  0
    7.7691    1.7294    1.6311 H   0  0  0  0  0  0  0  0  0  0  0  0
    9.7158    0.5112   -0.4376 H   0  0  0  0  0  0  0  0  0  0  0  0
    7.3859   -1.0673   -1.5498 H   0  0  0  0  0  0  0  0  0  0  0  0
    5.3506   -2.0730   -0.4611 H   0  0  0  0  0  0  0  0  0  0  0  0
    3.3944    0.9644    2.7143 H   0  0  0  0  0  0  0  0  0  0  0  0
    0.8298    0.7890   -0.0700 H   0  0  0  0  0  0  0  0  0  0  0  0
    2.8617    0.7772   -1.2966 H   0  0  0  0  0  0  0  0  0  0  0  0
    1.6005    1.5625   -2.2395 H   0  0  0  0  0  0  0  0  0  0  0  0
    4.9479    2.1456   -0.5042 H   0  0  0  0  0  0  0  0  0  0  0  0
    5.9843    4.3930   -1.0522 H   0  0  0  0  0  0  0  0  0  0  0  0
    5.1266    6.6905   -2.4093 H   0  0  0  0  0  0  0  0  0  0  0  0
    3.2125    7.6478   -3.6404 H   0  0  0  0  0  0  0  0  0  0  0  0
    1.1599    6.3346   -3.9113 H   0  0  0  0  0  0  0  0  0  0  0  0
    1.0107    4.0417   -2.9567 H   0  0  0  0  0  0  0  0  0  0  0  0
    1.1400    3.8198    0.0135 H   0  0  0  0  0  0  0  0  0  0  0  0
  1  2  1  0
  2  3  1  0
  2  4  1  0
  4  5  1  0
  5  6  1  0
  6  7  2  0
  6  8  1  0
  8  9  1  0
  9 10  1  0
 10 11  2  0
 11 12  1  0
 12 13  1  0
 13 14  2  0
 14 15  1  0
 15 16  2  0
 16 17  1  0
 17 18  2  0
  8 19  1  0
 19 20  1  0
 20 21  2  0
 20 22  1  0
 22 23  1  0
 23 24  1  0
 24 25  1  0
 25 26  1  0
 26 27  1  0
 27 28  2  0
 27 29  1  0
 29 30  1  0
 30 31  1  0
 31 32  2  0
 32 33  1  0
 33 34  2  0
 34 35  1  0
 34 36  1  0
 36 37  2  0
 29 38  1  0
 38 39  1  0
 39 40  2  0
 39 41  1  0
 41 42  1  0
 42 43  1  0
 43 44  2  0
 44 45  1  0
 45 46  2  0
 46 47  1  0
 46 48  1  0
 48 49  2  0
 41 50  1  0
 50 51  1  0
 51 52  2  0
 51 53  1  0
 53 54  1  0
 54 55  1  0
 55 56  2  0
 56 57  1  0
 57 58  1  0
 58 59  2  0
 59 60  1  0
 60 61  2  0
 61 62  1  0
 62 63  2  0
 53 64  1  0
 64 65  1  0
 65 66  2  0
 65  4  1  0
 18 10  1  0
 26 22  1  0
 37 31  1  0
 49 43  1  0
 63 55  1  0
 18 13  1  0
 63 58  1  0
  1 67  1  0
  1 68  1  0
  1 69  1  0
  2 70  1  0
  3 71  1  0
  3 72  1  0
  3 73  1  0
  4 74  1  6
  5 75  1  0
  8 76  1  6
  9 77  1  0
  9 78  1  0
 11 79  1  0
 12 80  1  0
 14 81  1  0
 15 82  1  0
 16 83  1  0
 17 84  1  0
 19 85  1  0
 22 86  1  6
 23 87  1  0
 23 88  1  0
 24 89  1  0
 24 90  1  0
 25 91  1  0
 25 92  1  0
 29 93  1  6
 30 94  1  0
 30 95  1  0
 32 96  1  0
 33 97  1  0
 35 98  1  0
 36 99  1  0
 37100  1  0
 38101  1  0
 41102  1  6
 42103  1  0
 42104  1  0
 44105  1  0
 45106  1  0
 47107  1  0
 48108  1  0
 49109  1  0
 50110  1  0
 53111  1  1
 54112  1  0
 54113  1  0
 56114  1  0
 57115  1  0
 59116  1  0
 60117  1  0
 61118  1  0
 62119  1  0
 64120  1  0
M  END
$$$$
[H]c1nc(C([H])([H])[H])oc1-c1c(N([H])[H])nc([H])c(-c2c([H])c(S(=O)(=O)N([H])C([H])([H])C(C([H])([H])[H])(C([H])([H])[H])C([H])([H])[H])c([H])c([H])c2C([H])([H])[H])c1[H]
     RDKit          3D

 55 57  0  0  0  0  0  0  0  0999 V2000
    6.9984    3.3388   -0.1838 C   0  0  0  0  0  0  0  0  0  0  0  0
    5.7126    2.5671   -0.1899 C   0  0  0  0  0  0  0  0  0  0  0  0
    4.4834    3.1284   -0.2076 N   0  0  0  0  0  0  0  0  0  0  0  0
    3.5887    2.0998   -0.2073 C   0  0  0  0  0  0  0  0  0  0  0  0
    4.3068    0.9246   -0.1892 C   0  0  0  0  0  0  0  0  0  0  0  0
    5.5545    1.2638   -0.1795 O   0  0  0  0  0  0  0  0  0  0  0  0
    3.7529   -0.4233   -0.1825 C   0  0  0  0  0  0  0  0  0  0  0  0
    2.3913   -0.6440   -0.1945 C   0  0  0  0  0  0  0  0  0  0  0  0
    1.8785   -1.9201   -0.1880 C   0  0  0  0  0  0  0  0  0  0  0  0
    2.7446   -2.9762   -0.1692 C   0  0  0  0  0  0  0  0  0  0  0  0
    4.0669   -2.7407   -0.1579 N   0  0  0  0  0  0  0  0  0  0  0  0
    4.5838   -1.5241   -0.1639 C   0  0  0  0  0  0  0  0  0  0  0  0
    6.0209   -1.3581   -0.1508 N   0  0  0  0  0  0  0  0  0  0  0  0
    0.4470   -2.1553   -0.1768 C   0  0  0  0  0  0  0  0  0  0  0  0
   -0.3709   -1.5595    0.7764 C   0  0  0  0  0  0  0  0  0  0  0  0
   -1.7292   -1.7480    0.8594 C   0  0  0  0  0  0  0  0  0  0  0  0
   -2.2954   -2.5878   -0.0752 C   0  0  0  0  0  0  0  0  0  0  0  0
   -1.5184   -3.1993   -1.0391 C   0  0  0  0  0  0  0  0  0  0  0  0
   -0.1367   -2.9816   -1.0911 C   0  0  0  0  0  0  0  0  0  0  0  0
    0.6185   -3.6595   -2.1668 C   0  0  0  0  0  0  0  0  0  0  0  0
   -2.7168   -0.9756    2.0776 S   0  0  0  0  0  0  0  0  0  0  0  0
   -1.8355   -0.7259    3.2691 O   0  0  0  0  0  0  0  0  0  0  0  0
   -3.8263   -1.8781    2.5353 O   0  0  0  0  0  0  0  0  0  0  0  0
   -3.3083    0.5486    1.5440 N   0  0  0  0  0  0  0  0  0  0  0  0
   -4.1551    0.4237    0.3697 C   0  0  0  0  0  0  0  0  0  0  0  0
   -4.6040    1.8281    0.0086 C   0  0  0  0  0  0  0  0  0  0  0  0
   -5.4981    1.8338   -1.2068 C   0  0  0  0  0  0  0  0  0  0  0  0
   -3.3517    2.6170   -0.3122 C   0  0  0  0  0  0  0  0  0  0  0  0
   -5.3155    2.4939    1.1655 C   0  0  0  0  0  0  0  0  0  0  0  0
    7.7781    2.6232    0.2020 H   0  0  0  0  0  0  0  0  0  0  0  0
    7.2453    3.5486   -1.2382 H   0  0  0  0  0  0  0  0  0  0  0  0
    6.9280    4.2475    0.4445 H   0  0  0  0  0  0  0  0  0  0  0  0
    2.5017    2.1835   -0.2192 H   0  0  0  0  0  0  0  0  0  0  0  0
    1.7315    0.2351   -0.2093 H   0  0  0  0  0  0  0  0  0  0  0  0
    2.4265   -4.0258   -0.1567 H   0  0  0  0  0  0  0  0  0  0  0  0
    6.5491   -1.2829    0.7449 H   0  0  0  0  0  0  0  0  0  0  0  0
    6.4855   -1.3194   -1.0796 H   0  0  0  0  0  0  0  0  0  0  0  0
    0.0981   -0.9089    1.4932 H   0  0  0  0  0  0  0  0  0  0  0  0
   -3.3610   -2.8029   -0.0952 H   0  0  0  0  0  0  0  0  0  0  0  0
   -1.9519   -3.8563   -1.7725 H   0  0  0  0  0  0  0  0  0  0  0  0
   -0.0505   -3.7183   -3.0671 H   0  0  0  0  0  0  0  0  0  0  0  0
    1.5213   -3.1110   -2.4963 H   0  0  0  0  0  0  0  0  0  0  0  0
    0.9522   -4.6908   -1.8743 H   0  0  0  0  0  0  0  0  0  0  0  0
   -3.9144    0.9238    2.3069 H   0  0  0  0  0  0  0  0  0  0  0  0
   -3.5905    0.0389   -0.5044 H   0  0  0  0  0  0  0  0  0  0  0  0
   -5.0690   -0.1684    0.5795 H   0  0  0  0  0  0  0  0  0  0  0  0
   -6.3234    1.1069   -1.1313 H   0  0  0  0  0  0  0  0  0  0  0  0
   -4.8629    1.6325   -2.0966 H   0  0  0  0  0  0  0  0  0  0  0  0
   -5.8717    2.8735   -1.3235 H   0  0  0  0  0  0  0  0  0  0  0  0
   -2.9069    3.0660    0.5961 H   0  0  0  0  0  0  0  0  0  0  0  0
   -3.6258    3.4404   -1.0007 H   0  0  0  0  0  0  0  0  0  0  0  0
   -2.6403    1.9634   -0.8638 H   0  0  0  0  0  0  0  0  0  0  0  0
   -6.1395    3.1026    0.7536 H   0  0  0  0  0  0  0  0  0  0  0  0
   -5.7418    1.7047    1.8360 H   0  0  0  0  0  0  0  0  0  0  0  0
   -4.6547    3.1833    1.7313 H   0  0  0  0  0  0  0  0  0  0  0  0
  1  2  1  0
  2  3  2  0
  3  4  1  0
  4  5  2  0
  5  6  1  0
  5  7  1  0
  7  8  2  0
  8  9  1  0
  9 10  2  0
 10 11  1  0
 11 12  2  0
 12 13  1  0
  9 14  1  0
 14 15  2  0
 15 16  1  0
 16 17  2  0
 17 18  1  0
 18 19  2  0
 19 20  1  0
 16 21  1  0
 21 22  2  0
 21 23  2  0
 21 24  1  0
 24 25  1  0
 25 26  1  0
 26 27  1  0
 26 28  1  0
 26 29  1  0
  6  2  1  0
 12  7  1  0
 19 14  1  0
  1 30  1  0
  1 31  1  0
  1 32  1  0
  4 33  1  0
  8 34  1  0
 10 35  1  0
 13 36  1  0
 13 37  1  0
 15 38  1  0
 17 39  1  0
 18 40  1  0
 20 41  1  0
 20 42  1  0
 20 43  1  0
 24 44  1  0
 25 45  1  0
 25 46  1  0
 27 47  1  0
 27 48  1  0
 27 49  1  0
 28 50  1  0
 28 51  1  0
 28 52  1  0
 29 53  1  0
 29 54  1  0
 29 55  1  0
M  END
$$$$
[H]Oc1c([H])c([H])c(C([H])([H])[C@@]([H])(C(=O)N2C([H])([H])C([H])([H])C([H])([H])[C@@]2([H])C(=O)N([H])[C@]([H])(C(=O)N([H])[H])C([H])([H])c2c([H])c([H])c([H])c([H])c2[H])N([H])[H])c([H])c1[H]
     RDKit          3D

 59 61  0  0  0  0  0  0  0  0999 V2000
   -3.4266    0.0369   -0.5150 N   0  0  0  0  0  0  0  0  0  0  0  0
   -2.5997   -0.3951    0.5620 C   0  0  1  0  0  0  0  0  0  0  0  0
   -3.4025   -0.7221    1.8153 C   0  0  0  0  0  0  0  0  0  0  0  0
   -4.1010    0.5088    2.2223 C   0  0  0  0  0  0  0  0  0  0  0  0
   -3.5202    1.4116    3.0793 C   0  0  0  0  0  0  0  0  0  0  0  0
   -4.1794    2.5752    3.4633 C   0  0  0  0  0  0  0  0  0  0  0  0
   -5.4397    2.8279    2.9747 C   0  0  0  0  0  0  0  0  0  0  0  0
   -6.1270    3.9955    3.3467 O   0  0  0  0  0  0  0  0  0  0  0  0
   -6.0484    1.9343    2.1092 C   0  0  0  0  0  0  0  0  0  0  0  0
   -5.3577    0.7775    1.7455 C   0  0  0  0  0  0  0  0  0  0  0  0
   -1.5635   -1.3684    0.2830 C   0  0  0  0  0  0  0  0  0  0  0  0
   -0.8276   -1.6679    1.3087 O   0  0  0  0  0  0  0  0  0  0  0  0
   -1.2237   -2.0374   -0.9109 N   0  0  0  0  0  0  0  0  0  0  0  0
   -1.8991   -1.9227   -2.1793 C   0  0  0  0  0  0  0  0  0  0  0  0
   -1.7010   -3.3670   -2.7099 C   0  0  0  0  0  0  0  0  0  0  0  0
   -0.2367   -3.5430   -2.4198 C   0  0  0  0  0  0  0  0  0  0  0  0
   -0.0985   -2.9576   -1.0405 C   0  0  1  0  0  0  0  0  0  0  0  0
    1.1942   -2.2953   -0.8306 C   0  0  0  0  0  0  0  0  0  0  0  0
    2.2160   -3.0708   -0.7785 O   0  0  0  0  0  0  0  0  0  0  0  0
    1.4284   -0.9275   -0.6835 N   0  0  0  0  0  0  0  0  0  0  0  0
    2.7613   -0.3511   -0.4666 C   0  0  1  0  0  0  0  0  0  0  0  0
    3.0993    0.6258   -1.5342 C   0  0  0  0  0  0  0  0  0  0  0  0
    4.4358    1.2197   -1.3318 C   0  0  0  0  0  0  0  0  0  0  0  0
    5.5446    0.5509   -1.8376 C   0  0  0  0  0  0  0  0  0  0  0  0
    6.7789    1.1139   -1.6743 C   0  0  0  0  0  0  0  0  0  0  0  0
    6.9921    2.3250   -1.0273 C   0  0  0  0  0  0  0  0  0  0  0  0
    5.8764    2.9751   -0.5311 C   0  0  0  0  0  0  0  0  0  0  0  0
    4.6262    2.4290   -0.6831 C   0  0  0  0  0  0  0  0  0  0  0  0
    2.7968    0.2732    0.9004 C   0  0  0  0  0  0  0  0  0  0  0  0
    3.9914    0.3421    1.6372 N   0  0  0  0  0  0  0  0  0  0  0  0
    1.7405    0.7439    1.4093 O   0  0  0  0  0  0  0  0  0  0  0  0
   -3.6680    1.0506   -0.3806 H   0  0  0  0  0  0  0  0  0  0  0  0
   -4.3004   -0.5294   -0.6303 H   0  0  0  0  0  0  0  0  0  0  0  0
   -2.0317    0.5511    0.8849 H   0  0  0  0  0  0  0  0  0  0  0  0
   -2.6879   -1.1028    2.5608 H   0  0  0  0  0  0  0  0  0  0  0  0
   -4.1696   -1.4979    1.6176 H   0  0  0  0  0  0  0  0  0  0  0  0
   -2.5319    1.1795    3.4414 H   0  0  0  0  0  0  0  0  0  0  0  0
   -3.7368    3.2872    4.1317 H   0  0  0  0  0  0  0  0  0  0  0  0
   -6.7051    3.9189    4.1719 H   0  0  0  0  0  0  0  0  0  0  0  0
   -7.0376    2.1593    1.7412 H   0  0  0  0  0  0  0  0  0  0  0  0
   -5.8452    0.0882    1.0723 H   0  0  0  0  0  0  0  0  0  0  0  0
   -2.9690   -1.7574   -2.1543 H   0  0  0  0  0  0  0  0  0  0  0  0
   -1.3349   -1.2617   -2.8716 H   0  0  0  0  0  0  0  0  0  0  0  0
   -2.2641   -4.0467   -2.0277 H   0  0  0  0  0  0  0  0  0  0  0  0
   -1.9768   -3.4599   -3.7549 H   0  0  0  0  0  0  0  0  0  0  0  0
    0.0781   -4.6082   -2.4511 H   0  0  0  0  0  0  0  0  0  0  0  0
    0.3187   -2.9255   -3.1571 H   0  0  0  0  0  0  0  0  0  0  0  0
   -0.2602   -3.7671   -0.3134 H   0  0  0  0  0  0  0  0  0  0  0  0
    0.6273   -0.2631   -0.7330 H   0  0  0  0  0  0  0  0  0  0  0  0
    3.4920   -1.1691   -0.4675 H   0  0  0  0  0  0  0  0  0  0  0  0
    2.3906    1.4899   -1.5768 H   0  0  0  0  0  0  0  0  0  0  0  0
    3.1191    0.0832   -2.5095 H   0  0  0  0  0  0  0  0  0  0  0  0
    5.3924   -0.4066   -2.3520 H   0  0  0  0  0  0  0  0  0  0  0  0
    7.6547    0.5826   -2.0778 H   0  0  0  0  0  0  0  0  0  0  0  0
    7.9936    2.7246   -0.9267 H   0  0  0  0  0  0  0  0  0  0  0  0
    6.0624    3.9162   -0.0308 H   0  0  0  0  0  0  0  0  0  0  0  0
    3.7822    2.9629   -0.2855 H   0  0  0  0  0  0  0  0  0  0  0  0
    3.9424    0.6962    2.6314 H   0  0  0  0  0  0  0  0  0  0  0  0
    4.9360    0.0645    1.2870 H   0  0  0  0  0  0  0  0  0  0  0  0
  1  2  1  0
  2  3  1  0
  3  4  1  0
  4  5  2  0
  5  6  1  0
  6  7  2  0
  7  8  1  0
  7  9  1  0
  9 10  2  0
  2 11  1  0
 11 12  2  0
 11 13  1  0
 13 14  1  0
 14 15  1  0
 15 16  1  0
 16 17  1  0
 17 18  1  0
 18 19  2  0
 18 20  1  0
 20 21  1  0
 21 22  1  0
 22 23  1  0
 23 24  2  0
 24 25  1  0
 25 26  2  0
 26 27  1  0
 27 28  2  0
 21 29  1  0
 29 30  1  0
 29 31  2  0
 10  4  1  0
 17 13  1  0
 28 23  1  0
  1 32  1  0
  1 33  1  0
  2 34  1  1
  3 35  1  0
  3 36  1  0
  5 37  1  0
  6 38  1  0
  8 39  1  0
  9 40  1  0
 10 41  1  0
 14 42  1  0
 14 43  1  0
 15 44  1  0
 15 45  1  0
 16 46  1  0
 16 47  1  0
 17 48  1  1
 20 49  1  0
 21 50  1  1
 22 51  1  0
 22 52  1  0
 24 53  1  0
 25 54  1  0
 26 55  1  0
 27 56  1  0
 28 57  1  0
 30 58  1  0
 30 59  1  0
M  END
$$$$
[H]OC(=O)C([H])([H])[C@@]([H])(C(=O)C([H])([H])Oc1c([H])c([H])c([H])c([H])c1[H])N([H])C(=O)[C@@]([H])(N([H])C(=O)[C@@]([H])(N([H])C(=O)OC([H])([H])c1c([H])c([H])c([H])c([H])c1[H])C([H])([H])c1c([H])c([H])c([H])c([H])c1[H])C([H])(C([H])([H])[H])C([H])([H])[H]
     RDKit          3D

 81 83  0  0  0  0  0  0  0  0999 V2000
   -0.4268    3.0224   -1.0140 C   0  0  0  0  0  0  0  0  0  0  0  0
    0.8816    2.4711   -0.4632 C   0  0  0  0  0  0  0  0  0  0  0  0
    0.9896    2.8152    0.9670 C   0  0  0  0  0  0  0  0  0  0  0  0
    0.9241    0.9872   -0.7803 C   0  0  2  0  0  0  0  0  0  0  0  0
   -0.1554    0.2601   -0.1896 N   0  0  0  0  0  0  0  0  0  0  0  0
   -1.3580   -0.1263   -0.8000 C   0  0  0  0  0  0  0  0  0  0  0  0
   -1.5717    0.1610   -1.9944 O   0  0  0  0  0  0  0  0  0  0  0  0
   -2.3927   -0.8677   -0.0543 C   0  0  2  0  0  0  0  0  0  0  0  0
   -2.1101   -2.3792   -0.0740 C   0  0  0  0  0  0  0  0  0  0  0  0
   -3.2001   -3.0376    0.6930 C   0  0  0  0  0  0  0  0  0  0  0  0
   -4.3427   -3.4475    0.0492 C   0  0  0  0  0  0  0  0  0  0  0  0
   -5.3837   -4.0666    0.7463 C   0  0  0  0  0  0  0  0  0  0  0  0
   -5.2898   -4.2839    2.1090 C   0  0  0  0  0  0  0  0  0  0  0  0
   -4.1366   -3.8687    2.7567 C   0  0  0  0  0  0  0  0  0  0  0  0
   -3.1028   -3.2504    2.0470 C   0  0  0  0  0  0  0  0  0  0  0  0
   -3.7233   -0.6085   -0.5773 N   0  0  0  0  0  0  0  0  0  0  0  0
   -4.7150   -0.0526    0.2673 C   0  0  0  0  0  0  0  0  0  0  0  0
   -4.3930    0.1906    1.4684 O   0  0  0  0  0  0  0  0  0  0  0  0
   -6.0113    0.2530   -0.1139 O   0  0  0  0  0  0  0  0  0  0  0  0
   -6.9430    0.8132    0.7950 C   0  0  0  0  0  0  0  0  0  0  0  0
   -8.2447    1.0882    0.1654 C   0  0  0  0  0  0  0  0  0  0  0  0
   -9.2523    0.1557    0.1294 C   0  0  0  0  0  0  0  0  0  0  0  0
  -10.4515    0.4743   -0.4731 C   0  0  0  0  0  0  0  0  0  0  0  0
  -10.6147    1.7362   -1.0324 C   0  0  0  0  0  0  0  0  0  0  0  0
   -9.6191    2.6780   -1.0044 C   0  0  0  0  0  0  0  0  0  0  0  0
   -8.4214    2.3425   -0.3964 C   0  0  0  0  0  0  0  0  0  0  0  0
    2.2640    0.4130   -0.5542 C   0  0  0  0  0  0  0  0  0  0  0  0
    2.4129   -0.6757    0.0520 O   0  0  0  0  0  0  0  0  0  0  0  0
    3.4534    1.0604   -1.0042 N   0  0  0  0  0  0  0  0  0  0  0  0
    4.7787    0.5029   -0.7746 C   0  0  1  0  0  0  0  0  0  0  0  0
    5.6041    0.5959   -2.0313 C   0  0  0  0  0  0  0  0  0  0  0  0
    4.9931   -0.1338   -3.1636 C   0  0  0  0  0  0  0  0  0  0  0  0
    5.5675   -0.1485   -4.4185 O   0  0  0  0  0  0  0  0  0  0  0  0
    3.9204   -0.7563   -2.9740 O   0  0  0  0  0  0  0  0  0  0  0  0
    5.3691    1.3771    0.3025 C   0  0  0  0  0  0  0  0  0  0  0  0
    4.7714    2.3647    0.7214 O   0  0  0  0  0  0  0  0  0  0  0  0
    6.6804    1.1052    0.9167 C   0  0  0  0  0  0  0  0  0  0  0  0
    7.2321   -0.0645    0.3760 O   0  0  0  0  0  0  0  0  0  0  0  0
    8.4675   -0.5169    0.8095 C   0  0  0  0  0  0  0  0  0  0  0  0
    9.0022   -1.6618    0.2723 C   0  0  0  0  0  0  0  0  0  0  0  0
   10.2401   -2.0802    0.7354 C   0  0  0  0  0  0  0  0  0  0  0  0
   10.9031   -1.3528    1.7106 C   0  0  0  0  0  0  0  0  0  0  0  0
   10.3704   -0.2069    2.2489 C   0  0  0  0  0  0  0  0  0  0  0  0
    9.1338    0.2019    1.7788 C   0  0  0  0  0  0  0  0  0  0  0  0
   -0.4985    4.1232   -0.8628 H   0  0  0  0  0  0  0  0  0  0  0  0
   -1.2837    2.6040   -0.4826 H   0  0  0  0  0  0  0  0  0  0  0  0
   -0.4249    2.8451   -2.1128 H   0  0  0  0  0  0  0  0  0  0  0  0
    1.6955    2.9509   -1.0400 H   0  0  0  0  0  0  0  0  0  0  0  0
    0.9749    1.9850    1.6899 H   0  0  0  0  0  0  0  0  0  0  0  0
    1.9737    3.3383    1.1470 H   0  0  0  0  0  0  0  0  0  0  0  0
    0.2225    3.6065    1.2332 H   0  0  0  0  0  0  0  0  0  0  0  0
    0.7247    0.9698   -1.8953 H   0  0  0  0  0  0  0  0  0  0  0  0
   -0.0529   -0.0308    0.8359 H   0  0  0  0  0  0  0  0  0  0  0  0
   -2.3627   -0.5459    1.0059 H   0  0  0  0  0  0  0  0  0  0  0  0
   -2.0703   -2.7499   -1.1103 H   0  0  0  0  0  0  0  0  0  0  0  0
   -1.1637   -2.5124    0.4862 H   0  0  0  0  0  0  0  0  0  0  0  0
   -4.4287   -3.2838   -1.0093 H   0  0  0  0  0  0  0  0  0  0  0  0
   -6.2906   -4.3909    0.2430 H   0  0  0  0  0  0  0  0  0  0  0  0
   -6.0905   -4.7636    2.6618 H   0  0  0  0  0  0  0  0  0  0  0  0
   -4.0794   -4.0427    3.8079 H   0  0  0  0  0  0  0  0  0  0  0  0
   -2.2341   -2.9534    2.6059 H   0  0  0  0  0  0  0  0  0  0  0  0
   -3.9730   -0.8206   -1.5605 H   0  0  0  0  0  0  0  0  0  0  0  0
   -7.0513    0.0687    1.6383 H   0  0  0  0  0  0  0  0  0  0  0  0
   -6.5524    1.7353    1.2932 H   0  0  0  0  0  0  0  0  0  0  0  0
   -9.1520   -0.8307    0.5571 H   0  0  0  0  0  0  0  0  0  0  0  0
  -11.2814   -0.2131   -0.5326 H   0  0  0  0  0  0  0  0  0  0  0  0
  -11.5411    2.0314   -1.5202 H   0  0  0  0  0  0  0  0  0  0  0  0
   -9.7180    3.6741   -1.4323 H   0  0  0  0  0  0  0  0  0  0  0  0
   -7.6327    3.1069   -0.3831 H   0  0  0  0  0  0  0  0  0  0  0  0
    3.4083    1.9620   -1.5163 H   0  0  0  0  0  0  0  0  0  0  0  0
    4.7555   -0.5205   -0.4120 H   0  0  0  0  0  0  0  0  0  0  0  0
    5.7099    1.6824   -2.3454 H   0  0  0  0  0  0  0  0  0  0  0  0
    6.6402    0.2258   -1.9305 H   0  0  0  0  0  0  0  0  0  0  0  0
    5.0252   -0.2898   -5.2626 H   0  0  0  0  0  0  0  0  0  0  0  0
    6.5803    1.0307    2.0316 H   0  0  0  0  0  0  0  0  0  0  0  0
    7.3794    1.9662    0.7265 H   0  0  0  0  0  0  0  0  0  0  0  0
    8.5341   -2.2636   -0.4803 H   0  0  0  0  0  0  0  0  0  0  0  0
   10.7147   -2.9832    0.3465 H   0  0  0  0  0  0  0  0  0  0  0  0
   11.8848   -1.6811    2.0800 H   0  0  0  0  0  0  0  0  0  0  0  0
   10.8650    0.3852    3.0104 H   0  0  0  0  0  0  0  0  0  0  0  0
    8.6935    1.1013    2.1912 H   0  0  0  0  0  0  0  0  0  0  0  0
  1  2  1  0
  2  3  1  0
  2  4  1  0
  4  5  1  0
  5  6  1  0
  6  7  2  0
  6  8  1  0
  8  9  1  0
  9 10  1  0
 10 11  2  0
 11 12  1  0
 12 13  2  0
 13 14  1  0
 14 15  2  0
  8 16  1  0
 16 17  1  0
 17 18  2  0
 17 19  1  0
 19 20  1  0
 20 21  1  0
 21 22  2  0
 22 23  1  0
 23 24  2  0
 24 25  1  0
 25 26  2  0
  4 27  1  0
 27 28  2  0
 27 29  1  0
 29 30  1  0
 30 31  1  0
 31 32  1  0
 32 33  1  0
 32 34  2  0
 30 35  1  0
 35 36  2  0
 35 37  1  0
 37 38  1  0
 38 39  1  0
 39 40  2  0
 40 41  1  0
 41 42  2  0
 42 43  1  0
 43 44  2  0
 15 10  1  0
 26 21  1  0
 44 39  1  0
  1 45  1  0
  1 46  1  0
  1 47  1  0
  2 48  1  0
  3 49  1  0
  3 50  1  0
  3 51  1  0
  4 52  1  6
  5 53  1  0
  8 54  1  1
  9 55  1  0
  9 56  1  0
 11 57  1  0
 12 58  1  0
 13 59  1  0
 14 60  1  0
 15 61  1  0
 16 62  1  0
 20 63  1  0
 20 64  1  0
 22 65  1  0
 23 66  1  0
 24 67  1  0
 25 68  1  0
 26 69  1  0
 29 70  1  0
 30 71  1  1
 31 72  1  0
 31 73  1  0
 33 74  1  0
 37 75  1  0
 37 76  1  0
 40 77  1  0
 41 78  1  0
 42 79  1  0
 43 80  1  0
 44 81  1  0
M  END
$$$$
[H]OC(=O)c1c([H])c([H])c(-c2sc(N([H])C(=O)c3c([H])c([H])c(OC([H])([H])[H])c([H])c3[H])nc2[H])c(OC([H])([H])c2c([H])c([H])c([H])c([H])c2C#N)c1[H]
     RDKit          3D

 54 57  0  0  0  0  0  0  0  0999 V2000
    9.7260   -1.8159   -0.4953 C   0  0  0  0  0  0  0  0  0  0  0  0
    9.0782   -0.6135   -0.1704 O   0  0  0  0  0  0  0  0  0  0  0  0
    7.6714   -0.4845   -0.1357 C   0  0  0  0  0  0  0  0  0  0  0  0
    6.8429   -1.5260   -0.3675 C   0  0  0  0  0  0  0  0  0  0  0  0
    5.4532   -1.2841   -0.3324 C   0  0  0  0  0  0  0  0  0  0  0  0
    4.8852   -0.0931   -0.0849 C   0  0  0  0  0  0  0  0  0  0  0  0
    5.7892    1.0004    0.1774 C   0  0  0  0  0  0  0  0  0  0  0  0
    7.1749    0.7723    0.1445 C   0  0  0  0  0  0  0  0  0  0  0  0
    3.4713    0.1927   -0.1356 C   0  0  0  0  0  0  0  0  0  0  0  0
    2.8936    0.7391    0.8545 O   0  0  0  0  0  0  0  0  0  0  0  0
    2.7084   -0.1269   -1.2743 N   0  0  0  0  0  0  0  0  0  0  0  0
    1.2842    0.2299   -1.2281 C   0  0  0  0  0  0  0  0  0  0  0  0
    0.3429    0.1214   -2.1045 N   0  0  0  0  0  0  0  0  0  0  0  0
   -0.8832    0.5450   -1.8715 C   0  0  0  0  0  0  0  0  0  0  0  0
   -1.1379    1.1107   -0.6850 C   0  0  0  0  0  0  0  0  0  0  0  0
    0.4639    1.0052    0.1082 S   0  0  0  0  0  0  0  0  0  0  0  0
   -2.1913    1.8909    0.0306 C   0  0  0  0  0  0  0  0  0  0  0  0
   -2.0856    3.1954    0.1657 C   0  0  0  0  0  0  0  0  0  0  0  0
   -2.6679    4.0060    1.1175 C   0  0  0  0  0  0  0  0  0  0  0  0
   -3.5067    3.2550    2.0677 C   0  0  0  0  0  0  0  0  0  0  0  0
   -3.6100    1.9352    1.9131 C   0  0  0  0  0  0  0  0  0  0  0  0
   -3.0021    1.1299    0.9062 C   0  0  0  0  0  0  0  0  0  0  0  0
   -3.0699   -0.1374    0.6542 O   0  0  0  0  0  0  0  0  0  0  0  0
   -3.1437   -1.3910    0.4136 C   0  0  0  0  0  0  0  0  0  0  0  0
   -4.5710   -1.8350   -0.0242 C   0  0  0  0  0  0  0  0  0  0  0  0
   -5.6539   -1.1207    0.1571 C   0  0  0  0  0  0  0  0  0  0  0  0
   -6.9929   -1.5683   -0.0790 C   0  0  0  0  0  0  0  0  0  0  0  0
   -7.0843   -2.8803   -0.5423 C   0  0  0  0  0  0  0  0  0  0  0  0
   -5.9524   -3.6529   -0.7491 C   0  0  0  0  0  0  0  0  0  0  0  0
   -4.6650   -3.1611   -0.4932 C   0  0  0  0  0  0  0  0  0  0  0  0
   -3.5285   -3.9754   -0.7291 C   0  0  0  0  0  0  0  0  0  0  0  0
   -2.6071   -4.6387   -0.8765 N   0  0  0  0  0  0  0  0  0  0  0  0
   -4.1845    4.0900    3.0337 C   0  0  0  0  0  0  0  0  0  0  0  0
   -4.2826    5.5299    2.5967 O   0  0  0  0  0  0  0  0  0  0  0  0
   -4.6869    3.8756    4.0979 O   0  0  0  0  0  0  0  0  0  0  0  0
   10.0846   -2.3465    0.3940 H   0  0  0  0  0  0  0  0  0  0  0  0
   10.6624   -1.5650   -1.1112 H   0  0  0  0  0  0  0  0  0  0  0  0
    9.0931   -2.4860   -1.1134 H   0  0  0  0  0  0  0  0  0  0  0  0
    7.2340   -2.4578   -0.5884 H   0  0  0  0  0  0  0  0  0  0  0  0
    4.8143   -2.1562   -0.5182 H   0  0  0  0  0  0  0  0  0  0  0  0
    5.4312    1.9419    0.4280 H   0  0  0  0  0  0  0  0  0  0  0  0
    7.8822    1.5786    0.3690 H   0  0  0  0  0  0  0  0  0  0  0  0
    3.0244   -0.5558   -2.0973 H   0  0  0  0  0  0  0  0  0  0  0  0
   -1.6710    0.4667   -2.6457 H   0  0  0  0  0  0  0  0  0  0  0  0
   -1.4758    3.7491   -0.5918 H   0  0  0  0  0  0  0  0  0  0  0  0
   -2.5939    4.9828    1.1951 H   0  0  0  0  0  0  0  0  0  0  0  0
   -4.1827    1.3644    2.6487 H   0  0  0  0  0  0  0  0  0  0  0  0
   -3.0906   -1.9982    1.4281 H   0  0  0  0  0  0  0  0  0  0  0  0
   -2.4633   -1.9644   -0.2404 H   0  0  0  0  0  0  0  0  0  0  0  0
   -5.5872   -0.0768    0.5418 H   0  0  0  0  0  0  0  0  0  0  0  0
   -7.8163   -0.9418    0.0911 H   0  0  0  0  0  0  0  0  0  0  0  0
   -8.0564   -3.2906   -0.7287 H   0  0  0  0  0  0  0  0  0  0  0  0
   -6.1322   -4.6579   -1.1543 H   0  0  0  0  0  0  0  0  0  0  0  0
   -3.4347    6.0939    2.6485 H   0  0  0  0  0  0  0  0  0  0  0  0
  1  2  1  0
  2  3  1  0
  3  4  2  0
  4  5  1  0
  5  6  2  0
  6  7  1  0
  7  8  2  0
  6  9  1  0
  9 10  2  0
  9 11  1  0
 11 12  1  0
 12 13  2  0
 13 14  1  0
 14 15  2  0
 15 16  1  0
 15 17  1  0
 17 18  2  0
 18 19  1  0
 19 20  2  0
 20 21  1  0
 21 22  2  0
 22 23  1  0
 23 24  1  0
 24 25  1  0
 25 26  2  0
 26 27  1  0
 27 28  2  0
 28 29  1  0
 29 30  2  0
 30 31  1  0
 31 32  3  0
 20 33  1  0
 33 34  1  0
 33 35  2  0
  8  3  1  0
 16 12  1  0
 22 17  1  0
 30 25  1  0
  1 36  1  0
  1 37  1  0
  1 38  1  0
  4 39  1  0
  5 40  1  0
  7 41  1  0
  8 42  1  0
 11 43  1  0
 14 44  1  0
 18 45  1  0
 19 46  1  0
 21 47  1  0
 24 48  1  0
 24 49  1  0
 26 50  1  0
 27 51  1  0
 28 52  1  0
 29 53  1  0
 34 54  1  0
M  END
$$$$
[H]N=C(N([H])[H])N([H])C([H])([H])C([H])([H])C([H])([H])[C@@]([H])(C(=O)N1C([H])([H])C([H])([H])C([H])([H])[C@@]1([H])C(=O)N([H])[C@]([H])(C([H])=O)C([H])([H])C([H])([H])C([H])([H])N=C(N([H])[H])N([H])[H])N([H])C(=O)[C@@]1([H])N([H])C([H])([H])c2c([H])c([H])c([H])c([H])c2C1([H])[H]
     RDKit          3D

 83 85  0  0  0  0  0  0  0  0999 V2000
   -5.9303    3.0298   -0.7515 N   0  0  0  0  0  0  0  0  0  0  0  0
   -5.2630    3.7891    0.2361 C   0  0  0  0  0  0  0  0  0  0  0  0
   -5.5048    3.6667    1.4901 N   0  0  0  0  0  0  0  0  0  0  0  0
   -4.2780    4.7287   -0.1871 N   0  0  0  0  0  0  0  0  0  0  0  0
   -2.9733    4.2149   -0.5117 C   0  0  0  0  0  0  0  0  0  0  0  0
   -2.2395    3.7091    0.7094 C   0  0  0  0  0  0  0  0  0  0  0  0
   -0.8791    3.1553    0.3492 C   0  0  0  0  0  0  0  0  0  0  0  0
   -1.0046    1.9694   -0.5843 C   0  0  2  0  0  0  0  0  0  0  0  0
   -1.7739    0.9176    0.0861 N   0  0  0  0  0  0  0  0  0  0  0  0
   -2.7968    0.3184   -0.7047 C   0  0  0  0  0  0  0  0  0  0  0  0
   -3.0203    0.6625   -1.9095 O   0  0  0  0  0  0  0  0  0  0  0  0
   -3.6247   -0.7465   -0.0846 C   0  0  2  0  0  0  0  0  0  0  0  0
   -2.8335   -1.8408    0.5500 C   0  0  0  0  0  0  0  0  0  0  0  0
   -3.7642   -2.9835    0.8338 C   0  0  0  0  0  0  0  0  0  0  0  0
   -3.2378   -3.9827    1.6300 C   0  0  0  0  0  0  0  0  0  0  0  0
   -3.9948   -5.0829    1.9575 C   0  0  0  0  0  0  0  0  0  0  0  0
   -5.2783   -5.1427    1.4646 C   0  0  0  0  0  0  0  0  0  0  0  0
   -5.8189   -4.1591    0.6720 C   0  0  0  0  0  0  0  0  0  0  0  0
   -5.0414   -3.0540    0.3506 C   0  0  0  0  0  0  0  0  0  0  0  0
   -5.6073   -1.9884   -0.4941 C   0  0  0  0  0  0  0  0  0  0  0  0
   -4.5513   -1.2310   -1.0865 N   0  0  0  0  0  0  0  0  0  0  0  0
    0.3309    1.4431   -0.9871 C   0  0  0  0  0  0  0  0  0  0  0  0
    0.7330    0.4287   -0.3731 O   0  0  0  0  0  0  0  0  0  0  0  0
    1.0867    2.0663   -2.0127 N   0  0  0  0  0  0  0  0  0  0  0  0
    0.6500    3.2034   -2.7624 C   0  0  0  0  0  0  0  0  0  0  0  0
    1.9389    4.0454   -2.6521 C   0  0  0  0  0  0  0  0  0  0  0  0
    3.0060    3.0109   -2.9418 C   0  0  0  0  0  0  0  0  0  0  0  0
    2.3685    1.7285   -2.5380 C   0  0  1  0  0  0  0  0  0  0  0  0
    3.2125    0.9280   -1.6398 C   0  0  0  0  0  0  0  0  0  0  0  0
    3.8311    1.4645   -0.7101 O   0  0  0  0  0  0  0  0  0  0  0  0
    3.3274   -0.4548   -1.8237 N   0  0  0  0  0  0  0  0  0  0  0  0
    4.1855   -1.2195   -0.9126 C   0  0  1  0  0  0  0  0  0  0  0  0
    3.3791   -1.9912    0.1085 C   0  0  0  0  0  0  0  0  0  0  0  0
    4.2234   -2.7759    1.0635 C   0  0  0  0  0  0  0  0  0  0  0  0
    5.1580   -1.9027    1.8624 C   0  0  0  0  0  0  0  0  0  0  0  0
    5.9356   -2.7233    2.7753 N   0  0  0  0  0  0  0  0  0  0  0  0
    7.2194   -2.7288    2.7234 C   0  0  0  0  0  0  0  0  0  0  0  0
    7.8778   -1.9284    1.7685 N   0  0  0  0  0  0  0  0  0  0  0  0
    7.9742   -3.5265    3.6161 N   0  0  0  0  0  0  0  0  0  0  0  0
    5.1176   -2.1025   -1.6295 C   0  0  0  0  0  0  0  0  0  0  0  0
    5.1254   -2.1388   -2.8676 O   0  0  0  0  0  0  0  0  0  0  0  0
   -5.5183    2.1505   -1.1182 H   0  0  0  0  0  0  0  0  0  0  0  0
   -6.8407    3.3529   -1.1152 H   0  0  0  0  0  0  0  0  0  0  0  0
   -6.2224    2.9829    1.8283 H   0  0  0  0  0  0  0  0  0  0  0  0
   -4.5403    5.7299   -0.2435 H   0  0  0  0  0  0  0  0  0  0  0  0
   -2.4065    5.0514   -0.9833 H   0  0  0  0  0  0  0  0  0  0  0  0
   -3.1077    3.4639   -1.3050 H   0  0  0  0  0  0  0  0  0  0  0  0
   -2.1609    4.4988    1.4489 H   0  0  0  0  0  0  0  0  0  0  0  0
   -2.8784    2.8558    1.0938 H   0  0  0  0  0  0  0  0  0  0  0  0
   -0.2764    3.9501   -0.1153 H   0  0  0  0  0  0  0  0  0  0  0  0
   -0.4277    2.8390    1.3324 H   0  0  0  0  0  0  0  0  0  0  0  0
   -1.4734    2.3133   -1.5128 H   0  0  0  0  0  0  0  0  0  0  0  0
   -1.6094    0.6191    1.0473 H   0  0  0  0  0  0  0  0  0  0  0  0
   -4.2703   -0.2082    0.6757 H   0  0  0  0  0  0  0  0  0  0  0  0
   -2.4459   -1.4577    1.5268 H   0  0  0  0  0  0  0  0  0  0  0  0
   -2.0343   -2.1748   -0.1210 H   0  0  0  0  0  0  0  0  0  0  0  0
   -2.2161   -3.9217    2.0168 H   0  0  0  0  0  0  0  0  0  0  0  0
   -3.5885   -5.8798    2.5876 H   0  0  0  0  0  0  0  0  0  0  0  0
   -5.8880   -6.0056    1.7139 H   0  0  0  0  0  0  0  0  0  0  0  0
   -6.8283   -4.1901    0.2753 H   0  0  0  0  0  0  0  0  0  0  0  0
   -6.2693   -2.4060   -1.2979 H   0  0  0  0  0  0  0  0  0  0  0  0
   -6.2463   -1.2799    0.0895 H   0  0  0  0  0  0  0  0  0  0  0  0
   -4.0388   -1.8198   -1.7890 H   0  0  0  0  0  0  0  0  0  0  0  0
    0.5260    2.9202   -3.8481 H   0  0  0  0  0  0  0  0  0  0  0  0
   -0.2317    3.7234   -2.4360 H   0  0  0  0  0  0  0  0  0  0  0  0
    1.9401    4.8985   -3.3278 H   0  0  0  0  0  0  0  0  0  0  0  0
    2.0374    4.3153   -1.5666 H   0  0  0  0  0  0  0  0  0  0  0  0
    3.2392    3.0641   -4.0249 H   0  0  0  0  0  0  0  0  0  0  0  0
    3.9263    3.1838   -2.3481 H   0  0  0  0  0  0  0  0  0  0  0  0
    2.1690    1.1551   -3.4959 H   0  0  0  0  0  0  0  0  0  0  0  0
    2.8383   -0.9958   -2.5779 H   0  0  0  0  0  0  0  0  0  0  0  0
    4.7986   -0.4989   -0.2966 H   0  0  0  0  0  0  0  0  0  0  0  0
    2.6223   -2.6396   -0.3946 H   0  0  0  0  0  0  0  0  0  0  0  0
    2.7773   -1.2837    0.7453 H   0  0  0  0  0  0  0  0  0  0  0  0
    3.5640   -3.3036    1.8008 H   0  0  0  0  0  0  0  0  0  0  0  0
    4.8107   -3.5118    0.4730 H   0  0  0  0  0  0  0  0  0  0  0  0
    4.5902   -1.1077    2.3794 H   0  0  0  0  0  0  0  0  0  0  0  0
    5.8452   -1.3996    1.1381 H   0  0  0  0  0  0  0  0  0  0  0  0
    8.4762   -1.1445    2.0781 H   0  0  0  0  0  0  0  0  0  0  0  0
    7.7589   -2.1289    0.7601 H   0  0  0  0  0  0  0  0  0  0  0  0
    8.5554   -3.1709    4.3888 H   0  0  0  0  0  0  0  0  0  0  0  0
    7.9482   -4.5614    3.4891 H   0  0  0  0  0  0  0  0  0  0  0  0
    5.8313   -2.7543   -1.1541 H   0  0  0  0  0  0  0  0  0  0  0  0
  1  2  1  0
  2  3  2  3
  2  4  1  0
  4  5  1  0
  5  6  1  0
  6  7  1  0
  7  8  1  0
  8  9  1  0
  9 10  1  0
 10 11  2  0
 10 12  1  0
 12 13  1  0
 13 14  1  0
 14 15  2  0
 15 16  1  0
 16 17  2  0
 17 18  1  0
 18 19  2  0
 19 20  1  0
 20 21  1  0
  8 22  1  0
 22 23  2  0
 22 24  1  0
 24 25  1  0
 25 26  1  0
 26 27  1  0
 27 28  1  0
 28 29  1  0
 29 30  2  0
 29 31  1  0
 31 32  1  0
 32 33  1  0
 33 34  1  0
 34 35  1  0
 35 36  1  0
 36 37  2  3
 37 38  1  0
 37 39  1  0
 32 40  1  0
 40 41  2  0
 21 12  1  0
 28 24  1  0
 19 14  1  0
  1 42  1  0
  1 43  1  0
  3 44  1  0
  4 45  1  0
  5 46  1  0
  5 47  1  0
  6 48  1  0
  6 49  1  0
  7 50  1  0
  7 51  1  0
  8 52  1  6
  9 53  1  0
 12 54  1  1
 13 55  1  0
 13 56  1  0
 15 57  1  0
 16 58  1  0
 17 59  1  0
 18 60  1  0
 20 61  1  0
 20 62  1  0
 21 63  1  0
 25 64  1  0
 25 65  1  0
 26 66  1  0
 26 67  1  0
 27 68  1  0
 27 69  1  0
 28 70  1  6
 31 71  1  0
 32 72  1  1
 33 73  1  0
 33 74  1  0
 34 75  1  0
 34 76  1  0
 35 77  1  0
 35 78  1  0
 38 79  1  0
 38 80  1  0
 39 81  1  0
 39 82  1  0
 40 83  1  0
M  END
$$$$
[H]c1c([H])c([H])c2c(c1[H])c1c3c(c4c5c([H])c([H])c([H])c([H])c5n5c4c1n2[C@]1([H])O[C@]5(C([H])([H])[H])[C@@]([H])(OC([H])([H])[H])[C@]([H])(N([H])C([H])([H])[H])C1([H])[H])C([H])([H])N([H])C3=O
     RDKit          3D

 61 68  0  0  0  0  0  0  0  0999 V2000
   -5.0032    2.3015   -0.0847 C   0  0  0  0  0  0  0  0  0  0  0  0
   -4.2911    1.1206   -0.5239 N   0  0  0  0  0  0  0  0  0  0  0  0
   -3.1564    0.9314    0.3042 C   0  0  2  0  0  0  0  0  0  0  0  0
   -2.1540    2.1226    0.1663 C   0  0  0  0  0  0  0  0  0  0  0  0
   -0.9665    1.4540   -0.0205 C   0  0  1  0  0  0  0  0  0  0  0  0
   -1.1415    0.7448   -1.1981 O   0  0  0  0  0  0  0  0  0  0  0  0
   -1.4119   -0.5987   -0.7868 C   0  0  2  0  0  0  0  0  0  0  0  0
   -1.8712   -1.2254   -2.1322 C   0  0  0  0  0  0  0  0  0  0  0  0
   -2.4889   -0.4501    0.1598 C   0  0  1  0  0  0  0  0  0  0  0  0
   -2.3890   -1.1153    1.3880 O   0  0  0  0  0  0  0  0  0  0  0  0
   -3.3269   -2.1274    1.5521 C   0  0  0  0  0  0  0  0  0  0  0  0
   -0.1378   -1.2020   -0.4914 N   0  0  0  0  0  0  0  0  0  0  0  0
    0.1616   -2.5344   -0.6109 C   0  0  0  0  0  0  0  0  0  0  0  0
   -0.5901   -3.6465   -0.8619 C   0  0  0  0  0  0  0  0  0  0  0  0
    0.0056   -4.9014   -0.9123 C   0  0  0  0  0  0  0  0  0  0  0  0
    1.3589   -5.0700   -0.7130 C   0  0  0  0  0  0  0  0  0  0  0  0
    2.1437   -3.9569   -0.4556 C   0  0  0  0  0  0  0  0  0  0  0  0
    1.5172   -2.7445   -0.4151 C   0  0  0  0  0  0  0  0  0  0  0  0
    2.0596   -1.5148   -0.1645 C   0  0  0  0  0  0  0  0  0  0  0  0
    3.3310   -1.0167    0.0798 C   0  0  0  0  0  0  0  0  0  0  0  0
    4.6039   -1.7769    0.1721 C   0  0  0  0  0  0  0  0  0  0  0  0
    5.6037   -0.7850    0.4503 N   0  0  0  0  0  0  0  0  0  0  0  0
    5.0034    0.5280    0.5134 C   0  0  0  0  0  0  0  0  0  0  0  0
    5.7188    1.5160    0.7371 O   0  0  0  0  0  0  0  0  0  0  0  0
    3.6006    0.3262    0.2783 C   0  0  0  0  0  0  0  0  0  0  0  0
    2.5644    1.2461    0.2408 C   0  0  0  0  0  0  0  0  0  0  0  0
    2.4247    2.5831    0.4378 C   0  0  0  0  0  0  0  0  0  0  0  0
    3.2960    3.5951    0.7015 C   0  0  0  0  0  0  0  0  0  0  0  0
    2.7602    4.8881    0.8432 C   0  0  0  0  0  0  0  0  0  0  0  0
    1.4157    5.1498    0.7252 C   0  0  0  0  0  0  0  0  0  0  0  0
    0.5372    4.1127    0.4564 C   0  0  0  0  0  0  0  0  0  0  0  0
    1.0796    2.8483    0.3203 C   0  0  0  0  0  0  0  0  0  0  0  0
    0.4024    1.7469    0.0621 N   0  0  0  0  0  0  0  0  0  0  0  0
    1.3106    0.7318   -0.0025 C   0  0  0  0  0  0  0  0  0  0  0  0
    1.0507   -0.6266   -0.2113 C   0  0  0  0  0  0  0  0  0  0  0  0
   -4.4222    3.2206   -0.0758 H   0  0  0  0  0  0  0  0  0  0  0  0
   -5.9751    2.4312   -0.6421 H   0  0  0  0  0  0  0  0  0  0  0  0
   -5.3325    2.1331    0.9827 H   0  0  0  0  0  0  0  0  0  0  0  0
   -4.9231    0.3185   -0.4524 H   0  0  0  0  0  0  0  0  0  0  0  0
   -3.5204    0.9543    1.3717 H   0  0  0  0  0  0  0  0  0  0  0  0
   -2.2319    2.7634    1.0681 H   0  0  0  0  0  0  0  0  0  0  0  0
   -2.5549    2.7584   -0.6810 H   0  0  0  0  0  0  0  0  0  0  0  0
   -1.0177    0.7572    0.9341 H   0  0  0  0  0  0  0  0  0  0  0  0
   -2.1640   -0.4180   -2.8609 H   0  0  0  0  0  0  0  0  0  0  0  0
   -1.0623   -1.7738   -2.6232 H   0  0  0  0  0  0  0  0  0  0  0  0
   -2.8063   -1.7859   -1.9703 H   0  0  0  0  0  0  0  0  0  0  0  0
   -3.3692   -1.0206   -0.3155 H   0  0  0  0  0  0  0  0  0  0  0  0
   -4.3685   -1.7465    1.5031 H   0  0  0  0  0  0  0  0  0  0  0  0
   -3.1360   -2.7642    2.4105 H   0  0  0  0  0  0  0  0  0  0  0  0
   -3.2309   -2.7727    0.6280 H   0  0  0  0  0  0  0  0  0  0  0  0
   -1.6587   -3.5713   -1.0137 H   0  0  0  0  0  0  0  0  0  0  0  0
   -0.5879   -5.7740   -1.1105 H   0  0  0  0  0  0  0  0  0  0  0  0
    1.8233   -6.0462   -0.7522 H   0  0  0  0  0  0  0  0  0  0  0  0
    3.2016   -4.0714   -0.2980 H   0  0  0  0  0  0  0  0  0  0  0  0
    4.5688   -2.4736    1.0276 H   0  0  0  0  0  0  0  0  0  0  0  0
    4.8295   -2.3223   -0.7651 H   0  0  0  0  0  0  0  0  0  0  0  0
    6.6092   -1.0259    0.5823 H   0  0  0  0  0  0  0  0  0  0  0  0
    4.3503    3.4578    0.8021 H   0  0  0  0  0  0  0  0  0  0  0  0
    3.4660    5.6873    1.0540 H   0  0  0  0  0  0  0  0  0  0  0  0
    1.0161    6.1615    0.8387 H   0  0  0  0  0  0  0  0  0  0  0  0
   -0.5241    4.2689    0.3538 H   0  0  0  0  0  0  0  0  0  0  0  0
  1  2  1  0
  2  3  1  0
  3  4  1  0
  4  5  1  0
  5  6  1  0
  6  7  1  0
  7  8  1  6
  7  9  1  0
  9 10  1  0
 10 11  1  0
  7 12  1  0
 12 13  1  0
 13 14  2  0
 14 15  1  0
 15 16  2  0
 16 17  1  0
 17 18  2  0
 18 19  1  0
 19 20  2  0
 20 21  1  0
 21 22  1  0
 22 23  1  0
 23 24  2  0
 23 25  1  0
 25 26  2  0
 26 27  1  0
 27 28  2  0
 28 29  1  0
 29 30  2  0
 30 31  1  0
 31 32  2  0
 32 33  1  0
 33 34  1  0
 34 35  2  0
  9  3  1  0
 35 12  1  0
 33  5  1  0
 18 13  1  0
 35 19  1  0
 25 20  1  0
 34 26  1  0
 32 27  1  0
  1 36  1  0
  1 37  1  0
  1 38  1  0
  2 39  1  0
  3 40  1  1
  4 41  1  0
  4 42  1  0
  5 43  1  1
  8 44  1  0
  8 45  1  0
  8 46  1  0
  9 47  1  6
 11 48  1  0
 11 49  1  0
 11 50  1  0
 14 51  1  0
 15 52  1  0
 16 53  1  0
 17 54  1  0
 21 55  1  0
 21 56  1  0
 22 57  1  0
 28 58  1  0
 29 59  1  0
 30 60  1  0
 31 61  1  0
M  END
$$$$
[H]ON([H])C(=O)C([H])([H])N(C([H])([H])c1c([H])c([H])c([N+](=O)[O-])c([H])c1[H])S(=O)(=O)c1c([H])c([H])c(C(F)(F)F)c([H])c1[H]
     RDKit          3D

 43 44  0  0  0  0  0  0  0  0999 V2000
    0.1194    5.5947    1.4533 O   0  0  0  0  0  0  0  0  0  0  0  0
    0.6903    4.7289    0.6054 N   0  0  0  0  0  0  0  0  0  0  0  0
    0.3299    3.3406    0.4964 C   0  0  0  0  0  0  0  0  0  0  0  0
   -0.5893    2.9777    1.2754 O   0  0  0  0  0  0  0  0  0  0  0  0
    1.0410    2.5127   -0.4766 C   0  0  0  0  0  0  0  0  0  0  0  0
    0.6459    1.1903   -0.5567 N   0  0  0  0  0  0  0  0  0  0  0  0
    0.9457    0.2807    0.4683 C   0  0  0  0  0  0  0  0  0  0  0  0
    2.0116   -0.7060    0.2553 C   0  0  0  0  0  0  0  0  0  0  0  0
    1.7843   -1.9581   -0.2966 C   0  0  0  0  0  0  0  0  0  0  0  0
    2.7436   -2.9040   -0.5018 C   0  0  0  0  0  0  0  0  0  0  0  0
    4.0396   -2.6438   -0.1574 C   0  0  0  0  0  0  0  0  0  0  0  0
    4.3378   -1.3999    0.4011 C   0  0  0  0  0  0  0  0  0  0  0  0
    3.3385   -0.4628    0.5980 C   0  0  0  0  0  0  0  0  0  0  0  0
    5.0418   -3.6329   -0.3595 N   0  0  0  0  0  0  0  0  0  0  0  0
    6.3742   -3.4536   -0.0149 O   0  0  0  0  0  0  0  0  0  0  0  0
    4.7556   -4.7333   -0.8758 O   0  0  0  0  0  0  0  0  0  0  0  0
   -0.5510    0.7779   -1.6663 S   0  0  0  0  0  0  0  0  0  0  0  0
    0.0289   -0.2314   -2.6629 O   0  0  0  0  0  0  0  0  0  0  0  0
   -0.8392    1.9954   -2.5175 O   0  0  0  0  0  0  0  0  0  0  0  0
   -1.9934    0.1555   -0.9884 C   0  0  0  0  0  0  0  0  0  0  0  0
   -2.2076   -1.2264   -1.0317 C   0  0  0  0  0  0  0  0  0  0  0  0
   -3.3021   -1.8354   -0.5134 C   0  0  0  0  0  0  0  0  0  0  0  0
   -4.2747   -1.0597    0.0988 C   0  0  0  0  0  0  0  0  0  0  0  0
   -4.1326    0.3025    0.1825 C   0  0  0  0  0  0  0  0  0  0  0  0
   -2.9835    0.8821   -0.3733 C   0  0  0  0  0  0  0  0  0  0  0  0
   -5.4534   -1.7708    0.6799 C   0  0  0  0  0  0  0  0  0  0  0  0
   -5.1895   -3.1172    0.8135 F   0  0  0  0  0  0  0  0  0  0  0  0
   -6.5364   -1.6585   -0.1894 F   0  0  0  0  0  0  0  0  0  0  0  0
   -5.7785   -1.2992    1.9487 F   0  0  0  0  0  0  0  0  0  0  0  0
    0.1373    6.5539    1.1247 H   0  0  0  0  0  0  0  0  0  0  0  0
    1.4570    5.0996   -0.0109 H   0  0  0  0  0  0  0  0  0  0  0  0
    2.1409    2.6419   -0.3148 H   0  0  0  0  0  0  0  0  0  0  0  0
    0.8789    3.0204   -1.4797 H   0  0  0  0  0  0  0  0  0  0  0  0
   -0.0074   -0.1822    0.8331 H   0  0  0  0  0  0  0  0  0  0  0  0
    1.2684    0.8950    1.3828 H   0  0  0  0  0  0  0  0  0  0  0  0
    0.7871   -2.2207   -0.6072 H   0  0  0  0  0  0  0  0  0  0  0  0
    2.5639   -3.8997   -0.9438 H   0  0  0  0  0  0  0  0  0  0  0  0
    5.3520   -1.1908    0.6765 H   0  0  0  0  0  0  0  0  0  0  0  0
    3.6376    0.4860    1.0306 H   0  0  0  0  0  0  0  0  0  0  0  0
   -1.4341   -1.8320   -1.5340 H   0  0  0  0  0  0  0  0  0  0  0  0
   -3.4216   -2.9021   -0.5708 H   0  0  0  0  0  0  0  0  0  0  0  0
   -4.8865    0.9189    0.6677 H   0  0  0  0  0  0  0  0  0  0  0  0
   -2.8705    1.9660   -0.3211 H   0  0  0  0  0  0  0  0  0  0  0  0
  1  2  1  0
  2  3  1  0
  3  4  2  0
  3  5  1  0
  5  6  1  0
  6  7  1  0
  7  8  1  0
  8  9  2  0
  9 10  1  0
 10 11  2  0
 11 12  1  0
 12 13  2  0
 11 14  1  0
 14 15  1  0
 14 16  2  0
  6 17  1  0
 17 18  2  0
 17 19  2  0
 17 20  1  0
 20 21  2  0
 21 22  1  0
 22 23  2  0
 23 24  1  0
 24 25  2  0
 23 26  1  0
 26 27  1  0
 26 28  1  0
 26 29  1  0
 13  8  1  0
 25 20  1  0
  1 30  1  0
  2 31  1  0
  5 32  1  0
  5 33  1  0
  7 34  1  0
  7 35  1  0
  9 36  1  0
 10 37  1  0
 12 38  1  0
 13 39  1  0
 21 40  1  0
 22 41  1  0
 24 42  1  0
 25 43  1  0
M  CHG  2  14   1  15  -1
M  END
$$$$
[H]c1nc2c([H])c([H])c([H])c([H])c2c(-c2c([H])nn3c([H])c(-c4c([H])c([H])c(N([H])[H])c(OC([H])([H])[H])c4[H])c([H])nc23)c1[H]
     RDKit          3D

 45 49  0  0  0  0  0  0  0  0999 V2000
   -6.2313   -1.6983    0.0545 C   0  0  0  0  0  0  0  0  0  0  0  0
   -6.2659   -0.2752    0.1170 O   0  0  0  0  0  0  0  0  0  0  0  0
   -5.0824    0.4618    0.1152 C   0  0  0  0  0  0  0  0  0  0  0  0
   -3.8436   -0.1425    0.0527 C   0  0  0  0  0  0  0  0  0  0  0  0
   -2.6916    0.6090    0.0518 C   0  0  0  0  0  0  0  0  0  0  0  0
   -2.8477    1.9893    0.1169 C   0  0  0  0  0  0  0  0  0  0  0  0
   -4.0793    2.6018    0.1797 C   0  0  0  0  0  0  0  0  0  0  0  0
   -5.2330    1.8396    0.1797 C   0  0  0  0  0  0  0  0  0  0  0  0
   -6.5139    2.4350    0.2376 N   0  0  0  0  0  0  0  0  0  0  0  0
   -1.3483    0.0236   -0.0237 C   0  0  0  0  0  0  0  0  0  0  0  0
   -0.3162    0.7262   -0.6582 C   0  0  0  0  0  0  0  0  0  0  0  0
    0.9113    0.2032   -0.7342 N   0  0  0  0  0  0  0  0  0  0  0  0
    1.2156   -0.9944   -0.2197 C   0  0  0  0  0  0  0  0  0  0  0  0
    2.4021   -1.7413   -0.1741 C   0  0  0  0  0  0  0  0  0  0  0  0
    2.0685   -2.8908    0.4923 C   0  0  0  0  0  0  0  0  0  0  0  0
    0.7636   -2.8197    0.8161 N   0  0  0  0  0  0  0  0  0  0  0  0
    0.2429   -1.6869    0.3937 N   0  0  0  0  0  0  0  0  0  0  0  0
   -1.0320   -1.2032    0.5027 C   0  0  0  0  0  0  0  0  0  0  0  0
    3.6483   -1.2801   -0.7581 C   0  0  0  0  0  0  0  0  0  0  0  0
    4.1935   -1.8284   -1.9031 C   0  0  0  0  0  0  0  0  0  0  0  0
    5.3594   -1.3925   -2.4797 C   0  0  0  0  0  0  0  0  0  0  0  0
    6.0032   -0.3766   -1.8955 N   0  0  0  0  0  0  0  0  0  0  0  0
    5.5432    0.2169   -0.7763 C   0  0  0  0  0  0  0  0  0  0  0  0
    6.2532    1.2665   -0.2172 C   0  0  0  0  0  0  0  0  0  0  0  0
    5.8193    1.8987    0.9206 C   0  0  0  0  0  0  0  0  0  0  0  0
    4.6419    1.4497    1.4953 C   0  0  0  0  0  0  0  0  0  0  0  0
    3.9362    0.4049    0.9373 C   0  0  0  0  0  0  0  0  0  0  0  0
    4.3519   -0.2342   -0.1935 C   0  0  0  0  0  0  0  0  0  0  0  0
   -5.5646   -1.9333   -0.8246 H   0  0  0  0  0  0  0  0  0  0  0  0
   -5.8966   -2.1642    0.9796 H   0  0  0  0  0  0  0  0  0  0  0  0
   -7.2885   -1.9994   -0.2036 H   0  0  0  0  0  0  0  0  0  0  0  0
   -3.7643   -1.2190    0.0045 H   0  0  0  0  0  0  0  0  0  0  0  0
   -1.9494    2.6122    0.1204 H   0  0  0  0  0  0  0  0  0  0  0  0
   -4.1584    3.6929    0.2306 H   0  0  0  0  0  0  0  0  0  0  0  0
   -6.6793    3.2365    0.8794 H   0  0  0  0  0  0  0  0  0  0  0  0
   -7.3205    2.1124   -0.3375 H   0  0  0  0  0  0  0  0  0  0  0  0
   -0.5826    1.6884   -1.0652 H   0  0  0  0  0  0  0  0  0  0  0  0
    2.7775   -3.6893    0.6937 H   0  0  0  0  0  0  0  0  0  0  0  0
   -1.8017   -1.7693    0.9982 H   0  0  0  0  0  0  0  0  0  0  0  0
    3.6671   -2.6524   -2.3709 H   0  0  0  0  0  0  0  0  0  0  0  0
    5.7891   -1.8237   -3.3784 H   0  0  0  0  0  0  0  0  0  0  0  0
    7.1798    1.5885   -0.7084 H   0  0  0  0  0  0  0  0  0  0  0  0
    6.3896    2.7245    1.3470 H   0  0  0  0  0  0  0  0  0  0  0  0
    4.3146    1.9453    2.3767 H   0  0  0  0  0  0  0  0  0  0  0  0
    3.0189    0.0876    1.4314 H   0  0  0  0  0  0  0  0  0  0  0  0
  1  2  1  0
  2  3  1  0
  3  4  2  0
  4  5  1  0
  5  6  2  0
  6  7  1  0
  7  8  2  0
  8  9  1  0
  5 10  1  0
 10 11  1  0
 11 12  2  0
 12 13  1  0
 13 14  2  0
 14 15  1  0
 15 16  2  0
 16 17  1  0
 17 18  1  0
 14 19  1  0
 19 20  2  0
 20 21  1  0
 21 22  2  0
 22 23  1  0
 23 24  2  0
 24 25  1  0
 25 26  2  0
 26 27  1  0
 27 28  2  0
  8  3  1  0
 18 10  2  0
 28 19  1  0
 17 13  1  0
 28 23  1  0
  1 29  1  0
  1 30  1  0
  1 31  1  0
  4 32  1  0
  6 33  1  0
  7 34  1  0
  9 35  1  0
  9 36  1  0
 11 37  1  0
 15 38  1  0
 18 39  1  0
 20 40  1  0
 21 41  1  0
 24 42  1  0
 25 43  1  0
 26 44  1  0
 27 45  1  0
M  END
$$$$
[H]c1nc(N([H])c2c([H])c(OC([H])([H])[H])c(OC([H])([H])[H])c(OC([H])([H])[H])c2[H])nc(N([H])c2c([H])c([H])c([H])c([H])c2S(=O)(=O)C([H])(C([H])([H])[H])C([H])([H])[H])c1Cl
     RDKit          3D

 58 60  0  0  0  0  0  0  0  0999 V2000
    4.8824    1.6327    3.2650 C   0  0  0  0  0  0  0  0  0  0  0  0
    5.6399    0.8530    2.3637 O   0  0  0  0  0  0  0  0  0  0  0  0
    5.0338    0.3601    1.2287 C   0  0  0  0  0  0  0  0  0  0  0  0
    3.6917    0.6382    0.9915 C   0  0  0  0  0  0  0  0  0  0  0  0
    3.0898    0.1472   -0.1364 C   0  0  0  0  0  0  0  0  0  0  0  0
    1.7154    0.3610   -0.4381 N   0  0  0  0  0  0  0  0  0  0  0  0
    0.6772    0.6239    0.4691 C   0  0  0  0  0  0  0  0  0  0  0  0
    0.8466    0.6942    1.7901 N   0  0  0  0  0  0  0  0  0  0  0  0
   -0.2050    0.9505    2.5712 C   0  0  0  0  0  0  0  0  0  0  0  0
   -1.4496    1.1444    2.0779 C   0  0  0  0  0  0  0  0  0  0  0  0
   -2.8417    1.4977    3.0729 Cl  0  0  0  0  0  0  0  0  0  0  0  0
   -1.6634    1.0760    0.6823 C   0  0  0  0  0  0  0  0  0  0  0  0
   -2.9612    1.2262    0.1687 N   0  0  0  0  0  0  0  0  0  0  0  0
   -3.3267    1.2497   -1.1821 C   0  0  0  0  0  0  0  0  0  0  0  0
   -2.4002    1.5948   -2.1772 C   0  0  0  0  0  0  0  0  0  0  0  0
   -2.8144    1.7392   -3.4931 C   0  0  0  0  0  0  0  0  0  0  0  0
   -4.1208    1.5535   -3.8588 C   0  0  0  0  0  0  0  0  0  0  0  0
   -5.0009    1.2187   -2.8777 C   0  0  0  0  0  0  0  0  0  0  0  0
   -4.6623    1.0509   -1.5223 C   0  0  0  0  0  0  0  0  0  0  0  0
   -5.8537    0.5101   -0.3977 S   0  0  0  0  0  0  0  0  0  0  0  0
   -7.2166    0.6180   -1.1260 O   0  0  0  0  0  0  0  0  0  0  0  0
   -6.0430    1.4106    0.7926 O   0  0  0  0  0  0  0  0  0  0  0  0
   -5.7296   -1.1786    0.0786 C   0  0  0  0  0  0  0  0  0  0  0  0
   -7.0096   -1.5985    0.8518 C   0  0  0  0  0  0  0  0  0  0  0  0
   -4.5958   -1.5553    0.9554 C   0  0  0  0  0  0  0  0  0  0  0  0
   -0.5528    0.8152   -0.0201 N   0  0  0  0  0  0  0  0  0  0  0  0
    3.8416   -0.6336   -1.0434 C   0  0  0  0  0  0  0  0  0  0  0  0
    5.1615   -0.9085   -0.8134 C   0  0  0  0  0  0  0  0  0  0  0  0
    5.9293   -1.6647   -1.6714 O   0  0  0  0  0  0  0  0  0  0  0  0
    5.3608   -2.1980   -2.8543 C   0  0  0  0  0  0  0  0  0  0  0  0
    5.7283   -0.3902    0.3434 C   0  0  0  0  0  0  0  0  0  0  0  0
    7.0676   -0.6717    0.5733 O   0  0  0  0  0  0  0  0  0  0  0  0
    7.5046   -1.8089    1.2911 C   0  0  0  0  0  0  0  0  0  0  0  0
    4.4833    2.4962    2.7079 H   0  0  0  0  0  0  0  0  0  0  0  0
    4.0719    0.9762    3.6493 H   0  0  0  0  0  0  0  0  0  0  0  0
    5.5689    1.9622    4.0728 H   0  0  0  0  0  0  0  0  0  0  0  0
    3.1602    1.2723    1.7281 H   0  0  0  0  0  0  0  0  0  0  0  0
    1.4625    0.3157   -1.4758 H   0  0  0  0  0  0  0  0  0  0  0  0
   -0.0996    1.0154    3.6675 H   0  0  0  0  0  0  0  0  0  0  0  0
   -3.7205    1.3557    0.8697 H   0  0  0  0  0  0  0  0  0  0  0  0
   -1.3745    1.7671   -1.9145 H   0  0  0  0  0  0  0  0  0  0  0  0
   -2.0560    2.0053   -4.2154 H   0  0  0  0  0  0  0  0  0  0  0  0
   -4.4633    1.6657   -4.8958 H   0  0  0  0  0  0  0  0  0  0  0  0
   -6.0518    1.0663   -3.1550 H   0  0  0  0  0  0  0  0  0  0  0  0
   -5.7948   -1.8130   -0.8585 H   0  0  0  0  0  0  0  0  0  0  0  0
   -7.9006   -1.1390    0.3764 H   0  0  0  0  0  0  0  0  0  0  0  0
   -7.0236   -2.7025    0.8401 H   0  0  0  0  0  0  0  0  0  0  0  0
   -6.8857   -1.2636    1.9023 H   0  0  0  0  0  0  0  0  0  0  0  0
   -3.6585   -1.6702    0.3813 H   0  0  0  0  0  0  0  0  0  0  0  0
   -4.7638   -2.5586    1.4495 H   0  0  0  0  0  0  0  0  0  0  0  0
   -4.4912   -0.8118    1.7449 H   0  0  0  0  0  0  0  0  0  0  0  0
    3.3423   -1.0005   -1.9126 H   0  0  0  0  0  0  0  0  0  0  0  0
    6.1695   -2.5284   -3.5681 H   0  0  0  0  0  0  0  0  0  0  0  0
    4.7353   -1.4024   -3.3469 H   0  0  0  0  0  0  0  0  0  0  0  0
    4.7408   -3.0494   -2.5763 H   0  0  0  0  0  0  0  0  0  0  0  0
    7.0243   -1.7711    2.2923 H   0  0  0  0  0  0  0  0  0  0  0  0
    8.6009   -1.7900    1.3237 H   0  0  0  0  0  0  0  0  0  0  0  0
    7.2009   -2.7555    0.8010 H   0  0  0  0  0  0  0  0  0  0  0  0
  1  2  1  0
  2  3  1  0
  3  4  2  0
  4  5  1  0
  5  6  1  0
  6  7  1  0
  7  8  2  0
  8  9  1  0
  9 10  2  0
 10 11  1  0
 10 12  1  0
 12 13  1  0
 13 14  1  0
 14 15  2  0
 15 16  1  0
 16 17  2  0
 17 18  1  0
 18 19  2  0
 19 20  1  0
 20 21  2  0
 20 22  2  0
 20 23  1  0
 23 24  1  0
 23 25  1  0
 12 26  2  0
  5 27  2  0
 27 28  1  0
 28 29  1  0
 29 30  1  0
 28 31  2  0
 31 32  1  0
 32 33  1  0
 31  3  1  0
 26  7  1  0
 19 14  1  0
  1 34  1  0
  1 35  1  0
  1 36  1  0
  4 37  1  0
  6 38  1  0
  9 39  1  0
 13 40  1  0
 15 41  1  0
 16 42  1  0
 17 43  1  0
 18 44  1  0
 23 45  1  0
 24 46  1  0
 24 47  1  0
 24 48  1  0
 25 49  1  0
 25 50  1  0
 25 51  1  0
 27 52  1  0
 30 53  1  0
 30 54  1  0
 30 55  1  0
 33 56  1  0
 33 57  1  0
 33 58  1  0
M  END
$$$$
[H]c1nc([H])c2sc(C(=O)N([H])C([H])([H])[H])c([H])c2c1Oc1c([H])c([H])c(N([H])C(=O)c2c([H])c([H])c(Cl)c(C(F)(F)F)c2[H])c([H])c1[H]
     RDKit          3D

 49 52  0  0  0  0  0  0  0  0999 V2000
    8.8916    2.6829    0.0100 C   0  0  0  0  0  0  0  0  0  0  0  0
    7.7405    1.8186   -0.0312 N   0  0  0  0  0  0  0  0  0  0  0  0
    7.8998    0.4452   -0.2500 C   0  0  0  0  0  0  0  0  0  0  0  0
    9.0519   -0.0230   -0.4093 O   0  0  0  0  0  0  0  0  0  0  0  0
    6.7786   -0.4951   -0.3049 C   0  0  0  0  0  0  0  0  0  0  0  0
    5.4399   -0.2492   -0.1647 C   0  0  0  0  0  0  0  0  0  0  0  0
    4.6006   -1.2993   -0.2578 C   0  0  0  0  0  0  0  0  0  0  0  0
    3.1963   -1.3028   -0.1500 C   0  0  0  0  0  0  0  0  0  0  0  0
    2.4963   -0.1151    0.0826 O   0  0  0  0  0  0  0  0  0  0  0  0
    1.1061   -0.1037    0.1915 C   0  0  0  0  0  0  0  0  0  0  0  0
    0.4728   -0.2714    1.4032 C   0  0  0  0  0  0  0  0  0  0  0  0
   -0.8923   -0.2582    1.4990 C   0  0  0  0  0  0  0  0  0  0  0  0
   -1.7209   -0.0741    0.3746 C   0  0  0  0  0  0  0  0  0  0  0  0
   -3.1318   -0.0902    0.5567 N   0  0  0  0  0  0  0  0  0  0  0  0
   -4.1024    0.3517   -0.3691 C   0  0  0  0  0  0  0  0  0  0  0  0
   -3.8053    0.8415   -1.5155 O   0  0  0  0  0  0  0  0  0  0  0  0
   -5.5302    0.2880   -0.0961 C   0  0  0  0  0  0  0  0  0  0  0  0
   -6.0009   -0.5040    0.9107 C   0  0  0  0  0  0  0  0  0  0  0  0
   -7.3552   -0.5638    1.1818 C   0  0  0  0  0  0  0  0  0  0  0  0
   -8.2188    0.1763    0.4336 C   0  0  0  0  0  0  0  0  0  0  0  0
   -9.9391    0.0668    0.8176 Cl  0  0  0  0  0  0  0  0  0  0  0  0
   -7.7667    0.9784   -0.5827 C   0  0  0  0  0  0  0  0  0  0  0  0
   -6.4181    1.0262   -0.8387 C   0  0  0  0  0  0  0  0  0  0  0  0
   -8.7097    1.7669   -1.3766 C   0  0  0  0  0  0  0  0  0  0  0  0
   -9.4117    2.6546   -0.5543 F   0  0  0  0  0  0  0  0  0  0  0  0
   -8.1069    2.4200   -2.4299 F   0  0  0  0  0  0  0  0  0  0  0  0
   -9.6953    0.9314   -1.9184 F   0  0  0  0  0  0  0  0  0  0  0  0
   -1.0698    0.0899   -0.8185 C   0  0  0  0  0  0  0  0  0  0  0  0
    0.3187    0.0764   -0.9137 C   0  0  0  0  0  0  0  0  0  0  0  0
    2.4789   -2.4601   -0.2687 C   0  0  0  0  0  0  0  0  0  0  0  0
    3.0538   -3.6624   -0.4938 N   0  0  0  0  0  0  0  0  0  0  0  0
    4.3935   -3.6931   -0.6018 C   0  0  0  0  0  0  0  0  0  0  0  0
    5.1615   -2.5253   -0.4854 C   0  0  0  0  0  0  0  0  0  0  0  0
    6.8311   -2.1750   -0.5616 S   0  0  0  0  0  0  0  0  0  0  0  0
    9.0052    3.2109    0.9788 H   0  0  0  0  0  0  0  0  0  0  0  0
    9.8231    2.0978   -0.1361 H   0  0  0  0  0  0  0  0  0  0  0  0
    8.8365    3.3934   -0.8482 H   0  0  0  0  0  0  0  0  0  0  0  0
    6.7923    2.2155    0.1016 H   0  0  0  0  0  0  0  0  0  0  0  0
    5.1092    0.8007    0.0187 H   0  0  0  0  0  0  0  0  0  0  0  0
    1.0747   -0.4137    2.2781 H   0  0  0  0  0  0  0  0  0  0  0  0
   -1.4196   -0.3879    2.4464 H   0  0  0  0  0  0  0  0  0  0  0  0
   -3.5173   -0.4657    1.4707 H   0  0  0  0  0  0  0  0  0  0  0  0
   -5.3757   -1.1314    1.5542 H   0  0  0  0  0  0  0  0  0  0  0  0
   -7.7137   -1.1984    1.9859 H   0  0  0  0  0  0  0  0  0  0  0  0
   -6.0726    1.6722   -1.6544 H   0  0  0  0  0  0  0  0  0  0  0  0
   -1.6363    0.2266   -1.7431 H   0  0  0  0  0  0  0  0  0  0  0  0
    0.7582    0.2161   -1.9117 H   0  0  0  0  0  0  0  0  0  0  0  0
    1.3790   -2.3863   -0.1727 H   0  0  0  0  0  0  0  0  0  0  0  0
    4.9202   -4.5986   -0.7786 H   0  0  0  0  0  0  0  0  0  0  0  0
  1  2  1  0
  2  3  1  0
  3  4  2  0
  3  5  1  0
  5  6  2  0
  6  7  1  0
  7  8  2  0
  8  9  1  0
  9 10  1  0
 10 11  2  0
 11 12  1  0
 12 13  2  0
 13 14  1  0
 14 15  1  0
 15 16  2  0
 15 17  1  0
 17 18  2  0
 18 19  1  0
 19 20  2  0
 20 21  1  0
 20 22  1  0
 22 23  2  0
 22 24  1  0
 24 25  1  0
 24 26  1  0
 24 27  1  0
 13 28  1  0
 28 29  2  0
  8 30  1  0
 30 31  2  0
 31 32  1  0
 32 33  2  0
 33 34  1  0
 34  5  1  0
 33  7  1  0
 29 10  1  0
 23 17  1  0
  1 35  1  0
  1 36  1  0
  1 37  1  0
  2 38  1  0
  6 39  1  0
 11 40  1  0
 12 41  1  0
 14 42  1  0
 18 43  1  0
 19 44  1  0
 23 45  1  0
 28 46  1  0
 29 47  1  0
 30 48  1  0
 32 49  1  0
M  END
$$$$
[H]c1nc([H])c(-c2c(O[C@@]3([H])C([H])([H])OC([H])([H])C3([H])[H])c([H])c3sc(N([H])C(=O)N([H])C([H])([H])C([H])([H])[H])nc3c2[H])c([H])c1[H]
     RDKit          3D

 47 50  0  0  0  0  0  0  0  0999 V2000
    8.7335   -0.7822    0.2884 C   0  0  0  0  0  0  0  0  0  0  0  0
    8.0658    0.4041    1.0270 C   0  0  0  0  0  0  0  0  0  0  0  0
    6.7196    0.4682    0.8413 N   0  0  0  0  0  0  0  0  0  0  0  0
    5.3799    0.5319    0.6565 C   0  0  0  0  0  0  0  0  0  0  0  0
    4.5602    1.3842    1.1263 O   0  0  0  0  0  0  0  0  0  0  0  0
    4.6958   -0.4625   -0.1622 N   0  0  0  0  0  0  0  0  0  0  0  0
    3.2781   -0.4765   -0.3355 C   0  0  0  0  0  0  0  0  0  0  0  0
    2.3518    0.3133    0.1619 N   0  0  0  0  0  0  0  0  0  0  0  0
    1.0866    0.0951   -0.0909 C   0  0  0  0  0  0  0  0  0  0  0  0
    0.0117    0.8488    0.4113 C   0  0  0  0  0  0  0  0  0  0  0  0
   -1.2847    0.4746    0.0885 C   0  0  0  0  0  0  0  0  0  0  0  0
   -2.3486    1.3726    0.5653 C   0  0  0  0  0  0  0  0  0  0  0  0
   -3.0434    2.1871   -0.3088 C   0  0  0  0  0  0  0  0  0  0  0  0
   -4.0411    3.0326    0.1588 C   0  0  0  0  0  0  0  0  0  0  0  0
   -4.3293    3.0506    1.5080 C   0  0  0  0  0  0  0  0  0  0  0  0
   -3.6597    2.2694    2.3408 N   0  0  0  0  0  0  0  0  0  0  0  0
   -2.6756    1.4309    1.8963 C   0  0  0  0  0  0  0  0  0  0  0  0
   -1.6357   -0.5906   -0.6946 C   0  0  0  0  0  0  0  0  0  0  0  0
   -2.8086   -1.0713   -1.0725 O   0  0  0  0  0  0  0  0  0  0  0  0
   -4.0901   -0.9669   -0.8077 C   0  0  2  0  0  0  0  0  0  0  0  0
   -4.5868   -2.4456   -0.5290 C   0  0  0  0  0  0  0  0  0  0  0  0
   -6.0600   -2.1931   -0.5559 C   0  0  0  0  0  0  0  0  0  0  0  0
   -6.2899   -0.9843   -1.1906 O   0  0  0  0  0  0  0  0  0  0  0  0
   -5.0988   -0.6541   -1.8954 C   0  0  0  0  0  0  0  0  0  0  0  0
   -0.5213   -1.3273   -1.1912 C   0  0  0  0  0  0  0  0  0  0  0  0
    0.7695   -0.9704   -0.8820 C   0  0  0  0  0  0  0  0  0  0  0  0
    2.3345   -1.6126   -1.2288 S   0  0  0  0  0  0  0  0  0  0  0  0
    8.6960   -0.5619   -0.7900 H   0  0  0  0  0  0  0  0  0  0  0  0
    8.2250   -1.7113    0.5685 H   0  0  0  0  0  0  0  0  0  0  0  0
    9.7959   -0.8649    0.5888 H   0  0  0  0  0  0  0  0  0  0  0  0
    8.6112    1.3443    0.7004 H   0  0  0  0  0  0  0  0  0  0  0  0
    8.4408    0.2616    2.0836 H   0  0  0  0  0  0  0  0  0  0  0  0
    6.6666    1.5623    1.6798 H   0  0  0  0  0  0  0  0  0  0  0  0
    5.2374   -1.2035   -0.6484 H   0  0  0  0  0  0  0  0  0  0  0  0
    0.1727    1.7203    1.0452 H   0  0  0  0  0  0  0  0  0  0  0  0
   -2.8544    2.2111   -1.3700 H   0  0  0  0  0  0  0  0  0  0  0  0
   -4.6028    3.6764   -0.4823 H   0  0  0  0  0  0  0  0  0  0  0  0
   -5.1125    3.7120    1.8967 H   0  0  0  0  0  0  0  0  0  0  0  0
   -2.1958    0.8418    2.6622 H   0  0  0  0  0  0  0  0  0  0  0  0
   -4.3929   -0.3817    0.0887 H   0  0  0  0  0  0  0  0  0  0  0  0
   -4.1913   -3.0608   -1.3341 H   0  0  0  0  0  0  0  0  0  0  0  0
   -4.1443   -2.6897    0.4346 H   0  0  0  0  0  0  0  0  0  0  0  0
   -6.6216   -2.9896   -1.0903 H   0  0  0  0  0  0  0  0  0  0  0  0
   -6.3845   -2.1557    0.5252 H   0  0  0  0  0  0  0  0  0  0  0  0
   -5.1615    0.4277   -2.1039 H   0  0  0  0  0  0  0  0  0  0  0  0
   -5.0291   -1.2972   -2.7672 H   0  0  0  0  0  0  0  0  0  0  0  0
   -0.6683   -2.1676   -1.8131 H   0  0  0  0  0  0  0  0  0  0  0  0
  1  2  1  0
  2  3  1  0
  3  4  1  0
  4  5  2  0
  4  6  1  0
  6  7  1  0
  7  8  2  0
  8  9  1  0
  9 10  2  0
 10 11  1  0
 11 12  1  0
 12 13  2  0
 13 14  1  0
 14 15  2  0
 15 16  1  0
 16 17  2  0
 11 18  2  0
 18 19  1  0
 19 20  1  0
 20 21  1  0
 21 22  1  0
 22 23  1  0
 23 24  1  0
 18 25  1  0
 25 26  2  0
 26 27  1  0
 27  7  1  0
 26  9  1  0
 17 12  1  0
 24 20  1  0
  1 28  1  0
  1 29  1  0
  1 30  1  0
  2 31  1  0
  2 32  1  0
  3 33  1  0
  6 34  1  0
 10 35  1  0
 13 36  1  0
 14 37  1  0
 15 38  1  0
 17 39  1  0
 20 40  1  1
 21 41  1  0
 21 42  1  0
 22 43  1  0
 22 44  1  0
 24 45  1  0
 24 46  1  0
 25 47  1  0
M  END
$$$$
[H]N=C(N([H])[H])N([H])C([H])([H])C([H])([H])C([H])([H])[C@@]([H])(C(=O)N([H])[C@]([H])(C(=O)N([H])C([H])([H])c1c([H])c([H])c([H])c([H])c1[H])C([H])([H])C([H])([H])C([H])([H])N=C(N([H])[H])N([H])[H])N([H])C(=O)[C@@]([H])(N([H])C(=O)[C@@]([H])(N([H])C(=O)[C@@]([H])(N([H])C(=O)[C@@]([H])(N([H])C(=O)[C@@]([H])(N([H])C(=O)C([H])([H])[H])C([H])(C([H])([H])[H])C([H])([H])[H])C([H])([H])C([H])([H])C(=O)N([H])[H])C([H])([H])C([H])([H])C(=O)N([H])[H])C([H])([H])C([H])(C([H])([H])[H])C([H])([H])[H])[C@@]([H])(C([H])([H])[H])C([H])([H])C([H])([H])[H]
     RDKit          3D

156156  0  0  0  0  0  0  0  0999 V2000
    3.3566   -2.8386   -3.5538 C   0  0  0  0  0  0  0  0  0  0  0  0
    2.4142   -2.0952   -2.5780 C   0  0  0  0  0  0  0  0  0  0  0  0
    1.2320   -3.0379   -2.4302 C   0  0  0  0  0  0  0  0  0  0  0  0
    3.0887   -1.7924   -1.3222 C   0  0  0  0  0  0  0  0  0  0  0  0
    2.5053   -1.0914   -0.1843 C   0  0  2  0  0  0  0  0  0  0  0  0
    3.5187   -0.9975    0.9000 N   0  0  0  0  0  0  0  0  0  0  0  0
    4.2631    0.1516    1.1299 C   0  0  0  0  0  0  0  0  0  0  0  0
    4.0363    1.1440    0.3575 O   0  0  0  0  0  0  0  0  0  0  0  0
    5.3059    0.3755    2.1678 C   0  0  2  0  0  0  0  0  0  0  0  0
    4.7858    0.9220    3.4358 C   0  0  0  0  0  0  0  0  0  0  0  0
    4.1059    2.2461    3.3312 C   0  0  0  0  0  0  0  0  0  0  0  0
    3.6114    2.6753    4.6644 C   0  0  0  0  0  0  0  0  0  0  0  0
    2.9456    3.9455    4.8233 N   0  0  0  0  0  0  0  0  0  0  0  0
    3.7285    1.9963    5.7134 O   0  0  0  0  0  0  0  0  0  0  0  0
    6.3979    1.1610    1.5859 N   0  0  0  0  0  0  0  0  0  0  0  0
    7.5017    0.5654    0.9682 C   0  0  0  0  0  0  0  0  0  0  0  0
    7.5452   -0.6925    0.9207 O   0  0  0  0  0  0  0  0  0  0  0  0
    8.5908    1.3407    0.3787 C   0  0  2  0  0  0  0  0  0  0  0  0
    8.1208    2.2967   -0.7194 C   0  0  0  0  0  0  0  0  0  0  0  0
    7.4727    1.4615   -1.7958 C   0  0  0  0  0  0  0  0  0  0  0  0
    6.9840    2.2828   -2.9175 C   0  0  0  0  0  0  0  0  0  0  0  0
    6.3733    1.6990   -4.0587 N   0  0  0  0  0  0  0  0  0  0  0  0
    7.1040    3.5122   -2.8729 O   0  0  0  0  0  0  0  0  0  0  0  0
    9.5801    0.4760   -0.2447 N   0  0  0  0  0  0  0  0  0  0  0  0
   10.9612    0.6767   -0.1115 C   0  0  0  0  0  0  0  0  0  0  0  0
   11.3551    1.6642    0.5814 O   0  0  0  0  0  0  0  0  0  0  0  0
   11.9967   -0.1780   -0.7235 C   0  0  1  0  0  0  0  0  0  0  0  0
   13.3049    0.4692   -0.6858 N   0  0  0  0  0  0  0  0  0  0  0  0
   14.0499    0.7139   -1.8571 C   0  0  0  0  0  0  0  0  0  0  0  0
   15.3792    1.3620   -1.9027 C   0  0  0  0  0  0  0  0  0  0  0  0
   13.5468    0.3519   -2.9654 O   0  0  0  0  0  0  0  0  0  0  0  0
   12.1158   -1.5478   -0.0480 C   0  0  0  0  0  0  0  0  0  0  0  0
   10.8231   -2.2871   -0.1355 C   0  0  0  0  0  0  0  0  0  0  0  0
   12.4720   -1.4009    1.4094 C   0  0  0  0  0  0  0  0  0  0  0  0
    1.3161   -1.5512    0.4852 C   0  0  0  0  0  0  0  0  0  0  0  0
    1.4595   -2.5273    1.2750 O   0  0  0  0  0  0  0  0  0  0  0  0
    0.0122   -1.0812    0.3964 N   0  0  0  0  0  0  0  0  0  0  0  0
   -1.1946   -1.5058    1.0124 C   0  0  1  0  0  0  0  0  0  0  0  0
   -1.5181   -0.8129    2.3140 C   0  0  1  0  0  0  0  0  0  0  0  0
   -0.4049   -1.0924    3.3124 C   0  0  0  0  0  0  0  0  0  0  0  0
   -1.7542    0.6290    2.3153 C   0  0  0  0  0  0  0  0  0  0  0  0
   -2.8885    1.1835    1.5024 C   0  0  0  0  0  0  0  0  0  0  0  0
   -2.3399   -1.4815    0.0832 C   0  0  0  0  0  0  0  0  0  0  0  0
   -2.1744   -1.0107   -1.0687 O   0  0  0  0  0  0  0  0  0  0  0  0
   -3.6042   -1.9560    0.4393 N   0  0  0  0  0  0  0  0  0  0  0  0
   -4.7468   -1.8740   -0.4772 C   0  0  1  0  0  0  0  0  0  0  0  0
   -5.0690   -3.1654   -1.1507 C   0  0  0  0  0  0  0  0  0  0  0  0
   -5.4074   -4.3006   -0.2300 C   0  0  0  0  0  0  0  0  0  0  0  0
   -5.7692   -5.5569   -1.0259 C   0  0  0  0  0  0  0  0  0  0  0  0
   -6.9074   -5.3204   -1.8551 N   0  0  0  0  0  0  0  0  0  0  0  0
   -7.4136   -6.3124   -2.7097 C   0  0  0  0  0  0  0  0  0  0  0  0
   -7.1649   -7.6754   -2.4302 N   0  0  0  0  0  0  0  0  0  0  0  0
   -8.1088   -6.0303   -3.7663 N   0  0  0  0  0  0  0  0  0  0  0  0
   -5.8742   -1.3006    0.2731 C   0  0  0  0  0  0  0  0  0  0  0  0
   -5.8510   -1.3195    1.5577 O   0  0  0  0  0  0  0  0  0  0  0  0
   -7.0379   -0.6938   -0.3039 N   0  0  0  0  0  0  0  0  0  0  0  0
   -8.0795   -0.1644    0.5699 C   0  0  1  0  0  0  0  0  0  0  0  0
   -7.6302    1.2490    1.0257 C   0  0  0  0  0  0  0  0  0  0  0  0
   -7.4257    2.1498   -0.1754 C   0  0  0  0  0  0  0  0  0  0  0  0
   -7.0012    3.5046    0.3846 C   0  0  0  0  0  0  0  0  0  0  0  0
   -6.7877    4.4652   -0.7009 N   0  0  0  0  0  0  0  0  0  0  0  0
   -7.1749    5.6845   -0.5239 C   0  0  0  0  0  0  0  0  0  0  0  0
   -7.7992    6.0736    0.7154 N   0  0  0  0  0  0  0  0  0  0  0  0
   -6.9775    6.6189   -1.5726 N   0  0  0  0  0  0  0  0  0  0  0  0
   -9.4113   -0.0882   -0.0155 C   0  0  0  0  0  0  0  0  0  0  0  0
   -9.5918   -0.2649   -1.2512 O   0  0  0  0  0  0  0  0  0  0  0  0
  -10.5703    0.1853    0.7767 N   0  0  0  0  0  0  0  0  0  0  0  0
  -11.8959    0.2898    0.2550 C   0  0  0  0  0  0  0  0  0  0  0  0
  -12.2100    1.6561   -0.2902 C   0  0  0  0  0  0  0  0  0  0  0  0
  -11.3605    2.7209   -0.0925 C   0  0  0  0  0  0  0  0  0  0  0  0
  -11.7017    3.9602   -0.5833 C   0  0  0  0  0  0  0  0  0  0  0  0
  -12.8736    4.1866   -1.2740 C   0  0  0  0  0  0  0  0  0  0  0  0
  -13.7067    3.0831   -1.4539 C   0  0  0  0  0  0  0  0  0  0  0  0
  -13.3730    1.8441   -0.9679 C   0  0  0  0  0  0  0  0  0  0  0  0
    2.8806   -3.6882   -4.0333 H   0  0  0  0  0  0  0  0  0  0  0  0
    3.8029   -2.1120   -4.2658 H   0  0  0  0  0  0  0  0  0  0  0  0
    4.2248   -3.2237   -2.9561 H   0  0  0  0  0  0  0  0  0  0  0  0
    2.0328   -1.2687   -3.1854 H   0  0  0  0  0  0  0  0  0  0  0  0
    1.4264   -3.6482   -1.5126 H   0  0  0  0  0  0  0  0  0  0  0  0
    1.1840   -3.7069   -3.2864 H   0  0  0  0  0  0  0  0  0  0  0  0
    0.3065   -2.4277   -2.3115 H   0  0  0  0  0  0  0  0  0  0  0  0
    3.4528   -2.7942   -0.9187 H   0  0  0  0  0  0  0  0  0  0  0  0
    4.0714   -1.3175   -1.5826 H   0  0  0  0  0  0  0  0  0  0  0  0
    2.3648   -0.0385   -0.4672 H   0  0  0  0  0  0  0  0  0  0  0  0
    3.6877   -1.8273    1.5284 H   0  0  0  0  0  0  0  0  0  0  0  0
    5.7393   -0.6223    2.3697 H   0  0  0  0  0  0  0  0  0  0  0  0
    4.0852    0.1877    3.8779 H   0  0  0  0  0  0  0  0  0  0  0  0
    5.6241    1.0341    4.1507 H   0  0  0  0  0  0  0  0  0  0  0  0
    3.2054    2.1440    2.6888 H   0  0  0  0  0  0  0  0  0  0  0  0
    4.7277    3.0305    2.8534 H   0  0  0  0  0  0  0  0  0  0  0  0
    2.2997    4.2211    4.0515 H   0  0  0  0  0  0  0  0  0  0  0  0
    3.0932    4.5495    5.6394 H   0  0  0  0  0  0  0  0  0  0  0  0
    6.3413    2.1941    1.6421 H   0  0  0  0  0  0  0  0  0  0  0  0
    9.1083    2.0110    1.1090 H   0  0  0  0  0  0  0  0  0  0  0  0
    7.4282    3.0552   -0.2936 H   0  0  0  0  0  0  0  0  0  0  0  0
    9.0199    2.7682   -1.1126 H   0  0  0  0  0  0  0  0  0  0  0  0
    8.1856    0.7111   -2.1487 H   0  0  0  0  0  0  0  0  0  0  0  0
    6.6235    0.9035   -1.3111 H   0  0  0  0  0  0  0  0  0  0  0  0
    6.1955    2.2840   -4.8869 H   0  0  0  0  0  0  0  0  0  0  0  0
    6.1196    0.6925   -4.0329 H   0  0  0  0  0  0  0  0  0  0  0  0
    9.2198   -0.3090   -0.8095 H   0  0  0  0  0  0  0  0  0  0  0  0
   11.7418   -0.3677   -1.7742 H   0  0  0  0  0  0  0  0  0  0  0  0
   13.6858    0.7615    0.2325 H   0  0  0  0  0  0  0  0  0  0  0  0
   15.4581    2.0404   -1.0245 H   0  0  0  0  0  0  0  0  0  0  0  0
   16.2073    0.6432   -1.9444 H   0  0  0  0  0  0  0  0  0  0  0  0
   15.4655    2.0409   -2.7968 H   0  0  0  0  0  0  0  0  0  0  0  0
   12.8600   -2.1328   -0.6353 H   0  0  0  0  0  0  0  0  0  0  0  0
   11.0248   -3.3522    0.2099 H   0  0  0  0  0  0  0  0  0  0  0  0
   10.1174   -1.9134    0.6624 H   0  0  0  0  0  0  0  0  0  0  0  0
   10.3797   -2.3582   -1.1237 H   0  0  0  0  0  0  0  0  0  0  0  0
   12.4761   -0.3393    1.7370 H   0  0  0  0  0  0  0  0  0  0  0  0
   13.4730   -1.8862    1.5907 H   0  0  0  0  0  0  0  0  0  0  0  0
   11.7589   -1.9302    2.0770 H   0  0  0  0  0  0  0  0  0  0  0  0
   -0.0724   -0.2406   -0.2664 H   0  0  0  0  0  0  0  0  0  0  0  0
   -1.0809   -2.5636    1.3422 H   0  0  0  0  0  0  0  0  0  0  0  0
   -2.4154   -1.3337    2.7163 H   0  0  0  0  0  0  0  0  0  0  0  0
   -0.7886   -0.6568    4.2860 H   0  0  0  0  0  0  0  0  0  0  0  0
    0.5218   -0.5564    3.0868 H   0  0  0  0  0  0  0  0  0  0  0  0
   -0.3382   -2.1658    3.4852 H   0  0  0  0  0  0  0  0  0  0  0  0
   -0.8337    1.2553    2.1931 H   0  0  0  0  0  0  0  0  0  0  0  0
   -2.0564    0.8751    3.3872 H   0  0  0  0  0  0  0  0  0  0  0  0
   -3.8400    0.7177    1.7894 H   0  0  0  0  0  0  0  0  0  0  0  0
   -3.0139    2.2588    1.8842 H   0  0  0  0  0  0  0  0  0  0  0  0
   -2.7007    1.3155    0.4408 H   0  0  0  0  0  0  0  0  0  0  0  0
   -3.7825   -2.3870    1.3629 H   0  0  0  0  0  0  0  0  0  0  0  0
   -4.4484   -1.1471   -1.2806 H   0  0  0  0  0  0  0  0  0  0  0  0
   -4.2558   -3.4432   -1.8675 H   0  0  0  0  0  0  0  0  0  0  0  0
   -5.9523   -2.9793   -1.8009 H   0  0  0  0  0  0  0  0  0  0  0  0
   -6.2629   -4.0726    0.4250 H   0  0  0  0  0  0  0  0  0  0  0  0
   -4.5624   -4.6022    0.4194 H   0  0  0  0  0  0  0  0  0  0  0  0
   -5.9067   -6.3828   -0.2908 H   0  0  0  0  0  0  0  0  0  0  0  0
   -4.8972   -5.8339   -1.6529 H   0  0  0  0  0  0  0  0  0  0  0  0
   -7.3791   -4.3933   -1.8269 H   0  0  0  0  0  0  0  0  0  0  0  0
   -6.4068   -8.2523   -2.8413 H   0  0  0  0  0  0  0  0  0  0  0  0
   -7.7904   -8.1844   -1.7374 H   0  0  0  0  0  0  0  0  0  0  0  0
   -8.2950   -5.0200   -3.9806 H   0  0  0  0  0  0  0  0  0  0  0  0
   -7.1588   -0.6177   -1.3209 H   0  0  0  0  0  0  0  0  0  0  0  0
   -8.0430   -0.7419    1.5106 H   0  0  0  0  0  0  0  0  0  0  0  0
   -8.4019    1.6732    1.6907 H   0  0  0  0  0  0  0  0  0  0  0  0
   -6.6881    1.1962    1.5731 H   0  0  0  0  0  0  0  0  0  0  0  0
   -8.3349    2.2908   -0.7492 H   0  0  0  0  0  0  0  0  0  0  0  0
   -6.5713    1.7091   -0.7496 H   0  0  0  0  0  0  0  0  0  0  0  0
   -6.0292    3.4101    0.9405 H   0  0  0  0  0  0  0  0  0  0  0  0
   -7.7551    3.9102    1.0753 H   0  0  0  0  0  0  0  0  0  0  0  0
   -7.2319    6.2402    1.5939 H   0  0  0  0  0  0  0  0  0  0  0  0
   -8.8297    6.1975    0.7596 H   0  0  0  0  0  0  0  0  0  0  0  0
   -7.4709    6.5309   -2.4746 H   0  0  0  0  0  0  0  0  0  0  0  0
   -6.3078    7.3995   -1.3775 H   0  0  0  0  0  0  0  0  0  0  0  0
  -10.3736    0.3107    1.8188 H   0  0  0  0  0  0  0  0  0  0  0  0
  -12.6232   -0.0053    1.0218 H   0  0  0  0  0  0  0  0  0  0  0  0
  -11.9756   -0.4444   -0.5811 H   0  0  0  0  0  0  0  0  0  0  0  0
  -10.4455    2.5742    0.4435 H   0  0  0  0  0  0  0  0  0  0  0  0
  -11.0658    4.8269   -0.4520 H   0  0  0  0  0  0  0  0  0  0  0  0
  -13.1365    5.1547   -1.6538 H   0  0  0  0  0  0  0  0  0  0  0  0
  -14.6270    3.2565   -1.9979 H   0  0  0  0  0  0  0  0  0  0  0  0
  -14.0326    0.9846   -1.1176 H   0  0  0  0  0  0  0  0  0  0  0  0
  1  2  1  0
  2  3  1  0
  2  4  1  0
  4  5  1  0
  5  6  1  0
  6  7  1  0
  7  8  2  0
  7  9  1  0
  9 10  1  0
 10 11  1  0
 11 12  1  0
 12 13  1  0
 12 14  2  0
  9 15  1  0
 15 16  1  0
 16 17  2  0
 16 18  1  0
 18 19  1  0
 19 20  1  0
 20 21  1  0
 21 22  1  0
 21 23  2  0
 18 24  1  0
 24 25  1  0
 25 26  2  0
 25 27  1  0
 27 28  1  0
 28 29  1  0
 29 30  1  0
 29 31  2  0
 27 32  1  0
 32 33  1  0
 32 34  1  0
  5 35  1  0
 35 36  2  0
 35 37  1  0
 37 38  1  0
 38 39  1  0
 39 40  1  0
 39 41  1  0
 41 42  1  0
 38 43  1  0
 43 44  2  0
 43 45  1  0
 45 46  1  0
 46 47  1  0
 47 48  1  0
 48 49  1  0
 49 50  1  0
 50 51  1  0
 51 52  1  0
 51 53  2  3
 46 54  1  0
 54 55  2  0
 54 56  1  0
 56 57  1  0
 57 58  1  0
 58 59  1  0
 59 60  1  0
 60 61  1  0
 61 62  2  3
 62 63  1  0
 62 64  1  0
 57 65  1  0
 65 66  2  0
 65 67  1  0
 67 68  1  0
 68 69  1  0
 69 70  2  0
 70 71  1  0
 71 72  2  0
 72 73  1  0
 73 74  2  0
 74 69  1  0
  1 75  1  0
  1 76  1  0
  1 77  1  0
  2 78  1  0
  3 79  1  0
  3 80  1  0
  3 81  1  0
  4 82  1  0
  4 83  1  0
  5 84  1  6
  6 85  1  0
  9 86  1  1
 10 87  1  0
 10 88  1  0
 11 89  1  0
 11 90  1  0
 13 91  1  0
 13 92  1  0
 15 93  1  0
 18 94  1  1
 19 95  1  0
 19 96  1  0
 20 97  1  0
 20 98  1  0
 22 99  1  0
 22100  1  0
 24101  1  0
 27102  1  6
 28103  1  0
 30104  1  0
 30105  1  0
 30106  1  0
 32107  1  0
 33108  1  0
 33109  1  0
 33110  1  0
 34111  1  0
 34112  1  0
 34113  1  0
 37114  1  0
 38115  1  1
 39116  1  1
 40117  1  0
 40118  1  0
 40119  1  0
 41120  1  0
 41121  1  0
 42122  1  0
 42123  1  0
 42124  1  0
 45125  1  0
 46126  1  6
 47127  1  0
 47128  1  0
 48129  1  0
 48130  1  0
 49131  1  0
 49132  1  0
 50133  1  0
 52134  1  0
 52135  1  0
 53136  1  0
 56137  1  0
 57138  1  1
 58139  1  0
 58140  1  0
 59141  1  0
 59142  1  0
 60143  1  0
 60144  1  0
 63145  1  0
 63146  1  0
 64147  1  0
 64148  1  0
 67149  1  0
 68150  1  0
 68151  1  0
 70152  1  0
 71153  1  0
 72154  1  0
 73155  1  0
 74156  1  0
M  END
$$$$
[H]c1c(C(C([H])([H])[H])(C([H])([H])[H])C([H])([H])[H])noc1N([H])C(=O)[C@@]1([H])N(C(=O)c2c([H])c([H])c(F)c(F)c2[H])C([H])([H])c2c([H])c([H])c([H])c([H])c2C1([H])[H]
     RDKit          3D

 55 58  0  0  0  0  0  0  0  0999 V2000
    4.6824    2.5261   -2.4302 C   0  0  0  0  0  0  0  0  0  0  0  0
    5.2308    1.4323   -1.5306 C   0  0  0  0  0  0  0  0  0  0  0  0
    6.3371    1.9339   -0.6700 C   0  0  0  0  0  0  0  0  0  0  0  0
    5.5945    0.2556   -2.3944 C   0  0  0  0  0  0  0  0  0  0  0  0
    4.1067    0.9830   -0.6309 C   0  0  0  0  0  0  0  0  0  0  0  0
    2.8715    0.5283   -0.9909 C   0  0  0  0  0  0  0  0  0  0  0  0
    2.1587    0.2390    0.1772 C   0  0  0  0  0  0  0  0  0  0  0  0
    0.8169   -0.2550    0.1709 N   0  0  0  0  0  0  0  0  0  0  0  0
    0.0780   -0.6219    1.2880 C   0  0  0  0  0  0  0  0  0  0  0  0
    0.6117   -0.5463    2.4431 O   0  0  0  0  0  0  0  0  0  0  0  0
   -1.3385   -1.1111    1.2121 C   0  0  2  0  0  0  0  0  0  0  0  0
   -1.3482   -2.5877    1.6597 C   0  0  0  0  0  0  0  0  0  0  0  0
   -2.6505   -3.1522    1.3590 C   0  0  0  0  0  0  0  0  0  0  0  0
   -3.4628   -3.7683    2.2433 C   0  0  0  0  0  0  0  0  0  0  0  0
   -4.7047   -4.2949    1.8543 C   0  0  0  0  0  0  0  0  0  0  0  0
   -5.0595   -4.1578    0.5327 C   0  0  0  0  0  0  0  0  0  0  0  0
   -4.2247   -3.5199   -0.3959 C   0  0  0  0  0  0  0  0  0  0  0  0
   -3.0382   -3.0254    0.0203 C   0  0  0  0  0  0  0  0  0  0  0  0
   -2.0359   -2.2665   -0.8353 C   0  0  0  0  0  0  0  0  0  0  0  0
   -1.8923   -0.9519   -0.0712 N   0  0  0  0  0  0  0  0  0  0  0  0
   -2.3955    0.1270   -0.7861 C   0  0  0  0  0  0  0  0  0  0  0  0
   -2.8018   -0.1168   -2.0189 O   0  0  0  0  0  0  0  0  0  0  0  0
   -2.5583    1.5042   -0.4009 C   0  0  0  0  0  0  0  0  0  0  0  0
   -3.1155    2.3508   -1.3791 C   0  0  0  0  0  0  0  0  0  0  0  0
   -3.3601    3.6818   -1.1023 C   0  0  0  0  0  0  0  0  0  0  0  0
   -3.0601    4.1946    0.1394 C   0  0  0  0  0  0  0  0  0  0  0  0
   -3.3160    5.5044    0.3935 F   0  0  0  0  0  0  0  0  0  0  0  0
   -2.5175    3.3966    1.1062 C   0  0  0  0  0  0  0  0  0  0  0  0
   -2.2111    3.9096    2.3453 F   0  0  0  0  0  0  0  0  0  0  0  0
   -2.2723    2.0509    0.8186 C   0  0  0  0  0  0  0  0  0  0  0  0
    2.9754    0.5236    1.1331 O   0  0  0  0  0  0  0  0  0  0  0  0
    4.1151    0.9583    0.7452 N   0  0  0  0  0  0  0  0  0  0  0  0
    3.7724    2.1009   -2.9217 H   0  0  0  0  0  0  0  0  0  0  0  0
    4.3628    3.3986   -1.8463 H   0  0  0  0  0  0  0  0  0  0  0  0
    5.4211    2.7805   -3.1916 H   0  0  0  0  0  0  0  0  0  0  0  0
    6.7749    1.0960   -0.0849 H   0  0  0  0  0  0  0  0  0  0  0  0
    5.8684    2.6140    0.0958 H   0  0  0  0  0  0  0  0  0  0  0  0
    7.0490    2.5140   -1.2536 H   0  0  0  0  0  0  0  0  0  0  0  0
    6.4615    0.5126   -3.0629 H   0  0  0  0  0  0  0  0  0  0  0  0
    4.7578    0.0346   -3.0547 H   0  0  0  0  0  0  0  0  0  0  0  0
    5.7898   -0.6602   -1.8097 H   0  0  0  0  0  0  0  0  0  0  0  0
    2.4821    0.3917   -1.9885 H   0  0  0  0  0  0  0  0  0  0  0  0
    0.3010   -0.3513   -0.7721 H   0  0  0  0  0  0  0  0  0  0  0  0
   -1.9638   -0.6109    1.9770 H   0  0  0  0  0  0  0  0  0  0  0  0
   -1.0929   -2.6849    2.7411 H   0  0  0  0  0  0  0  0  0  0  0  0
   -0.5941   -3.1700    1.0439 H   0  0  0  0  0  0  0  0  0  0  0  0
   -3.1966   -3.8955    3.2982 H   0  0  0  0  0  0  0  0  0  0  0  0
   -5.3557   -4.7873    2.5798 H   0  0  0  0  0  0  0  0  0  0  0  0
   -5.9952   -4.5516    0.2261 H   0  0  0  0  0  0  0  0  0  0  0  0
   -4.5179   -3.4144   -1.4409 H   0  0  0  0  0  0  0  0  0  0  0  0
   -1.0733   -2.7745   -0.8749 H   0  0  0  0  0  0  0  0  0  0  0  0
   -2.4555   -2.0355   -1.7937 H   0  0  0  0  0  0  0  0  0  0  0  0
   -3.3566    1.9714   -2.3675 H   0  0  0  0  0  0  0  0  0  0  0  0
   -3.7959    4.3098   -1.8633 H   0  0  0  0  0  0  0  0  0  0  0  0
   -1.8587    1.4875    1.6182 H   0  0  0  0  0  0  0  0  0  0  0  0
  1  2  1  0
  2  3  1  0
  2  4  1  0
  2  5  1  0
  5  6  1  0
  6  7  2  0
  7  8  1  0
  8  9  1  0
  9 10  2  0
  9 11  1  0
 11 12  1  0
 12 13  1  0
 13 14  2  0
 14 15  1  0
 15 16  2  0
 16 17  1  0
 17 18  2  0
 18 19  1  0
 19 20  1  0
 20 21  1  0
 21 22  2  0
 21 23  1  0
 23 24  2  0
 24 25  1  0
 25 26  2  0
 26 27  1  0
 26 28  1  0
 28 29  1  0
 28 30  2  0
  7 31  1  0
 31 32  1  0
 32  5  2  0
 20 11  1  0
 30 23  1  0
 18 13  1  0
  1 33  1  0
  1 34  1  0
  1 35  1  0
  3 36  1  0
  3 37  1  0
  3 38  1  0
  4 39  1  0
  4 40  1  0
  4 41  1  0
  6 42  1  0
  8 43  1  0
 11 44  1  1
 12 45  1  0
 12 46  1  0
 14 47  1  0
 15 48  1  0
 16 49  1  0
 17 50  1  0
 19 51  1  0
 19 52  1  0
 24 53  1  0
 25 54  1  0
 30 55  1  0
M  END
$$$$
[H]c1c([H])c(S(=O)(=O)N([H])c2c([H])c(C(F)(F)F)c([H])c(C(N([H])[H])(C([H])([H])[H])C([H])([H])[H])c2[H])c([H])c(OC([H])([H])[H])c1OC([H])([H])[H]
     RDKit          3D

 49 50  0  0  0  0  0  0  0  0999 V2000
    7.2813    1.8462    0.2163 C   0  0  0  0  0  0  0  0  0  0  0  0
    6.6023    0.6468    0.2092 O   0  0  0  0  0  0  0  0  0  0  0  0
    5.2472    0.4526    0.1559 C   0  0  0  0  0  0  0  0  0  0  0  0
    4.3294    1.4815    0.1490 C   0  0  0  0  0  0  0  0  0  0  0  0
    2.9542    1.2166    0.0723 C   0  0  0  0  0  0  0  0  0  0  0  0
    2.4603   -0.0390    0.0019 C   0  0  0  0  0  0  0  0  0  0  0  0
    3.4149   -1.0901    0.0127 C   0  0  0  0  0  0  0  0  0  0  0  0
    4.7560   -0.8754    0.0866 C   0  0  0  0  0  0  0  0  0  0  0  0
    5.6927   -1.8953    0.0996 O   0  0  0  0  0  0  0  0  0  0  0  0
    5.4067   -3.2583    0.0303 C   0  0  0  0  0  0  0  0  0  0  0  0
    0.8366   -0.5492   -0.2340 S   0  0  0  0  0  0  0  0  0  0  0  0
    0.7552   -1.9413   -0.8116 O   0  0  0  0  0  0  0  0  0  0  0  0
    0.2227   -0.6659    1.1779 O   0  0  0  0  0  0  0  0  0  0  0  0
   -0.1412    0.5175   -1.1129 N   0  0  0  0  0  0  0  0  0  0  0  0
   -1.4223    0.9297   -0.5867 C   0  0  0  0  0  0  0  0  0  0  0  0
   -2.2749   -0.1823   -0.3689 C   0  0  0  0  0  0  0  0  0  0  0  0
   -3.6003   -0.0365   -0.0153 C   0  0  0  0  0  0  0  0  0  0  0  0
   -4.0309    1.2674    0.1116 C   0  0  0  0  0  0  0  0  0  0  0  0
   -3.2291    2.3830   -0.0862 C   0  0  0  0  0  0  0  0  0  0  0  0
   -1.9072    2.1623   -0.4414 C   0  0  0  0  0  0  0  0  0  0  0  0
   -3.8445    3.7232    0.0841 C   0  0  0  0  0  0  0  0  0  0  0  0
   -2.9880    4.7479    0.2151 F   0  0  0  0  0  0  0  0  0  0  0  0
   -4.7442    3.9116   -0.9879 F   0  0  0  0  0  0  0  0  0  0  0  0
   -4.6491    3.6551    1.2247 F   0  0  0  0  0  0  0  0  0  0  0  0
   -4.4684   -1.2421    0.0924 C   0  0  0  0  0  0  0  0  0  0  0  0
   -3.7332   -2.3984   -0.5653 C   0  0  0  0  0  0  0  0  0  0  0  0
   -5.6723   -0.9815   -0.7884 C   0  0  0  0  0  0  0  0  0  0  0  0
   -4.7787   -1.6308    1.4272 N   0  0  0  0  0  0  0  0  0  0  0  0
    8.0897    1.8315    1.0096 H   0  0  0  0  0  0  0  0  0  0  0  0
    6.6656    2.7343    0.3964 H   0  0  0  0  0  0  0  0  0  0  0  0
    7.7942    2.0425   -0.7706 H   0  0  0  0  0  0  0  0  0  0  0  0
    4.6518    2.4946    0.1936 H   0  0  0  0  0  0  0  0  0  0  0  0
    2.2540    2.0513    0.0737 H   0  0  0  0  0  0  0  0  0  0  0  0
    3.0484   -2.1051   -0.0390 H   0  0  0  0  0  0  0  0  0  0  0  0
    5.9825   -3.8518    0.7983 H   0  0  0  0  0  0  0  0  0  0  0  0
    4.3527   -3.4434    0.2879 H   0  0  0  0  0  0  0  0  0  0  0  0
    5.5752   -3.6975   -1.0018 H   0  0  0  0  0  0  0  0  0  0  0  0
    0.1232    0.9173   -2.0588 H   0  0  0  0  0  0  0  0  0  0  0  0
   -1.8678   -1.1697   -0.4797 H   0  0  0  0  0  0  0  0  0  0  0  0
   -5.0589    1.4036    0.3815 H   0  0  0  0  0  0  0  0  0  0  0  0
   -1.2694    3.0312   -0.6042 H   0  0  0  0  0  0  0  0  0  0  0  0
   -2.9905   -2.7991    0.1158 H   0  0  0  0  0  0  0  0  0  0  0  0
   -3.3135   -2.0119   -1.5070 H   0  0  0  0  0  0  0  0  0  0  0  0
   -4.4253   -3.2013   -0.8224 H   0  0  0  0  0  0  0  0  0  0  0  0
   -6.2680   -0.1526   -0.4029 H   0  0  0  0  0  0  0  0  0  0  0  0
   -5.2161   -0.6244   -1.7473 H   0  0  0  0  0  0  0  0  0  0  0  0
   -6.1528   -1.9320   -0.9612 H   0  0  0  0  0  0  0  0  0  0  0  0
   -5.0404   -2.6318    1.4507 H   0  0  0  0  0  0  0  0  0  0  0  0
   -5.4096   -1.0409    1.9772 H   0  0  0  0  0  0  0  0  0  0  0  0
  1  2  1  0
  2  3  1  0
  3  4  2  0
  4  5  1  0
  5  6  2  0
  6  7  1  0
  7  8  2  0
  8  9  1  0
  9 10  1  0
  6 11  1  0
 11 12  2  0
 11 13  2  0
 11 14  1  0
 14 15  1  0
 15 16  2  0
 16 17  1  0
 17 18  2  0
 18 19  1  0
 19 20  2  0
 19 21  1  0
 21 22  1  0
 21 23  1  0
 21 24  1  0
 17 25  1  0
 25 26  1  0
 25 27  1  0
 25 28  1  0
  8  3  1  0
 20 15  1  0
  1 29  1  0
  1 30  1  0
  1 31  1  0
  4 32  1  0
  5 33  1  0
  7 34  1  0
 10 35  1  0
 10 36  1  0
 10 37  1  0
 14 38  1  0
 16 39  1  0
 18 40  1  0
 20 41  1  0
 26 42  1  0
 26 43  1  0
 26 44  1  0
 27 45  1  0
 27 46  1  0
 27 47  1  0
 28 48  1  0
 28 49  1  0
M  END
$$$$
[H]c1nc([H])c(-c2c([H])c3nc(N([H])C(=O)N([H])C([H])([H])C([H])([H])[H])sc3n(C3([H])C([H])([H])OC([H])([H])C3([H])[H])c2=O)c([H])c1[H]
     RDKit          3D

 46 49  0  0  0  0  0  0  0  0999 V2000
    4.0677   -0.7958    6.7038 C   0  0  0  0  0  0  0  0  0  0  0  0
    4.4108   -0.3503    5.3328 C   0  0  0  0  0  0  0  0  0  0  0  0
    3.4844   -0.6687    4.2861 N   0  0  0  0  0  0  0  0  0  0  0  0
    2.6424   -0.9664    3.3355 C   0  0  0  0  0  0  0  0  0  0  0  0
    2.2467   -2.1389    3.0405 O   0  0  0  0  0  0  0  0  0  0  0  0
    2.1058    0.0945    2.5586 N   0  0  0  0  0  0  0  0  0  0  0  0
    1.1953   -0.0698    1.4671 C   0  0  0  0  0  0  0  0  0  0  0  0
    0.7128    1.0077    0.8099 N   0  0  0  0  0  0  0  0  0  0  0  0
   -0.0644    0.8414   -0.1966 C   0  0  0  0  0  0  0  0  0  0  0  0
   -0.6417    1.8656   -0.9970 C   0  0  0  0  0  0  0  0  0  0  0  0
   -1.4512    1.6125   -2.0636 C   0  0  0  0  0  0  0  0  0  0  0  0
   -1.9835    2.7633   -2.8214 C   0  0  0  0  0  0  0  0  0  0  0  0
   -2.5629    3.7923   -2.0481 C   0  0  0  0  0  0  0  0  0  0  0  0
   -3.0228    4.8813   -2.7298 C   0  0  0  0  0  0  0  0  0  0  0  0
   -2.9265    4.9805   -4.1157 C   0  0  0  0  0  0  0  0  0  0  0  0
   -2.3706    3.9850   -4.8258 N   0  0  0  0  0  0  0  0  0  0  0  0
   -1.9144    2.9099   -4.1721 C   0  0  0  0  0  0  0  0  0  0  0  0
   -1.7268    0.3117   -2.3894 C   0  0  0  0  0  0  0  0  0  0  0  0
   -2.4624    0.0365   -3.3589 O   0  0  0  0  0  0  0  0  0  0  0  0
   -1.1763   -0.6921   -1.6282 N   0  0  0  0  0  0  0  0  0  0  0  0
   -1.4876   -2.0091   -2.0047 C   0  0  0  0  0  0  0  0  0  0  0  0
   -0.3349   -2.8885   -2.4106 C   0  0  0  0  0  0  0  0  0  0  0  0
   -0.9825   -4.2613   -2.1203 C   0  0  0  0  0  0  0  0  0  0  0  0
   -1.5511   -4.0698   -0.8642 O   0  0  0  0  0  0  0  0  0  0  0  0
   -2.1093   -2.7953   -0.8821 C   0  0  0  0  0  0  0  0  0  0  0  0
   -0.3832   -0.4393   -0.5762 C   0  0  0  0  0  0  0  0  0  0  0  0
    0.5020   -1.3414    0.6054 S   0  0  0  0  0  0  0  0  0  0  0  0
    4.2452    0.0028    7.4871 H   0  0  0  0  0  0  0  0  0  0  0  0
    3.0467   -1.1789    6.8530 H   0  0  0  0  0  0  0  0  0  0  0  0
    4.7604   -1.6213    7.0728 H   0  0  0  0  0  0  0  0  0  0  0  0
    4.4216    0.8123    5.4104 H   0  0  0  0  0  0  0  0  0  0  0  0
    5.4606   -0.5680    5.0498 H   0  0  0  0  0  0  0  0  0  0  0  0
    3.7388   -1.9997    4.5933 H   0  0  0  0  0  0  0  0  0  0  0  0
    2.4324    1.0677    2.8130 H   0  0  0  0  0  0  0  0  0  0  0  0
   -0.4463    2.9240   -0.7541 H   0  0  0  0  0  0  0  0  0  0  0  0
   -2.6161    3.6706   -0.9930 H   0  0  0  0  0  0  0  0  0  0  0  0
   -3.4909    5.7131   -2.2154 H   0  0  0  0  0  0  0  0  0  0  0  0
   -3.3024    5.8630   -4.6364 H   0  0  0  0  0  0  0  0  0  0  0  0
   -1.4490    2.0972   -4.7417 H   0  0  0  0  0  0  0  0  0  0  0  0
   -2.2178   -2.0527   -2.8637 H   0  0  0  0  0  0  0  0  0  0  0  0
   -0.1678   -2.8546   -3.4816 H   0  0  0  0  0  0  0  0  0  0  0  0
    0.5423   -2.8277   -1.7689 H   0  0  0  0  0  0  0  0  0  0  0  0
   -1.8430   -4.4159   -2.7977 H   0  0  0  0  0  0  0  0  0  0  0  0
   -0.2410   -5.0598   -2.0976 H   0  0  0  0  0  0  0  0  0  0  0  0
   -3.2219   -2.8149   -0.9488 H   0  0  0  0  0  0  0  0  0  0  0  0
   -1.8676   -2.3528    0.0842 H   0  0  0  0  0  0  0  0  0  0  0  0
  1  2  1  0
  2  3  1  0
  3  4  1  0
  4  5  2  0
  4  6  1  0
  6  7  1  0
  7  8  2  0
  8  9  1  0
  9 10  1  0
 10 11  2  0
 11 12  1  0
 12 13  2  0
 13 14  1  0
 14 15  2  0
 15 16  1  0
 16 17  2  0
 11 18  1  0
 18 19  2  0
 18 20  1  0
 20 21  1  0
 21 22  1  0
 22 23  1  0
 23 24  1  0
 24 25  1  0
 20 26  1  0
 26 27  1  0
 27  7  1  0
 26  9  2  0
 17 12  1  0
 25 21  1  0
  1 28  1  0
  1 29  1  0
  1 30  1  0
  2 31  1  0
  2 32  1  0
  3 33  1  0
  6 34  1  0
 10 35  1  0
 13 36  1  0
 14 37  1  0
 15 38  1  0
 17 39  1  0
 21 40  1  0
 22 41  1  0
 22 42  1  0
 23 43  1  0
 23 44  1  0
 25 45  1  0
 25 46  1  0
M  END
$$$$
[H]OC(=O)[C@@]([H])(N([H])C(=O)[C@@]([H])(S[H])C([H])([H])C([H])(C([H])([H])[H])C([H])([H])[H])C([H])([H])c1c([H])n([H])c2c([H])c([H])c([H])c([H])c12
     RDKit          3D

 45 46  0  0  0  0  0  0  0  0999 V2000
    4.3983   -0.9085    1.2720 C   0  0  0  0  0  0  0  0  0  0  0  0
    4.3317   -0.1298   -0.0191 C   0  0  0  0  0  0  0  0  0  0  0  0
    4.9594   -0.8605   -1.1813 C   0  0  0  0  0  0  0  0  0  0  0  0
    2.9860    0.4289   -0.3089 C   0  0  0  0  0  0  0  0  0  0  0  0
    1.8778   -0.5531   -0.4388 C   0  0  2  0  0  0  0  0  0  0  0  0
    2.0537   -1.7664   -1.7194 S   0  0  0  0  0  0  0  0  0  0  0  0
    0.6337    0.2477   -0.7160 C   0  0  0  0  0  0  0  0  0  0  0  0
   -0.0304    0.0653   -1.7676 O   0  0  0  0  0  0  0  0  0  0  0  0
    0.1946    1.2203    0.2082 N   0  0  0  0  0  0  0  0  0  0  0  0
   -0.9936    2.0050   -0.0282 C   0  0  1  0  0  0  0  0  0  0  0  0
   -1.9677    1.8216    1.1041 C   0  0  0  0  0  0  0  0  0  0  0  0
   -2.3485    0.3938    1.2167 C   0  0  0  0  0  0  0  0  0  0  0  0
   -1.9126   -0.5302    2.1630 C   0  0  0  0  0  0  0  0  0  0  0  0
   -2.4911   -1.7202    1.9258 N   0  0  0  0  0  0  0  0  0  0  0  0
   -3.2898   -1.6051    0.8567 C   0  0  0  0  0  0  0  0  0  0  0  0
   -4.1000   -2.5426    0.2168 C   0  0  0  0  0  0  0  0  0  0  0  0
   -4.8203   -2.1150   -0.8840 C   0  0  0  0  0  0  0  0  0  0  0  0
   -4.7495   -0.8162   -1.3413 C   0  0  0  0  0  0  0  0  0  0  0  0
   -3.9472    0.0977   -0.7013 C   0  0  0  0  0  0  0  0  0  0  0  0
   -3.2193   -0.3135    0.4023 C   0  0  0  0  0  0  0  0  0  0  0  0
   -0.6209    3.4468   -0.1694 C   0  0  0  0  0  0  0  0  0  0  0  0
   -1.5763    4.4241   -0.4043 O   0  0  0  0  0  0  0  0  0  0  0  0
    0.5769    3.8079   -0.0776 O   0  0  0  0  0  0  0  0  0  0  0  0
    4.3239   -2.0015    1.1161 H   0  0  0  0  0  0  0  0  0  0  0  0
    5.3534   -0.7370    1.8121 H   0  0  0  0  0  0  0  0  0  0  0  0
    3.5919   -0.5163    1.9283 H   0  0  0  0  0  0  0  0  0  0  0  0
    5.0024    0.7670    0.1561 H   0  0  0  0  0  0  0  0  0  0  0  0
    4.4886   -0.6353   -2.1511 H   0  0  0  0  0  0  0  0  0  0  0  0
    4.9867   -1.9695   -1.0106 H   0  0  0  0  0  0  0  0  0  0  0  0
    6.0475   -0.5845   -1.3142 H   0  0  0  0  0  0  0  0  0  0  0  0
    3.0665    1.0763   -1.2063 H   0  0  0  0  0  0  0  0  0  0  0  0
    2.7239    1.1202    0.5295 H   0  0  0  0  0  0  0  0  0  0  0  0
    1.6894   -1.0594    0.5309 H   0  0  0  0  0  0  0  0  0  0  0  0
    2.7995   -2.8916   -1.3734 H   0  0  0  0  0  0  0  0  0  0  0  0
    0.7457    1.3697    1.0781 H   0  0  0  0  0  0  0  0  0  0  0  0
   -1.4409    1.7013   -0.9891 H   0  0  0  0  0  0  0  0  0  0  0  0
   -2.8981    2.4096    0.8799 H   0  0  0  0  0  0  0  0  0  0  0  0
   -1.5422    2.2021    2.0479 H   0  0  0  0  0  0  0  0  0  0  0  0
   -1.2066   -0.2974    2.9682 H   0  0  0  0  0  0  0  0  0  0  0  0
   -2.3375   -2.5788    2.4852 H   0  0  0  0  0  0  0  0  0  0  0  0
   -4.1492   -3.5523    0.5799 H   0  0  0  0  0  0  0  0  0  0  0  0
   -5.4654   -2.8026   -1.4180 H   0  0  0  0  0  0  0  0  0  0  0  0
   -5.3136   -0.4816   -2.2031 H   0  0  0  0  0  0  0  0  0  0  0  0
   -3.8652    1.1212   -1.0296 H   0  0  0  0  0  0  0  0  0  0  0  0
   -2.5456    4.2423   -0.1936 H   0  0  0  0  0  0  0  0  0  0  0  0
  1  2  1  0
  2  3  1  0
  2  4  1  0
  4  5  1  0
  5  6  1  0
  5  7  1  0
  7  8  2  0
  7  9  1  0
  9 10  1  0
 10 11  1  0
 11 12  1  0
 12 13  2  0
 13 14  1  0
 14 15  1  0
 15 16  2  0
 16 17  1  0
 17 18  2  0
 18 19  1  0
 19 20  2  0
 10 21  1  0
 21 22  1  0
 21 23  2  0
 20 12  1  0
 20 15  1  0
  1 24  1  0
  1 25  1  0
  1 26  1  0
  2 27  1  0
  3 28  1  0
  3 29  1  0
  3 30  1  0
  4 31  1  0
  4 32  1  0
  5 33  1  1
  6 34  1  0
  9 35  1  0
 10 36  1  6
 11 37  1  0
 11 38  1  0
 13 39  1  0
 14 40  1  0
 16 41  1  0
 17 42  1  0
 18 43  1  0
 19 44  1  0
 22 45  1  0
M  END
$$$$
[H]O[C@@](C(=O)N([H])c1c([H])c([H])c([N+](=O)[O-])c(C(F)(F)F)c1[H])(C([H])([H])[H])C([H])([H])N([H])c1c([H])c([H])c(C#N)c(Cl)c1[H]
     RDKit          3D

 44 45  0  0  0  0  0  0  0  0999 V2000
    0.4726   -3.5486   -0.0052 C   0  0  0  0  0  0  0  0  0  0  0  0
    0.8749   -2.3764   -0.8734 C   0  0  2  0  0  0  0  0  0  0  0  0
    1.5023   -2.8513   -2.0007 O   0  0  0  0  0  0  0  0  0  0  0  0
    1.8795   -1.5616   -0.0896 C   0  0  0  0  0  0  0  0  0  0  0  0
    2.3930   -0.4536   -0.8184 N   0  0  0  0  0  0  0  0  0  0  0  0
    3.3384    0.4106   -0.2216 C   0  0  0  0  0  0  0  0  0  0  0  0
    3.8656    1.5014   -0.9059 C   0  0  0  0  0  0  0  0  0  0  0  0
    4.7836    2.3269   -0.2994 C   0  0  0  0  0  0  0  0  0  0  0  0
    5.2316    2.1363    0.9913 C   0  0  0  0  0  0  0  0  0  0  0  0
    6.1985    3.0289    1.5914 C   0  0  0  0  0  0  0  0  0  0  0  0
    6.9568    3.7562    2.0757 N   0  0  0  0  0  0  0  0  0  0  0  0
    4.7157    1.0584    1.6792 C   0  0  0  0  0  0  0  0  0  0  0  0
    5.2731    0.8028    3.3181 Cl  0  0  0  0  0  0  0  0  0  0  0  0
    3.7966    0.2303    1.0740 C   0  0  0  0  0  0  0  0  0  0  0  0
   -0.3374   -1.5722   -1.1977 C   0  0  0  0  0  0  0  0  0  0  0  0
   -0.5989   -1.4254   -2.4007 O   0  0  0  0  0  0  0  0  0  0  0  0
   -1.1037   -1.0347   -0.1693 N   0  0  0  0  0  0  0  0  0  0  0  0
   -2.2759   -0.2441   -0.2375 C   0  0  0  0  0  0  0  0  0  0  0  0
   -2.7472    0.3482   -1.3814 C   0  0  0  0  0  0  0  0  0  0  0  0
   -3.9001    1.0950   -1.4060 C   0  0  0  0  0  0  0  0  0  0  0  0
   -4.6682    1.2938   -0.2415 C   0  0  0  0  0  0  0  0  0  0  0  0
   -4.2124    0.7119    0.8995 C   0  0  0  0  0  0  0  0  0  0  0  0
   -3.0474   -0.0368    0.9023 C   0  0  0  0  0  0  0  0  0  0  0  0
   -4.9837    0.8621    2.1817 C   0  0  0  0  0  0  0  0  0  0  0  0
   -5.1431    2.1772    2.4491 F   0  0  0  0  0  0  0  0  0  0  0  0
   -4.1909    0.2801    3.1940 F   0  0  0  0  0  0  0  0  0  0  0  0
   -6.1639    0.2038    2.0876 F   0  0  0  0  0  0  0  0  0  0  0  0
   -5.8146    2.1088   -0.3625 N   0  0  0  0  0  0  0  0  0  0  0  0
   -5.7063    3.1624   -1.2958 O   0  0  0  0  0  0  0  0  0  0  0  0
   -6.8810    2.0081    0.2105 O   0  0  0  0  0  0  0  0  0  0  0  0
    1.3023   -4.2873    0.0829 H   0  0  0  0  0  0  0  0  0  0  0  0
   -0.3728   -4.0938   -0.4707 H   0  0  0  0  0  0  0  0  0  0  0  0
    0.2320   -3.2353    1.0335 H   0  0  0  0  0  0  0  0  0  0  0  0
    0.9111   -3.3344   -2.6276 H   0  0  0  0  0  0  0  0  0  0  0  0
    1.4039   -1.2199    0.8482 H   0  0  0  0  0  0  0  0  0  0  0  0
    2.7294   -2.2603    0.1408 H   0  0  0  0  0  0  0  0  0  0  0  0
    2.0847   -0.2647   -1.7883 H   0  0  0  0  0  0  0  0  0  0  0  0
    3.5300    1.6721   -1.9198 H   0  0  0  0  0  0  0  0  0  0  0  0
    5.2083    3.1919   -0.8277 H   0  0  0  0  0  0  0  0  0  0  0  0
    3.3824   -0.6311    1.6199 H   0  0  0  0  0  0  0  0  0  0  0  0
   -0.7724   -1.2348    0.8383 H   0  0  0  0  0  0  0  0  0  0  0  0
   -2.1771    0.2299   -2.3170 H   0  0  0  0  0  0  0  0  0  0  0  0
   -4.2480    1.5503   -2.3207 H   0  0  0  0  0  0  0  0  0  0  0  0
   -2.7211   -0.4812    1.8272 H   0  0  0  0  0  0  0  0  0  0  0  0
  1  2  1  0
  2  3  1  6
  2  4  1  0
  4  5  1  0
  5  6  1  0
  6  7  2  0
  7  8  1  0
  8  9  2  0
  9 10  1  0
 10 11  3  0
  9 12  1  0
 12 13  1  0
 12 14  2  0
  2 15  1  0
 15 16  2  0
 15 17  1  0
 17 18  1  0
 18 19  2  0
 19 20  1  0
 20 21  2  0
 21 22  1  0
 22 23  2  0
 22 24  1  0
 24 25  1  0
 24 26  1  0
 24 27  1  0
 21 28  1  0
 28 29  1  0
 28 30  2  0
 14  6  1  0
 23 18  1  0
  1 31  1  0
  1 32  1  0
  1 33  1  0
  3 34  1  0
  4 35  1  0
  4 36  1  0
  5 37  1  0
  7 38  1  0
  8 39  1  0
 14 40  1  0
 17 41  1  0
 19 42  1  0
 20 43  1  0
 23 44  1  0
M  CHG  2  28   1  29  -1
M  END
$$$$
[H]N=C(N([H])[H])N([H])C([H])([H])C([H])([H])C([H])([H])[C@@]([H])(C(=O)N([H])[C@]([H])(C(=O)O[H])C([H])([H])c1c([H])c([H])c([H])c([H])c1[H])N([H])C(=O)[C@@]([H])(N([H])C(=O)[C@@]([H])(N([H])C(=O)[C@@]([H])(N([H])C(=O)[C@@]([H])(N([H])C(=O)C([H])([H])[H])C([H])([H])C([H])([H])C([H])([H])N([H])C(=N[H])N([H])[H])C([H])(C([H])([H])[H])C([H])([H])[H])C([H])([H])C([H])([H])C([H])([H])N([H])C(=N[H])N([H])[H])C([H])([H])C([H])([H])C([H])([H])N([H])C(=N[H])N([H])[H]
     RDKit          3D

136136  0  0  0  0  0  0  0  0999 V2000
   11.3584    1.1561    0.2552 C   0  0  0  0  0  0  0  0  0  0  0  0
    9.9201    1.3139    0.4978 C   0  0  0  0  0  0  0  0  0  0  0  0
    9.5435    1.9013    1.5547 O   0  0  0  0  0  0  0  0  0  0  0  0
    8.8910    0.8544   -0.3664 N   0  0  0  0  0  0  0  0  0  0  0  0
    7.4819    0.9998   -0.1370 C   0  0  1  0  0  0  0  0  0  0  0  0
    6.6990    1.1953   -1.3846 C   0  0  0  0  0  0  0  0  0  0  0  0
    6.8849    2.3673   -2.2458 C   0  0  0  0  0  0  0  0  0  0  0  0
    6.4990    3.7045   -1.7077 C   0  0  0  0  0  0  0  0  0  0  0  0
    7.2329    4.1486   -0.5979 N   0  0  0  0  0  0  0  0  0  0  0  0
    8.5864    4.5830   -0.7522 C   0  0  0  0  0  0  0  0  0  0  0  0
    9.2180    5.2194    0.3593 N   0  0  0  0  0  0  0  0  0  0  0  0
    9.2019    4.4061   -1.8449 N   0  0  0  0  0  0  0  0  0  0  0  0
    6.9777   -0.3558    0.3959 C   0  0  0  0  0  0  0  0  0  0  0  0
    7.8390   -1.2540    0.4525 O   0  0  0  0  0  0  0  0  0  0  0  0
    5.6191   -0.4663    0.7643 N   0  0  0  0  0  0  0  0  0  0  0  0
    4.9712   -1.6350    1.2723 C   0  0  1  0  0  0  0  0  0  0  0  0
    4.7043   -1.5736    2.7458 C   0  0  0  0  0  0  0  0  0  0  0  0
    6.0237   -1.4512    3.5055 C   0  0  0  0  0  0  0  0  0  0  0  0
    3.7567   -0.4748    3.1641 C   0  0  0  0  0  0  0  0  0  0  0  0
    3.7629   -1.9301    0.5086 C   0  0  0  0  0  0  0  0  0  0  0  0
    3.7806   -1.7789   -0.7696 O   0  0  0  0  0  0  0  0  0  0  0  0
    2.5267   -2.3732    1.0259 N   0  0  0  0  0  0  0  0  0  0  0  0
    1.3464   -2.6581    0.2388 C   0  0  1  0  0  0  0  0  0  0  0  0
    0.4691   -3.6604    0.8876 C   0  0  0  0  0  0  0  0  0  0  0  0
    1.1703   -4.9809    1.0953 C   0  0  0  0  0  0  0  0  0  0  0  0
    1.5707   -5.5408   -0.2534 C   0  0  0  0  0  0  0  0  0  0  0  0
    2.2507   -6.8342   -0.0599 N   0  0  0  0  0  0  0  0  0  0  0  0
    2.6805   -7.5506   -1.1986 C   0  0  0  0  0  0  0  0  0  0  0  0
    1.7586   -7.7443   -2.2847 N   0  0  0  0  0  0  0  0  0  0  0  0
    3.8522   -8.0358   -1.3051 N   0  0  0  0  0  0  0  0  0  0  0  0
    0.6434   -1.3673    0.0066 C   0  0  0  0  0  0  0  0  0  0  0  0
    1.1596   -0.3157    0.4445 O   0  0  0  0  0  0  0  0  0  0  0  0
   -0.6020   -1.2479   -0.6928 N   0  0  0  0  0  0  0  0  0  0  0  0
   -1.1778    0.0402   -0.8527 C   0  0  1  0  0  0  0  0  0  0  0  0
   -1.0057    0.7797   -2.0994 C   0  0  0  0  0  0  0  0  0  0  0  0
   -1.4379    0.4146   -3.4284 C   0  0  0  0  0  0  0  0  0  0  0  0
   -1.0049   -0.7370   -4.2022 C   0  0  0  0  0  0  0  0  0  0  0  0
   -1.3396   -2.0358   -3.7142 N   0  0  0  0  0  0  0  0  0  0  0  0
   -2.6644   -2.5360   -3.6777 C   0  0  0  0  0  0  0  0  0  0  0  0
   -3.6590   -1.9904   -4.5263 N   0  0  0  0  0  0  0  0  0  0  0  0
   -2.9811   -3.4808   -2.8850 N   0  0  0  0  0  0  0  0  0  0  0  0
   -2.5843    0.0859   -0.3197 C   0  0  0  0  0  0  0  0  0  0  0  0
   -3.1553   -1.0220   -0.1617 O   0  0  0  0  0  0  0  0  0  0  0  0
   -3.2368    1.2669   -0.0060 N   0  0  0  0  0  0  0  0  0  0  0  0
   -4.6353    1.2332    0.5261 C   0  0  1  0  0  0  0  0  0  0  0  0
   -4.6028    1.0486    2.0056 C   0  0  0  0  0  0  0  0  0  0  0  0
   -5.9538    0.8543    2.5862 C   0  0  0  0  0  0  0  0  0  0  0  0
   -5.8959    0.6564    4.1058 C   0  0  0  0  0  0  0  0  0  0  0  0
   -7.2863    0.4718    4.5201 N   0  0  0  0  0  0  0  0  0  0  0  0
   -8.0332   -0.6698    4.1666 C   0  0  0  0  0  0  0  0  0  0  0  0
   -7.7586   -1.9337    4.7569 N   0  0  0  0  0  0  0  0  0  0  0  0
   -8.9878   -0.6008    3.2914 N   0  0  0  0  0  0  0  0  0  0  0  0
   -5.3157    2.3866   -0.0413 C   0  0  0  0  0  0  0  0  0  0  0  0
   -5.1830    2.5347   -1.3183 O   0  0  0  0  0  0  0  0  0  0  0  0
   -6.0740    3.3439    0.6010 N   0  0  0  0  0  0  0  0  0  0  0  0
   -6.7176    4.4570   -0.1492 C   0  0  1  0  0  0  0  0  0  0  0  0
   -8.2101    4.3436   -0.0722 C   0  0  0  0  0  0  0  0  0  0  0  0
   -8.6964    3.0832   -0.6554 C   0  0  0  0  0  0  0  0  0  0  0  0
   -8.8751    1.8974    0.0009 C   0  0  0  0  0  0  0  0  0  0  0  0
   -9.3411    0.7490   -0.5977 C   0  0  0  0  0  0  0  0  0  0  0  0
   -9.6462    0.7949   -1.9394 C   0  0  0  0  0  0  0  0  0  0  0  0
   -9.4849    1.9726   -2.6562 C   0  0  0  0  0  0  0  0  0  0  0  0
   -9.0145    3.0981   -2.0118 C   0  0  0  0  0  0  0  0  0  0  0  0
   -6.2132    5.7547    0.3185 C   0  0  0  0  0  0  0  0  0  0  0  0
   -6.6755    6.9484   -0.2414 O   0  0  0  0  0  0  0  0  0  0  0  0
   -5.3572    5.8255    1.2296 O   0  0  0  0  0  0  0  0  0  0  0  0
   11.6915    0.2404    0.8376 H   0  0  0  0  0  0  0  0  0  0  0  0
   11.9444    2.0317    0.6466 H   0  0  0  0  0  0  0  0  0  0  0  0
   11.6143    0.9426   -0.7981 H   0  0  0  0  0  0  0  0  0  0  0  0
    9.2146    0.3706   -1.2334 H   0  0  0  0  0  0  0  0  0  0  0  0
    7.2792    1.7507    0.6701 H   0  0  0  0  0  0  0  0  0  0  0  0
    5.5897    1.0863   -1.1717 H   0  0  0  0  0  0  0  0  0  0  0  0
    6.9229    0.2657   -2.0244 H   0  0  0  0  0  0  0  0  0  0  0  0
    7.8740    2.4128   -2.7630 H   0  0  0  0  0  0  0  0  0  0  0  0
    6.1737    2.2087   -3.1391 H   0  0  0  0  0  0  0  0  0  0  0  0
    6.6331    4.5035   -2.5195 H   0  0  0  0  0  0  0  0  0  0  0  0
    5.3816    3.6890   -1.5263 H   0  0  0  0  0  0  0  0  0  0  0  0
    6.7918    4.1668    0.3633 H   0  0  0  0  0  0  0  0  0  0  0  0
   10.0060    5.8804    0.2183 H   0  0  0  0  0  0  0  0  0  0  0  0
    8.8721    5.0087    1.3161 H   0  0  0  0  0  0  0  0  0  0  0  0
   10.1839    4.7121   -1.9852 H   0  0  0  0  0  0  0  0  0  0  0  0
    5.0273    0.4192    0.6500 H   0  0  0  0  0  0  0  0  0  0  0  0
    5.6642   -2.5392    1.1507 H   0  0  0  0  0  0  0  0  0  0  0  0
    4.2513   -2.5332    3.0570 H   0  0  0  0  0  0  0  0  0  0  0  0
    5.8911   -1.6479    4.5927 H   0  0  0  0  0  0  0  0  0  0  0  0
    6.4976   -0.4656    3.4017 H   0  0  0  0  0  0  0  0  0  0  0  0
    6.6548   -2.3069    3.1485 H   0  0  0  0  0  0  0  0  0  0  0  0
    4.2435    0.3025    3.7983 H   0  0  0  0  0  0  0  0  0  0  0  0
    2.9282   -0.8675    3.8147 H   0  0  0  0  0  0  0  0  0  0  0  0
    3.2742   -0.0369    2.2751 H   0  0  0  0  0  0  0  0  0  0  0  0
    2.4632   -2.5112    2.0717 H   0  0  0  0  0  0  0  0  0  0  0  0
    1.6048   -2.9991   -0.8062 H   0  0  0  0  0  0  0  0  0  0  0  0
    0.1582   -3.2961    1.9010 H   0  0  0  0  0  0  0  0  0  0  0  0
   -0.4308   -3.8894    0.2691 H   0  0  0  0  0  0  0  0  0  0  0  0
    2.0446   -4.7977    1.7431 H   0  0  0  0  0  0  0  0  0  0  0  0
    0.4726   -5.7450    1.5365 H   0  0  0  0  0  0  0  0  0  0  0  0
    0.6613   -5.7081   -0.8798 H   0  0  0  0  0  0  0  0  0  0  0  0
    2.2692   -4.9063   -0.8169 H   0  0  0  0  0  0  0  0  0  0  0  0
    2.3968   -7.1868    0.9129 H   0  0  0  0  0  0  0  0  0  0  0  0
    1.5969   -6.9434   -2.9158 H   0  0  0  0  0  0  0  0  0  0  0  0
    1.2585   -8.6335   -2.4551 H   0  0  0  0  0  0  0  0  0  0  0  0
    4.6046   -7.9659   -0.5952 H   0  0  0  0  0  0  0  0  0  0  0  0
   -1.0502   -2.1045   -1.0133 H   0  0  0  0  0  0  0  0  0  0  0  0
   -0.6304    0.7213   -0.0656 H   0  0  0  0  0  0  0  0  0  0  0  0
    0.1469    0.9438   -2.1872 H   0  0  0  0  0  0  0  0  0  0  0  0
   -1.3043    1.8784   -1.8646 H   0  0  0  0  0  0  0  0  0  0  0  0
   -2.5938    0.4062   -3.4871 H   0  0  0  0  0  0  0  0  0  0  0  0
   -1.2375    1.3429   -4.1035 H   0  0  0  0  0  0  0  0  0  0  0  0
    0.1033   -0.7435   -4.4352 H   0  0  0  0  0  0  0  0  0  0  0  0
   -1.4779   -0.6933   -5.2467 H   0  0  0  0  0  0  0  0  0  0  0  0
   -0.5936   -2.7036   -3.3518 H   0  0  0  0  0  0  0  0  0  0  0  0
   -4.5405   -1.6496   -4.1372 H   0  0  0  0  0  0  0  0  0  0  0  0
   -3.4630   -1.9476   -5.5463 H   0  0  0  0  0  0  0  0  0  0  0  0
   -2.2535   -3.8849   -2.2601 H   0  0  0  0  0  0  0  0  0  0  0  0
   -2.8152    2.1905   -0.1160 H   0  0  0  0  0  0  0  0  0  0  0  0
   -5.0186    0.2294    0.1372 H   0  0  0  0  0  0  0  0  0  0  0  0
   -4.0410    0.0837    2.1765 H   0  0  0  0  0  0  0  0  0  0  0  0
   -4.0556    1.8795    2.5249 H   0  0  0  0  0  0  0  0  0  0  0  0
   -6.7360    1.5692    2.4124 H   0  0  0  0  0  0  0  0  0  0  0  0
   -6.3868   -0.1456    2.2285 H   0  0  0  0  0  0  0  0  0  0  0  0
   -5.4633    1.5409    4.5710 H   0  0  0  0  0  0  0  0  0  0  0  0
   -5.3582   -0.2806    4.2829 H   0  0  0  0  0  0  0  0  0  0  0  0
   -7.7267    1.2237    5.1026 H   0  0  0  0  0  0  0  0  0  0  0  0
   -8.2558   -2.2595    5.6057 H   0  0  0  0  0  0  0  0  0  0  0  0
   -7.0172   -2.5234    4.2791 H   0  0  0  0  0  0  0  0  0  0  0  0
   -9.1821    0.3224    2.8620 H   0  0  0  0  0  0  0  0  0  0  0  0
   -6.1882    3.3574    1.6337 H   0  0  0  0  0  0  0  0  0  0  0  0
   -6.4411    4.3338   -1.2139 H   0  0  0  0  0  0  0  0  0  0  0  0
   -8.5827    4.4181    0.9807 H   0  0  0  0  0  0  0  0  0  0  0  0
   -8.6572    5.2094   -0.5900 H   0  0  0  0  0  0  0  0  0  0  0  0
   -8.6409    1.8643    1.0462 H   0  0  0  0  0  0  0  0  0  0  0  0
   -9.4655   -0.1692   -0.0317 H   0  0  0  0  0  0  0  0  0  0  0  0
  -10.0187   -0.0817   -2.4549 H   0  0  0  0  0  0  0  0  0  0  0  0
   -9.7222    2.0077   -3.6996 H   0  0  0  0  0  0  0  0  0  0  0  0
   -8.9086    3.9880   -2.6070 H   0  0  0  0  0  0  0  0  0  0  0  0
   -7.7022    7.0090   -0.3033 H   0  0  0  0  0  0  0  0  0  0  0  0
  1  2  1  0
  2  3  2  0
  2  4  1  0
  4  5  1  0
  5  6  1  0
  6  7  1  0
  7  8  1  0
  8  9  1  0
  9 10  1  0
 10 11  1  0
 10 12  2  3
  5 13  1  0
 13 14  2  0
 13 15  1  0
 15 16  1  0
 16 17  1  0
 17 18  1  0
 17 19  1  0
 16 20  1  0
 20 21  2  0
 20 22  1  0
 22 23  1  0
 23 24  1  0
 24 25  1  0
 25 26  1  0
 26 27  1  0
 27 28  1  0
 28 29  1  0
 28 30  2  3
 23 31  1  0
 31 32  2  0
 31 33  1  0
 33 34  1  0
 34 35  1  0
 35 36  1  0
 36 37  1  0
 37 38  1  0
 38 39  1  0
 39 40  1  0
 39 41  2  3
 34 42  1  0
 42 43  2  0
 42 44  1  0
 44 45  1  0
 45 46  1  0
 46 47  1  0
 47 48  1  0
 48 49  1  0
 49 50  1  0
 50 51  1  0
 50 52  2  3
 45 53  1  0
 53 54  2  0
 53 55  1  0
 55 56  1  0
 56 57  1  0
 57 58  1  0
 58 59  2  0
 59 60  1  0
 60 61  2  0
 61 62  1  0
 62 63  2  0
 56 64  1  0
 64 65  1  0
 64 66  2  0
 63 58  1  0
  1 67  1  0
  1 68  1  0
  1 69  1  0
  4 70  1  0
  5 71  1  1
  6 72  1  0
  6 73  1  0
  7 74  1  0
  7 75  1  0
  8 76  1  0
  8 77  1  0
  9 78  1  0
 11 79  1  0
 11 80  1  0
 12 81  1  0
 15 82  1  0
 16 83  1  1
 17 84  1  0
 18 85  1  0
 18 86  1  0
 18 87  1  0
 19 88  1  0
 19 89  1  0
 19 90  1  0
 22 91  1  0
 23 92  1  6
 24 93  1  0
 24 94  1  0
 25 95  1  0
 25 96  1  0
 26 97  1  0
 26 98  1  0
 27 99  1  0
 29100  1  0
 29101  1  0
 30102  1  0
 33103  1  0
 34104  1  1
 35105  1  0
 35106  1  0
 36107  1  0
 36108  1  0
 37109  1  0
 37110  1  0
 38111  1  0
 40112  1  0
 40113  1  0
 41114  1  0
 44115  1  0
 45116  1  6
 46117  1  0
 46118  1  0
 47119  1  0
 47120  1  0
 48121  1  0
 48122  1  0
 49123  1  0
 51124  1  0
 51125  1  0
 52126  1  0
 55127  1  0
 56128  1  6
 57129  1  0
 57130  1  0
 59131  1  0
 60132  1  0
 61133  1  0
 62134  1  0
 63135  1  0
 65136  1  0
M  END
$$$$
[H]N=C(N([H])[H])N([H])C([H])([H])C([H])([H])C([H])([H])[C@@]([H])(C(=O)O[H])N([H])C(=O)[C@@]([H])(N([H])[H])C([H])([H])c1c([H])c([H])c(O[H])c([H])c1[H]
     RDKit          3D

 47 47  0  0  0  0  0  0  0  0999 V2000
   -2.3957   -1.0734   -0.7650 N   0  0  0  0  0  0  0  0  0  0  0  0
   -1.8685    0.1348   -1.3882 C   0  0  1  0  0  0  0  0  0  0  0  0
   -2.1429    1.3399   -0.4749 C   0  0  0  0  0  0  0  0  0  0  0  0
   -3.5835    1.5019   -0.2586 C   0  0  0  0  0  0  0  0  0  0  0  0
   -4.2105    0.8843    0.7892 C   0  0  0  0  0  0  0  0  0  0  0  0
   -5.5623    1.0429    0.9847 C   0  0  0  0  0  0  0  0  0  0  0  0
   -6.2709    1.8359    0.1044 C   0  0  0  0  0  0  0  0  0  0  0  0
   -7.6334    1.9969    0.2999 O   0  0  0  0  0  0  0  0  0  0  0  0
   -5.6518    2.4596   -0.9497 C   0  0  0  0  0  0  0  0  0  0  0  0
   -4.2785    2.3063   -1.1592 C   0  0  0  0  0  0  0  0  0  0  0  0
   -0.4074    0.0778   -1.5381 C   0  0  0  0  0  0  0  0  0  0  0  0
    0.1730    1.0337   -2.0709 O   0  0  0  0  0  0  0  0  0  0  0  0
    0.3143   -1.0354   -1.0869 N   0  0  0  0  0  0  0  0  0  0  0  0
    1.7642   -1.1732   -1.1963 C   0  0  1  0  0  0  0  0  0  0  0  0
    2.3555   -1.2829    0.1615 C   0  0  0  0  0  0  0  0  0  0  0  0
    3.8306   -1.4261    0.2272 C   0  0  0  0  0  0  0  0  0  0  0  0
    4.2393   -1.5004    1.7151 C   0  0  0  0  0  0  0  0  0  0  0  0
    3.8262   -0.2834    2.3798 N   0  0  0  0  0  0  0  0  0  0  0  0
    4.5072    0.9254    2.0077 C   0  0  0  0  0  0  0  0  0  0  0  0
    5.9003    0.8321    1.8243 N   0  0  0  0  0  0  0  0  0  0  0  0
    3.8377    2.0161    1.8607 N   0  0  0  0  0  0  0  0  0  0  0  0
    2.0035   -2.2861   -2.1136 C   0  0  0  0  0  0  0  0  0  0  0  0
    3.2823   -2.6604   -2.4708 O   0  0  0  0  0  0  0  0  0  0  0  0
    1.0687   -2.9679   -2.6332 O   0  0  0  0  0  0  0  0  0  0  0  0
   -3.4335   -1.0406   -0.8951 H   0  0  0  0  0  0  0  0  0  0  0  0
   -2.0753   -1.8891   -1.3292 H   0  0  0  0  0  0  0  0  0  0  0  0
   -2.3573    0.2724   -2.3752 H   0  0  0  0  0  0  0  0  0  0  0  0
   -1.7239    2.2593   -0.9280 H   0  0  0  0  0  0  0  0  0  0  0  0
   -1.5671    1.1555    0.4573 H   0  0  0  0  0  0  0  0  0  0  0  0
   -3.5925    0.2730    1.4459 H   0  0  0  0  0  0  0  0  0  0  0  0
   -6.0489    0.5398    1.8291 H   0  0  0  0  0  0  0  0  0  0  0  0
   -8.1187    1.5475    1.0717 H   0  0  0  0  0  0  0  0  0  0  0  0
   -6.2375    3.0762   -1.6228 H   0  0  0  0  0  0  0  0  0  0  0  0
   -3.7952    2.7932   -1.9806 H   0  0  0  0  0  0  0  0  0  0  0  0
   -0.1660   -1.8589   -0.6301 H   0  0  0  0  0  0  0  0  0  0  0  0
    2.1026   -0.2267   -1.7139 H   0  0  0  0  0  0  0  0  0  0  0  0
    1.9068   -2.1660    0.6672 H   0  0  0  0  0  0  0  0  0  0  0  0
    2.0734   -0.3371    0.7043 H   0  0  0  0  0  0  0  0  0  0  0  0
    4.3632   -0.5346   -0.1672 H   0  0  0  0  0  0  0  0  0  0  0  0
    4.2561   -2.2966   -0.3101 H   0  0  0  0  0  0  0  0  0  0  0  0
    3.6323   -2.3269    2.1400 H   0  0  0  0  0  0  0  0  0  0  0  0
    5.2961   -1.7288    1.8358 H   0  0  0  0  0  0  0  0  0  0  0  0
    3.0670   -0.2468    3.1059 H   0  0  0  0  0  0  0  0  0  0  0  0
    6.3014    0.8844    0.8772 H   0  0  0  0  0  0  0  0  0  0  0  0
    6.5305    0.7111    2.6361 H   0  0  0  0  0  0  0  0  0  0  0  0
    2.8185    2.0164    2.0107 H   0  0  0  0  0  0  0  0  0  0  0  0
    3.6705   -3.5747   -2.3527 H   0  0  0  0  0  0  0  0  0  0  0  0
  1  2  1  0
  2  3  1  0
  3  4  1  0
  4  5  2  0
  5  6  1  0
  6  7  2  0
  7  8  1  0
  7  9  1  0
  9 10  2  0
  2 11  1  0
 11 12  2  0
 11 13  1  0
 13 14  1  0
 14 15  1  0
 15 16  1  0
 16 17  1  0
 17 18  1  0
 18 19  1  0
 19 20  1  0
 19 21  2  3
 14 22  1  0
 22 23  1  0
 22 24  2  0
 10  4  1  0
  1 25  1  0
  1 26  1  0
  2 27  1  6
  3 28  1  0
  3 29  1  0
  5 30  1  0
  6 31  1  0
  8 32  1  0
  9 33  1  0
 10 34  1  0
 13 35  1  0
 14 36  1  6
 15 37  1  0
 15 38  1  0
 16 39  1  0
 16 40  1  0
 17 41  1  0
 17 42  1  0
 18 43  1  0
 20 44  1  0
 20 45  1  0
 21 46  1  0
 23 47  1  0
M  END
$$$$
[H]c1c(F)c([H])c2c(C3=C(c4c([H])n([H])c5c([H])c([H])c([H])c([H])c45)C(=O)N([H])C3=O)nc(N3C([H])([H])C([H])([H])N(C([H])([H])[H])C([H])([H])C3([H])[H])nc2c1[H]
     RDKit          3D

 55 60  0  0  0  0  0  0  0  0999 V2000
   -4.7346    2.7211   -0.6279 C   0  0  0  0  0  0  0  0  0  0  0  0
   -4.0606    2.5657    0.6314 N   0  0  0  0  0  0  0  0  0  0  0  0
   -2.6953    2.9485    0.6233 C   0  0  0  0  0  0  0  0  0  0  0  0
   -1.7438    1.8464    0.1397 C   0  0  0  0  0  0  0  0  0  0  0  0
   -2.0728    0.6669    0.8931 N   0  0  0  0  0  0  0  0  0  0  0  0
   -3.1104    0.7621    1.8812 C   0  0  0  0  0  0  0  0  0  0  0  0
   -4.3344    1.2720    1.1552 C   0  0  0  0  0  0  0  0  0  0  0  0
   -1.4014   -0.5607    0.6747 C   0  0  0  0  0  0  0  0  0  0  0  0
   -0.4356   -0.6409   -0.2585 N   0  0  0  0  0  0  0  0  0  0  0  0
    0.2539   -1.7794   -0.5322 C   0  0  0  0  0  0  0  0  0  0  0  0
    1.2879   -1.7760   -1.5618 C   0  0  0  0  0  0  0  0  0  0  0  0
    2.3808   -0.9786   -1.4986 C   0  0  0  0  0  0  0  0  0  0  0  0
    3.1760   -1.2389   -2.6890 C   0  0  0  0  0  0  0  0  0  0  0  0
    4.2833   -0.6790   -2.9761 O   0  0  0  0  0  0  0  0  0  0  0  0
    2.5278   -2.2112   -3.4743 N   0  0  0  0  0  0  0  0  0  0  0  0
    1.3474   -2.5584   -2.7903 C   0  0  0  0  0  0  0  0  0  0  0  0
    0.5259   -3.4143   -3.2370 O   0  0  0  0  0  0  0  0  0  0  0  0
    2.6987   -0.0639   -0.4101 C   0  0  0  0  0  0  0  0  0  0  0  0
    2.6686   -0.4135    0.9313 C   0  0  0  0  0  0  0  0  0  0  0  0
    2.9920    0.6511    1.6719 N   0  0  0  0  0  0  0  0  0  0  0  0
    3.2411    1.7153    0.8762 C   0  0  0  0  0  0  0  0  0  0  0  0
    3.5993    3.0128    1.1608 C   0  0  0  0  0  0  0  0  0  0  0  0
    3.7775    3.8873    0.1120 C   0  0  0  0  0  0  0  0  0  0  0  0
    3.5934    3.4428   -1.1782 C   0  0  0  0  0  0  0  0  0  0  0  0
    3.2340    2.1402   -1.4594 C   0  0  0  0  0  0  0  0  0  0  0  0
    3.0555    1.2633   -0.4306 C   0  0  0  0  0  0  0  0  0  0  0  0
   -0.0685   -2.8985    0.1997 C   0  0  0  0  0  0  0  0  0  0  0  0
    0.5925   -4.0794    0.0097 C   0  0  0  0  0  0  0  0  0  0  0  0
    0.2733   -5.1953    0.7651 C   0  0  0  0  0  0  0  0  0  0  0  0
    0.9566   -6.3411    0.5379 F   0  0  0  0  0  0  0  0  0  0  0  0
   -0.7170   -5.1180    1.7179 C   0  0  0  0  0  0  0  0  0  0  0  0
   -1.3992   -3.9443    1.9354 C   0  0  0  0  0  0  0  0  0  0  0  0
   -1.0737   -2.8368    1.1779 C   0  0  0  0  0  0  0  0  0  0  0  0
   -1.6973   -1.6685    1.3723 N   0  0  0  0  0  0  0  0  0  0  0  0
   -5.8052    2.9678   -0.4330 H   0  0  0  0  0  0  0  0  0  0  0  0
   -4.6280    1.7720   -1.2043 H   0  0  0  0  0  0  0  0  0  0  0  0
   -4.3128    3.5570   -1.1979 H   0  0  0  0  0  0  0  0  0  0  0  0
   -2.5451    3.8009   -0.0774 H   0  0  0  0  0  0  0  0  0  0  0  0
   -2.3514    3.3008    1.6242 H   0  0  0  0  0  0  0  0  0  0  0  0
   -0.7328    2.1887    0.4212 H   0  0  0  0  0  0  0  0  0  0  0  0
   -1.8792    1.7146   -0.9542 H   0  0  0  0  0  0  0  0  0  0  0  0
   -3.3124   -0.2088    2.3889 H   0  0  0  0  0  0  0  0  0  0  0  0
   -2.8330    1.5426    2.6203 H   0  0  0  0  0  0  0  0  0  0  0  0
   -4.5159    0.5896    0.2766 H   0  0  0  0  0  0  0  0  0  0  0  0
   -5.2334    1.2522    1.8075 H   0  0  0  0  0  0  0  0  0  0  0  0
    2.8979   -2.5766   -4.3936 H   0  0  0  0  0  0  0  0  0  0  0  0
    2.4254   -1.3942    1.3212 H   0  0  0  0  0  0  0  0  0  0  0  0
    3.0620    0.7214    2.7232 H   0  0  0  0  0  0  0  0  0  0  0  0
    3.7515    3.3921    2.1598 H   0  0  0  0  0  0  0  0  0  0  0  0
    4.0634    4.9351    0.2757 H   0  0  0  0  0  0  0  0  0  0  0  0
    3.7229    4.0975   -2.0266 H   0  0  0  0  0  0  0  0  0  0  0  0
    3.0838    1.8192   -2.4958 H   0  0  0  0  0  0  0  0  0  0  0  0
    1.4032   -4.1411   -0.7268 H   0  0  0  0  0  0  0  0  0  0  0  0
   -0.9909   -5.9733    2.3247 H   0  0  0  0  0  0  0  0  0  0  0  0
   -2.1906   -3.8561    2.6868 H   0  0  0  0  0  0  0  0  0  0  0  0
  1  2  1  0
  2  3  1  0
  3  4  1  0
  4  5  1  0
  5  6  1  0
  6  7  1  0
  5  8  1  0
  8  9  2  0
  9 10  1  0
 10 11  1  0
 11 12  2  0
 12 13  1  0
 13 14  2  0
 13 15  1  0
 15 16  1  0
 16 17  2  0
 12 18  1  0
 18 19  2  0
 19 20  1  0
 20 21  1  0
 21 22  2  0
 22 23  1  0
 23 24  2  0
 24 25  1  0
 25 26  2  0
 10 27  2  0
 27 28  1  0
 28 29  2  0
 29 30  1  0
 29 31  1  0
 31 32  2  0
 32 33  1  0
 33 34  2  0
  7  2  1  0
 34  8  1  0
 16 11  1  0
 26 18  1  0
 33 27  1  0
 26 21  1  0
  1 35  1  0
  1 36  1  0
  1 37  1  0
  3 38  1  0
  3 39  1  0
  4 40  1  0
  4 41  1  0
  6 42  1  0
  6 43  1  0
  7 44  1  0
  7 45  1  0
 15 46  1  0
 19 47  1  0
 20 48  1  0
 22 49  1  0
 23 50  1  0
 24 51  1  0
 25 52  1  0
 28 53  1  0
 31 54  1  0
 32 55  1  0
M  END
$$$$
[H]c1c([H])c(Cl)c(-c2c([H])c3c([H])nc(N([H])c4c([H])c([H])c(N5C([H])([H])C([H])([H])N(C([H])([H])[H])C([H])([H])C5([H])[H])c([H])c4OC([H])([H])[H])nc3n(C([H])([H])[H])c2=O)c(Cl)c1[H]
     RDKit          3D

 62 66  0  0  0  0  0  0  0  0999 V2000
    2.9878    1.9183   -3.7045 C   0  0  0  0  0  0  0  0  0  0  0  0
    1.9977    1.4133   -2.8410 O   0  0  0  0  0  0  0  0  0  0  0  0
    2.3269    0.6913   -1.6923 C   0  0  0  0  0  0  0  0  0  0  0  0
    3.6420    0.4632   -1.3889 C   0  0  0  0  0  0  0  0  0  0  0  0
    4.0203   -0.2418   -0.2694 C   0  0  0  0  0  0  0  0  0  0  0  0
    3.0465   -0.7341    0.5725 C   0  0  0  0  0  0  0  0  0  0  0  0
    1.7155   -0.5066    0.2702 C   0  0  0  0  0  0  0  0  0  0  0  0
    1.3314    0.1951   -0.8428 C   0  0  0  0  0  0  0  0  0  0  0  0
    0.0069    0.4648   -1.2202 N   0  0  0  0  0  0  0  0  0  0  0  0
   -1.1921    0.1454   -0.5306 C   0  0  0  0  0  0  0  0  0  0  0  0
   -1.2998   -0.4823    0.6332 N   0  0  0  0  0  0  0  0  0  0  0  0
   -2.4522   -0.7608    1.2604 C   0  0  0  0  0  0  0  0  0  0  0  0
   -3.6593   -0.3734    0.6699 C   0  0  0  0  0  0  0  0  0  0  0  0
   -4.8540   -0.6366    1.2826 C   0  0  0  0  0  0  0  0  0  0  0  0
   -6.0218   -0.2353    0.6715 C   0  0  0  0  0  0  0  0  0  0  0  0
   -7.3352   -0.4680    1.2520 C   0  0  0  0  0  0  0  0  0  0  0  0
   -7.9693    0.4076    2.1025 C   0  0  0  0  0  0  0  0  0  0  0  0
   -7.1468    1.8957    2.5169 Cl  0  0  0  0  0  0  0  0  0  0  0  0
   -9.2376    0.1192    2.6252 C   0  0  0  0  0  0  0  0  0  0  0  0
   -9.8796   -1.0549    2.2949 C   0  0  0  0  0  0  0  0  0  0  0  0
   -9.2397   -1.9255    1.4440 C   0  0  0  0  0  0  0  0  0  0  0  0
   -7.9861   -1.6366    0.9301 C   0  0  0  0  0  0  0  0  0  0  0  0
   -7.2319   -2.7853   -0.1442 Cl  0  0  0  0  0  0  0  0  0  0  0  0
   -5.9242    0.4175   -0.5393 C   0  0  0  0  0  0  0  0  0  0  0  0
   -7.0176    0.7831   -1.0940 O   0  0  0  0  0  0  0  0  0  0  0  0
   -4.7409    0.6540   -1.1019 N   0  0  0  0  0  0  0  0  0  0  0  0
   -4.7020    1.3399   -2.3720 C   0  0  0  0  0  0  0  0  0  0  0  0
   -3.5731    0.2716   -0.5240 C   0  0  0  0  0  0  0  0  0  0  0  0
   -2.3928    0.5166   -1.0931 N   0  0  0  0  0  0  0  0  0  0  0  0
    5.4106   -0.4541    0.0214 N   0  0  0  0  0  0  0  0  0  0  0  0
    6.3738    0.1632   -0.8316 C   0  0  0  0  0  0  0  0  0  0  0  0
    7.7976   -0.0752   -0.4728 C   0  0  0  0  0  0  0  0  0  0  0  0
    8.0157   -0.4571    0.8863 N   0  0  0  0  0  0  0  0  0  0  0  0
    7.7785    0.5918    1.8388 C   0  0  0  0  0  0  0  0  0  0  0  0
    7.2419   -1.6482    1.1664 C   0  0  0  0  0  0  0  0  0  0  0  0
    5.7918   -1.2701    1.1461 C   0  0  0  0  0  0  0  0  0  0  0  0
    2.5115    2.1776   -4.6895 H   0  0  0  0  0  0  0  0  0  0  0  0
    3.4313    2.8437   -3.2895 H   0  0  0  0  0  0  0  0  0  0  0  0
    3.7719    1.1492   -3.9417 H   0  0  0  0  0  0  0  0  0  0  0  0
    4.4519    0.8394   -2.0365 H   0  0  0  0  0  0  0  0  0  0  0  0
    3.3485   -1.2896    1.4540 H   0  0  0  0  0  0  0  0  0  0  0  0
    0.9889   -0.9081    0.9470 H   0  0  0  0  0  0  0  0  0  0  0  0
   -0.1267    0.9825   -2.1615 H   0  0  0  0  0  0  0  0  0  0  0  0
   -2.5083   -1.2706    2.2019 H   0  0  0  0  0  0  0  0  0  0  0  0
   -4.8889   -1.1450    2.2197 H   0  0  0  0  0  0  0  0  0  0  0  0
   -9.7247    0.8139    3.2917 H   0  0  0  0  0  0  0  0  0  0  0  0
  -10.8784   -1.2847    2.7056 H   0  0  0  0  0  0  0  0  0  0  0  0
   -9.7652   -2.8569    1.1902 H   0  0  0  0  0  0  0  0  0  0  0  0
   -5.5934    1.9813   -2.5272 H   0  0  0  0  0  0  0  0  0  0  0  0
   -3.7731    1.9410   -2.4713 H   0  0  0  0  0  0  0  0  0  0  0  0
   -4.7024    0.6084   -3.2276 H   0  0  0  0  0  0  0  0  0  0  0  0
    6.1747    1.2696   -0.8535 H   0  0  0  0  0  0  0  0  0  0  0  0
    6.2507   -0.1318   -1.9153 H   0  0  0  0  0  0  0  0  0  0  0  0
    8.2729   -0.8724   -1.1123 H   0  0  0  0  0  0  0  0  0  0  0  0
    8.3870    0.8414   -0.6939 H   0  0  0  0  0  0  0  0  0  0  0  0
    7.8740    0.1770    2.8695 H   0  0  0  0  0  0  0  0  0  0  0  0
    8.4964    1.4067    1.6894 H   0  0  0  0  0  0  0  0  0  0  0  0
    6.7592    1.0161    1.6758 H   0  0  0  0  0  0  0  0  0  0  0  0
    7.4853   -2.0378    2.1735 H   0  0  0  0  0  0  0  0  0  0  0  0
    7.4333   -2.3589    0.3526 H   0  0  0  0  0  0  0  0  0  0  0  0
    5.1518   -2.1844    1.1369 H   0  0  0  0  0  0  0  0  0  0  0  0
    5.5427   -0.7452    2.0895 H   0  0  0  0  0  0  0  0  0  0  0  0
  1  2  1  0
  2  3  1  0
  3  4  2  0
  4  5  1  0
  5  6  2  0
  6  7  1  0
  7  8  2  0
  8  9  1  0
  9 10  1  0
 10 11  2  0
 11 12  1  0
 12 13  2  0
 13 14  1  0
 14 15  2  0
 15 16  1  0
 16 17  2  0
 17 18  1  0
 17 19  1  0
 19 20  2  0
 20 21  1  0
 21 22  2  0
 22 23  1  0
 15 24  1  0
 24 25  2  0
 24 26  1  0
 26 27  1  0
 26 28  1  0
 28 29  2  0
  5 30  1  0
 30 31  1  0
 31 32  1  0
 32 33  1  0
 33 34  1  0
 33 35  1  0
 35 36  1  0
  8  3  1  0
 29 10  1  0
 36 30  1  0
 28 13  1  0
 22 16  1  0
  1 37  1  0
  1 38  1  0
  1 39  1  0
  4 40  1  0
  6 41  1  0
  7 42  1  0
  9 43  1  0
 12 44  1  0
 14 45  1  0
 19 46  1  0
 20 47  1  0
 21 48  1  0
 27 49  1  0
 27 50  1  0
 27 51  1  0
 31 52  1  0
 31 53  1  0
 32 54  1  0
 32 55  1  0
 34 56  1  0
 34 57  1  0
 34 58  1  0
 35 59  1  0
 35 60  1  0
 36 61  1  0
 36 62  1  0
M  END
$$$$
[H]c1c([H])c([H])c(S(=O)(=O)N2C([H])([H])[C@@]([H])(c3c([H])c([H])c(F)c([H])c3[H])[C@@]([H])(N([H])C(=O)c3c([H])c(OC([H])([H])[H])c(OC([H])([H])[H])c(OC([H])([H])[H])c3[H])C2([H])[H])c([H])c1[H]
     RDKit          3D

 63 66  0  0  0  0  0  0  0  0999 V2000
   -3.3870   -0.0737    3.4743 C   0  0  0  0  0  0  0  0  0  0  0  0
   -4.2815   -0.2217    2.4087 O   0  0  0  0  0  0  0  0  0  0  0  0
   -3.9578   -0.1243    1.0676 C   0  0  0  0  0  0  0  0  0  0  0  0
   -2.6510    0.1403    0.7012 C   0  0  0  0  0  0  0  0  0  0  0  0
   -2.2827    0.2458   -0.6388 C   0  0  0  0  0  0  0  0  0  0  0  0
   -3.2811    0.0729   -1.5818 C   0  0  0  0  0  0  0  0  0  0  0  0
   -4.5891   -0.1924   -1.2140 C   0  0  0  0  0  0  0  0  0  0  0  0
   -5.5949   -0.3695   -2.1415 O   0  0  0  0  0  0  0  0  0  0  0  0
   -5.4620   -0.3118   -3.5355 C   0  0  0  0  0  0  0  0  0  0  0  0
   -4.9512   -0.2965    0.1330 C   0  0  0  0  0  0  0  0  0  0  0  0
   -6.2784   -0.5647    0.4530 O   0  0  0  0  0  0  0  0  0  0  0  0
   -7.2085    0.5013    0.6279 C   0  0  0  0  0  0  0  0  0  0  0  0
   -0.9079    0.5061   -1.0624 C   0  0  0  0  0  0  0  0  0  0  0  0
   -0.7952    1.1084   -2.1869 O   0  0  0  0  0  0  0  0  0  0  0  0
    0.2329    0.1343   -0.3131 N   0  0  0  0  0  0  0  0  0  0  0  0
    1.5304    0.4268   -0.8003 C   0  0  1  0  0  0  0  0  0  0  0  0
    2.3707    0.9827    0.3284 C   0  0  0  0  0  0  0  0  0  0  0  0
    2.9910   -0.1625    0.9580 N   0  0  0  0  0  0  0  0  0  0  0  0
    2.7699   -1.3211    0.1578 C   0  0  0  0  0  0  0  0  0  0  0  0
    2.3342   -0.7992   -1.1714 C   0  0  1  0  0  0  0  0  0  0  0  0
    1.6322   -1.7303   -2.0363 C   0  0  0  0  0  0  0  0  0  0  0  0
    0.5680   -2.4869   -1.5531 C   0  0  0  0  0  0  0  0  0  0  0  0
   -0.0573   -3.3402   -2.4385 C   0  0  0  0  0  0  0  0  0  0  0  0
    0.3379   -3.4564   -3.7503 C   0  0  0  0  0  0  0  0  0  0  0  0
   -0.2764   -4.2953   -4.6162 F   0  0  0  0  0  0  0  0  0  0  0  0
    1.4026   -2.7065   -4.2529 C   0  0  0  0  0  0  0  0  0  0  0  0
    2.0167   -1.8580   -3.3560 C   0  0  0  0  0  0  0  0  0  0  0  0
    4.6535    0.1179    1.1893 S   0  0  0  0  0  0  0  0  0  0  0  0
    5.2913    0.4924   -0.1398 O   0  0  0  0  0  0  0  0  0  0  0  0
    5.3844   -1.0921    1.6830 O   0  0  0  0  0  0  0  0  0  0  0  0
    4.8909    1.4893    2.2530 C   0  0  0  0  0  0  0  0  0  0  0  0
    5.0013    2.7688    1.8211 C   0  0  0  0  0  0  0  0  0  0  0  0
    5.1865    3.8152    2.7111 C   0  0  0  0  0  0  0  0  0  0  0  0
    5.2621    3.5746    4.0556 C   0  0  0  0  0  0  0  0  0  0  0  0
    5.1522    2.2892    4.4968 C   0  0  0  0  0  0  0  0  0  0  0  0
    4.9683    1.2381    3.6307 C   0  0  0  0  0  0  0  0  0  0  0  0
   -3.1796    1.0250    3.5865 H   0  0  0  0  0  0  0  0  0  0  0  0
   -3.7526   -0.5260    4.4184 H   0  0  0  0  0  0  0  0  0  0  0  0
   -2.4216   -0.5397    3.1803 H   0  0  0  0  0  0  0  0  0  0  0  0
   -1.8548    0.2795    1.4138 H   0  0  0  0  0  0  0  0  0  0  0  0
   -3.0039    0.1527   -2.6342 H   0  0  0  0  0  0  0  0  0  0  0  0
   -4.4291   -0.5086   -3.9027 H   0  0  0  0  0  0  0  0  0  0  0  0
   -5.8159    0.6389   -3.9865 H   0  0  0  0  0  0  0  0  0  0  0  0
   -6.1188   -1.0948   -4.0146 H   0  0  0  0  0  0  0  0  0  0  0  0
   -6.9419    1.1899    1.4311 H   0  0  0  0  0  0  0  0  0  0  0  0
   -8.2155    0.0905    0.8072 H   0  0  0  0  0  0  0  0  0  0  0  0
   -7.2958    1.1031   -0.3140 H   0  0  0  0  0  0  0  0  0  0  0  0
    0.0887   -0.3502    0.5952 H   0  0  0  0  0  0  0  0  0  0  0  0
    1.4577    1.1152   -1.6797 H   0  0  0  0  0  0  0  0  0  0  0  0
    1.7666    1.5021    1.1012 H   0  0  0  0  0  0  0  0  0  0  0  0
    3.1106    1.7142   -0.0592 H   0  0  0  0  0  0  0  0  0  0  0  0
    2.0551   -2.0536    0.5964 H   0  0  0  0  0  0  0  0  0  0  0  0
    3.7172   -1.8807    0.0064 H   0  0  0  0  0  0  0  0  0  0  0  0
    3.2358   -0.4083   -1.6961 H   0  0  0  0  0  0  0  0  0  0  0  0
    0.2111   -2.4417   -0.5414 H   0  0  0  0  0  0  0  0  0  0  0  0
   -0.9003   -3.9338   -2.0477 H   0  0  0  0  0  0  0  0  0  0  0  0
    1.6940   -2.8129   -5.2916 H   0  0  0  0  0  0  0  0  0  0  0  0
    2.8570   -1.2709   -3.7597 H   0  0  0  0  0  0  0  0  0  0  0  0
    4.9476    2.9918    0.7719 H   0  0  0  0  0  0  0  0  0  0  0  0
    5.2739    4.8434    2.3504 H   0  0  0  0  0  0  0  0  0  0  0  0
    5.4079    4.3838    4.7665 H   0  0  0  0  0  0  0  0  0  0  0  0
    5.2113    2.0767    5.5581 H   0  0  0  0  0  0  0  0  0  0  0  0
    4.8807    0.2135    3.9823 H   0  0  0  0  0  0  0  0  0  0  0  0
  1  2  1  0
  2  3  1  0
  3  4  2  0
  4  5  1  0
  5  6  2  0
  6  7  1  0
  7  8  1  0
  8  9  1  0
  7 10  2  0
 10 11  1  0
 11 12  1  0
  5 13  1  0
 13 14  2  0
 13 15  1  0
 15 16  1  0
 16 17  1  0
 17 18  1  0
 18 19  1  0
 19 20  1  0
 20 21  1  0
 21 22  2  0
 22 23  1  0
 23 24  2  0
 24 25  1  0
 24 26  1  0
 26 27  2  0
 18 28  1  0
 28 29  2  0
 28 30  2  0
 28 31  1  0
 31 32  2  0
 32 33  1  0
 33 34  2  0
 34 35  1  0
 35 36  2  0
 10  3  1  0
 20 16  1  0
 27 21  1  0
 36 31  1  0
  1 37  1  0
  1 38  1  0
  1 39  1  0
  4 40  1  0
  6 41  1  0
  9 42  1  0
  9 43  1  0
  9 44  1  0
 12 45  1  0
 12 46  1  0
 12 47  1  0
 15 48  1  0
 16 49  1  6
 17 50  1  0
 17 51  1  0
 19 52  1  0
 19 53  1  0
 20 54  1  6
 22 55  1  0
 23 56  1  0
 26 57  1  0
 27 58  1  0
 32 59  1  0
 33 60  1  0
 34 61  1  0
 35 62  1  0
 36 63  1  0
M  END
$$$$
[H]C1=C([H])C([H])(F)C([H])([H])C([H])=C1N([H])C(=O)C1(C(=O)N([H])c2c([H])c([H])c(Oc3c([H])c([H])nc4c([H])c(OC([H])([H])C([H])([H])C([H])([H])N(C([H])([H])[H])C([H])([H])[H])c(OC([H])([H])[H])c([H])c34)c(F)c2[H])C([H])([H])C1([H])[H]
     RDKit          3D

 77 81  0  0  0  0  0  0  0  0999 V2000
    3.5910    3.1525    0.2100 C   0  0  0  0  0  0  0  0  0  0  0  0
    4.5870    2.5777   -0.6174 O   0  0  0  0  0  0  0  0  0  0  0  0
    4.3627    1.3162   -1.1957 C   0  0  0  0  0  0  0  0  0  0  0  0
    3.1909    0.6145   -0.9785 C   0  0  0  0  0  0  0  0  0  0  0  0
    2.9497   -0.6288   -1.5422 C   0  0  0  0  0  0  0  0  0  0  0  0
    1.7074   -1.2450   -1.2555 C   0  0  0  0  0  0  0  0  0  0  0  0
    0.8870   -0.5839   -0.4735 O   0  0  0  0  0  0  0  0  0  0  0  0
   -0.3614   -0.6454   -0.0207 C   0  0  0  0  0  0  0  0  0  0  0  0
   -1.3763   -1.5160   -0.4156 C   0  0  0  0  0  0  0  0  0  0  0  0
   -2.6494   -1.5062    0.1287 C   0  0  0  0  0  0  0  0  0  0  0  0
   -2.9774   -0.5934    1.1280 C   0  0  0  0  0  0  0  0  0  0  0  0
   -4.3158   -0.6674    1.6011 N   0  0  0  0  0  0  0  0  0  0  0  0
   -4.6620   -0.4616    2.9442 C   0  0  0  0  0  0  0  0  0  0  0  0
   -3.6846   -0.2215    3.7482 O   0  0  0  0  0  0  0  0  0  0  0  0
   -6.0220   -0.5116    3.5017 C   0  0  0  0  0  0  0  0  0  0  0  0
   -6.1381   -1.3594    4.7423 C   0  0  0  0  0  0  0  0  0  0  0  0
   -6.1996    0.0985    4.9129 C   0  0  0  0  0  0  0  0  0  0  0  0
   -7.2163   -0.4181    2.6722 C   0  0  0  0  0  0  0  0  0  0  0  0
   -8.3256   -0.8295    3.2356 O   0  0  0  0  0  0  0  0  0  0  0  0
   -7.3909    0.0456    1.3695 N   0  0  0  0  0  0  0  0  0  0  0  0
   -8.6832    0.0204    0.7305 C   0  0  0  0  0  0  0  0  0  0  0  0
   -8.8322   -0.6060   -0.4135 C   0  0  0  0  0  0  0  0  0  0  0  0
  -10.1038   -0.6787   -1.1324 C   0  0  0  0  0  0  0  0  0  0  0  0
  -11.2801   -0.1363   -0.4261 C   0  0  0  0  0  0  0  0  0  0  0  0
  -11.8955    0.8224   -1.2797 F   0  0  0  0  0  0  0  0  0  0  0  0
  -11.0122    0.5335    0.8207 C   0  0  0  0  0  0  0  0  0  0  0  0
   -9.8353    0.6335    1.3945 C   0  0  0  0  0  0  0  0  0  0  0  0
   -2.0195    0.2788    1.5445 C   0  0  0  0  0  0  0  0  0  0  0  0
   -0.7750    0.2487    0.9932 C   0  0  0  0  0  0  0  0  0  0  0  0
    0.1526    1.1354    1.4351 F   0  0  0  0  0  0  0  0  0  0  0  0
    1.5521   -2.4791   -1.8666 C   0  0  0  0  0  0  0  0  0  0  0  0
    2.5326   -3.0256   -2.6718 C   0  0  0  0  0  0  0  0  0  0  0  0
    3.6804   -2.3809   -2.8964 N   0  0  0  0  0  0  0  0  0  0  0  0
    3.9028   -1.1819   -2.3396 C   0  0  0  0  0  0  0  0  0  0  0  0
    5.0907   -0.4832   -2.5670 C   0  0  0  0  0  0  0  0  0  0  0  0
    5.3306    0.7427   -2.0119 C   0  0  0  0  0  0  0  0  0  0  0  0
    6.4880    1.4049   -2.2381 O   0  0  0  0  0  0  0  0  0  0  0  0
    7.6255    1.1082   -2.9390 C   0  0  0  0  0  0  0  0  0  0  0  0
    8.3666   -0.0587   -2.3555 C   0  0  0  0  0  0  0  0  0  0  0  0
    8.8268    0.2761   -0.9305 C   0  0  0  0  0  0  0  0  0  0  0  0
    9.7033    1.4276   -0.9442 N   0  0  0  0  0  0  0  0  0  0  0  0
   10.1432    1.6817    0.4116 C   0  0  0  0  0  0  0  0  0  0  0  0
   10.8214    1.2911   -1.8476 C   0  0  0  0  0  0  0  0  0  0  0  0
    3.4889    2.5962    1.1719 H   0  0  0  0  0  0  0  0  0  0  0  0
    3.8983    4.1912    0.5204 H   0  0  0  0  0  0  0  0  0  0  0  0
    2.5984    3.1840   -0.2774 H   0  0  0  0  0  0  0  0  0  0  0  0
    2.4497    1.0712   -0.3380 H   0  0  0  0  0  0  0  0  0  0  0  0
   -1.1590   -2.2118   -1.1974 H   0  0  0  0  0  0  0  0  0  0  0  0
   -3.3828   -2.2027   -0.2240 H   0  0  0  0  0  0  0  0  0  0  0  0
   -5.0353   -0.9257    0.8692 H   0  0  0  0  0  0  0  0  0  0  0  0
   -5.2632   -1.9514    5.0365 H   0  0  0  0  0  0  0  0  0  0  0  0
   -7.0942   -1.9420    4.8786 H   0  0  0  0  0  0  0  0  0  0  0  0
   -7.1789    0.5538    5.1531 H   0  0  0  0  0  0  0  0  0  0  0  0
   -5.3406    0.6792    5.3133 H   0  0  0  0  0  0  0  0  0  0  0  0
   -6.6412    0.4621    0.8047 H   0  0  0  0  0  0  0  0  0  0  0  0
   -7.9656   -1.0950   -0.8468 H   0  0  0  0  0  0  0  0  0  0  0  0
   -9.9849   -0.2121   -2.1609 H   0  0  0  0  0  0  0  0  0  0  0  0
  -10.2906   -1.7859   -1.3434 H   0  0  0  0  0  0  0  0  0  0  0  0
  -12.0318   -0.9781   -0.2951 H   0  0  0  0  0  0  0  0  0  0  0  0
  -11.8849    1.0011    1.3415 H   0  0  0  0  0  0  0  0  0  0  0  0
   -9.7689    1.1609    2.3246 H   0  0  0  0  0  0  0  0  0  0  0  0
   -2.2816    1.0162    2.3259 H   0  0  0  0  0  0  0  0  0  0  0  0
    0.6679   -3.0469   -1.7008 H   0  0  0  0  0  0  0  0  0  0  0  0
    2.3265   -4.0137   -3.1112 H   0  0  0  0  0  0  0  0  0  0  0  0
    5.7711   -0.9914   -3.2291 H   0  0  0  0  0  0  0  0  0  0  0  0
    8.3006    1.9884   -3.0963 H   0  0  0  0  0  0  0  0  0  0  0  0
    7.3154    0.8050   -3.9814 H   0  0  0  0  0  0  0  0  0  0  0  0
    9.2767   -0.3115   -2.9483 H   0  0  0  0  0  0  0  0  0  0  0  0
    7.7779   -0.9790   -2.2660 H   0  0  0  0  0  0  0  0  0  0  0  0
    7.9345    0.4887   -0.3436 H   0  0  0  0  0  0  0  0  0  0  0  0
    9.4172   -0.5829   -0.5548 H   0  0  0  0  0  0  0  0  0  0  0  0
    9.4225    2.2538    1.0075 H   0  0  0  0  0  0  0  0  0  0  0  0
   11.1467    2.1954    0.3845 H   0  0  0  0  0  0  0  0  0  0  0  0
   10.2933    0.6782    0.8762 H   0  0  0  0  0  0  0  0  0  0  0  0
   10.6764    1.8179   -2.7904 H   0  0  0  0  0  0  0  0  0  0  0  0
   11.7701    1.6663   -1.3620 H   0  0  0  0  0  0  0  0  0  0  0  0
   11.0355    0.2206   -2.1063 H   0  0  0  0  0  0  0  0  0  0  0  0
  1  2  1  0
  2  3  1  0
  3  4  2  0
  4  5  1  0
  5  6  2  0
  6  7  1  0
  7  8  1  0
  8  9  2  0
  9 10  1  0
 10 11  2  0
 11 12  1  0
 12 13  1  0
 13 14  2  0
 13 15  1  0
 15 16  1  0
 16 17  1  0
 15 18  1  0
 18 19  2  0
 18 20  1  0
 20 21  1  0
 21 22  2  0
 22 23  1  0
 23 24  1  0
 24 25  1  0
 24 26  1  0
 26 27  2  0
 11 28  1  0
 28 29  2  0
 29 30  1  0
  6 31  1  0
 31 32  2  0
 32 33  1  0
 33 34  2  0
 34 35  1  0
 35 36  2  0
 36 37  1  0
 37 38  1  0
 38 39  1  0
 39 40  1  0
 40 41  1  0
 41 42  1  0
 41 43  1  0
 36  3  1  0
 34  5  1  0
 29  8  1  0
 17 15  1  0
 27 21  1  0
  1 44  1  0
  1 45  1  0
  1 46  1  0
  4 47  1  0
  9 48  1  0
 10 49  1  0
 12 50  1  0
 16 51  1  0
 16 52  1  0
 17 53  1  0
 17 54  1  0
 20 55  1  0
 22 56  1  0
 23 57  1  0
 23 58  1  0
 24 59  1  0
 26 60  1  0
 27 61  1  0
 28 62  1  0
 31 63  1  0
 32 64  1  0
 35 65  1  0
 38 66  1  0
 38 67  1  0
 39 68  1  0
 39 69  1  0
 40 70  1  0
 40 71  1  0
 42 72  1  0
 42 73  1  0
 42 74  1  0
 43 75  1  0
 43 76  1  0
 43 77  1  0
M  END
$$$$
[H]N=C(c1c([H])c([H])c([H])c(C([H])([H])[C@@]([H])(C(=O)N2C([H])([H])C([H])([H])C([H])([H])[C@@]2([H])C(=O)N([H])C([H])(C([H])=O)C([H])([H])C([H])([H])C([H])([H])N([H])C(=N[H])N([H])[H])N([H])C(=O)OC(C([H])([H])[H])(C([H])([H])[H])C([H])([H])[H])c1[H])N([H])[H]
     RDKit          3D

 79 80  0  0  0  0  0  0  0  0999 V2000
   -7.1061    2.7743    0.2786 C   0  0  0  0  0  0  0  0  0  0  0  0
   -6.0173    3.4242   -0.5714 C   0  0  0  0  0  0  0  0  0  0  0  0
   -6.6731    3.7394   -1.9196 C   0  0  0  0  0  0  0  0  0  0  0  0
   -5.5982    4.7343    0.0541 C   0  0  0  0  0  0  0  0  0  0  0  0
   -4.9626    2.5418   -0.8189 O   0  0  0  0  0  0  0  0  0  0  0  0
   -4.2443    2.0073    0.2364 C   0  0  0  0  0  0  0  0  0  0  0  0
   -4.5815    2.3503    1.3974 O   0  0  0  0  0  0  0  0  0  0  0  0
   -3.1653    1.1040    0.0429 N   0  0  0  0  0  0  0  0  0  0  0  0
   -2.4160    0.5464    1.1722 C   0  0  1  0  0  0  0  0  0  0  0  0
   -2.7653   -0.9122    1.3268 C   0  0  0  0  0  0  0  0  0  0  0  0
   -2.4925   -1.7341    0.1406 C   0  0  0  0  0  0  0  0  0  0  0  0
   -1.3117   -2.4109    0.0172 C   0  0  0  0  0  0  0  0  0  0  0  0
   -1.1125   -3.1632   -1.1431 C   0  0  0  0  0  0  0  0  0  0  0  0
   -2.0945   -3.1980   -2.1073 C   0  0  0  0  0  0  0  0  0  0  0  0
   -3.2836   -2.5224   -1.9922 C   0  0  0  0  0  0  0  0  0  0  0  0
   -3.4697   -1.7833   -0.8437 C   0  0  0  0  0  0  0  0  0  0  0  0
   -4.3184   -2.5711   -3.0318 C   0  0  0  0  0  0  0  0  0  0  0  0
   -5.5205   -1.8367   -2.8250 N   0  0  0  0  0  0  0  0  0  0  0  0
   -4.2045   -3.2316   -4.1083 N   0  0  0  0  0  0  0  0  0  0  0  0
   -0.9902    0.8563    1.1195 C   0  0  0  0  0  0  0  0  0  0  0  0
   -0.5898    1.3321   -0.0219 O   0  0  0  0  0  0  0  0  0  0  0  0
   -0.0525    0.6986    2.1622 N   0  0  0  0  0  0  0  0  0  0  0  0
   -0.2424    0.1946    3.4915 C   0  0  0  0  0  0  0  0  0  0  0  0
    0.3813    1.3357    4.3137 C   0  0  0  0  0  0  0  0  0  0  0  0
    1.6247    1.6338    3.5253 C   0  0  0  0  0  0  0  0  0  0  0  0
    1.3404    1.0771    2.1142 C   0  0  1  0  0  0  0  0  0  0  0  0
    2.2464   -0.0365    1.8160 C   0  0  0  0  0  0  0  0  0  0  0  0
    1.8249   -1.1874    1.6595 O   0  0  0  0  0  0  0  0  0  0  0  0
    3.6446    0.1803    1.6989 N   0  0  0  0  0  0  0  0  0  0  0  0
    4.5856   -0.8720    1.4085 C   0  0  0  0  0  0  0  0  0  0  0  0
    5.2993   -0.5249    0.1224 C   0  0  0  0  0  0  0  0  0  0  0  0
    6.3041   -1.5967   -0.2374 C   0  0  0  0  0  0  0  0  0  0  0  0
    6.9686   -1.1501   -1.5444 C   0  0  0  0  0  0  0  0  0  0  0  0
    7.9588   -2.1306   -1.9677 N   0  0  0  0  0  0  0  0  0  0  0  0
    8.6714   -1.8872   -3.1529 C   0  0  0  0  0  0  0  0  0  0  0  0
    8.2719   -2.5174   -4.3553 N   0  0  0  0  0  0  0  0  0  0  0  0
    9.6792   -1.1031   -3.1640 N   0  0  0  0  0  0  0  0  0  0  0  0
    5.5697   -1.0303    2.5328 C   0  0  0  0  0  0  0  0  0  0  0  0
    5.4572   -0.3019    3.4833 O   0  0  0  0  0  0  0  0  0  0  0  0
   -8.1130    3.0424   -0.1014 H   0  0  0  0  0  0  0  0  0  0  0  0
   -6.9644    3.0425    1.3597 H   0  0  0  0  0  0  0  0  0  0  0  0
   -7.0424    1.6646    0.2347 H   0  0  0  0  0  0  0  0  0  0  0  0
   -6.2878    4.6824   -2.3491 H   0  0  0  0  0  0  0  0  0  0  0  0
   -7.7827    3.8853   -1.7849 H   0  0  0  0  0  0  0  0  0  0  0  0
   -6.4739    2.9417   -2.6614 H   0  0  0  0  0  0  0  0  0  0  0  0
   -4.5763    5.0356   -0.1782 H   0  0  0  0  0  0  0  0  0  0  0  0
   -6.2676    5.5536   -0.3258 H   0  0  0  0  0  0  0  0  0  0  0  0
   -5.7511    4.7037    1.1646 H   0  0  0  0  0  0  0  0  0  0  0  0
   -2.8927    0.8257   -0.9179 H   0  0  0  0  0  0  0  0  0  0  0  0
   -2.8542    1.0452    2.0857 H   0  0  0  0  0  0  0  0  0  0  0  0
   -2.1647   -1.3291    2.1563 H   0  0  0  0  0  0  0  0  0  0  0  0
   -3.8438   -0.9549    1.6072 H   0  0  0  0  0  0  0  0  0  0  0  0
   -0.5375   -2.4030    0.7631 H   0  0  0  0  0  0  0  0  0  0  0  0
   -0.1705   -3.6956   -1.2274 H   0  0  0  0  0  0  0  0  0  0  0  0
   -1.9302   -3.7871   -3.0072 H   0  0  0  0  0  0  0  0  0  0  0  0
   -4.3936   -1.2346   -0.7120 H   0  0  0  0  0  0  0  0  0  0  0  0
   -5.8275   -1.0730   -3.4642 H   0  0  0  0  0  0  0  0  0  0  0  0
   -6.1387   -2.0547   -2.0034 H   0  0  0  0  0  0  0  0  0  0  0  0
   -3.4009   -3.8138   -4.4103 H   0  0  0  0  0  0  0  0  0  0  0  0
   -1.2970    0.0507    3.7956 H   0  0  0  0  0  0  0  0  0  0  0  0
    0.3437   -0.7018    3.7232 H   0  0  0  0  0  0  0  0  0  0  0  0
   -0.2904    2.1919    4.2476 H   0  0  0  0  0  0  0  0  0  0  0  0
    0.5940    1.0067    5.3489 H   0  0  0  0  0  0  0  0  0  0  0  0
    1.9073    2.6956    3.4969 H   0  0  0  0  0  0  0  0  0  0  0  0
    2.4503    1.0277    3.9984 H   0  0  0  0  0  0  0  0  0  0  0  0
    1.5290    1.9228    1.4199 H   0  0  0  0  0  0  0  0  0  0  0  0
    4.0238    1.1322    1.8252 H   0  0  0  0  0  0  0  0  0  0  0  0
    4.0351   -1.8368    1.2722 H   0  0  0  0  0  0  0  0  0  0  0  0
    5.7855    0.4670    0.2428 H   0  0  0  0  0  0  0  0  0  0  0  0
    4.5272   -0.5266   -0.6810 H   0  0  0  0  0  0  0  0  0  0  0  0
    5.7251   -2.5222   -0.4567 H   0  0  0  0  0  0  0  0  0  0  0  0
    7.0772   -1.7506    0.5219 H   0  0  0  0  0  0  0  0  0  0  0  0
    7.5193   -0.1952   -1.3788 H   0  0  0  0  0  0  0  0  0  0  0  0
    6.1915   -0.9754   -2.3008 H   0  0  0  0  0  0  0  0  0  0  0  0
    8.1051   -2.9907   -1.3671 H   0  0  0  0  0  0  0  0  0  0  0  0
    8.7016   -3.4074   -4.6988 H   0  0  0  0  0  0  0  0  0  0  0  0
    7.5095   -2.1047   -4.9618 H   0  0  0  0  0  0  0  0  0  0  0  0
   10.0263   -0.6086   -2.3193 H   0  0  0  0  0  0  0  0  0  0  0  0
    6.3341   -1.7805    2.4539 H   0  0  0  0  0  0  0  0  0  0  0  0
  1  2  1  0
  2  3  1  0
  2  4  1  0
  2  5  1  0
  5  6  1  0
  6  7  2  0
  6  8  1  0
  8  9  1  0
  9 10  1  0
 10 11  1  0
 11 12  2  0
 12 13  1  0
 13 14  2  0
 14 15  1  0
 15 16  2  0
 15 17  1  0
 17 18  1  0
 17 19  2  3
  9 20  1  0
 20 21  2  0
 20 22  1  0
 22 23  1  0
 23 24  1  0
 24 25  1  0
 25 26  1  0
 26 27  1  0
 27 28  2  0
 27 29  1  0
 29 30  1  0
 30 31  1  0
 31 32  1  0
 32 33  1  0
 33 34  1  0
 34 35  1  0
 35 36  1  0
 35 37  2  3
 30 38  1  0
 38 39  2  0
 16 11  1  0
 26 22  1  0
  1 40  1  0
  1 41  1  0
  1 42  1  0
  3 43  1  0
  3 44  1  0
  3 45  1  0
  4 46  1  0
  4 47  1  0
  4 48  1  0
  8 49  1  0
  9 50  1  1
 10 51  1  0
 10 52  1  0
 12 53  1  0
 13 54  1  0
 14 55  1  0
 16 56  1  0
 18 57  1  0
 18 58  1  0
 19 59  1  0
 23 60  1  0
 23 61  1  0
 24 62  1  0
 24 63  1  0
 25 64  1  0
 25 65  1  0
 26 66  1  6
 29 67  1  0
 30 68  1  0
 31 69  1  0
 31 70  1  0
 32 71  1  0
 32 72  1  0
 33 73  1  0
 33 74  1  0
 34 75  1  0
 36 76  1  0
 36 77  1  0
 37 78  1  0
 38 79  1  0
M  END
$$$$
[H]c1c([H])c([H])c(-c2c([H])c([H])c([H])c([H])c2OC([H])(C2=NC([H])([H])C([H])([H])N2[H])C([H])([H])[H])c([H])c1[H]
     RDKit          3D

 38 40  0  0  0  0  0  0  0  0999 V2000
   -2.5726   -1.4432    0.3272 C   0  0  0  0  0  0  0  0  0  0  0  0
   -1.5821   -0.8533   -0.6548 C   0  0  0  0  0  0  0  0  0  0  0  0
   -0.3247   -0.6463   -0.1231 O   0  0  0  0  0  0  0  0  0  0  0  0
    0.8850   -1.1559   -0.4797 C   0  0  0  0  0  0  0  0  0  0  0  0
    1.0443   -2.0305   -1.5466 C   0  0  0  0  0  0  0  0  0  0  0  0
    2.2654   -2.5591   -1.9230 C   0  0  0  0  0  0  0  0  0  0  0  0
    3.3588   -2.1728   -1.1740 C   0  0  0  0  0  0  0  0  0  0  0  0
    3.2127   -1.3062   -0.1140 C   0  0  0  0  0  0  0  0  0  0  0  0
    1.9846   -0.7764    0.2623 C   0  0  0  0  0  0  0  0  0  0  0  0
    1.9317    0.1361    1.4069 C   0  0  0  0  0  0  0  0  0  0  0  0
    2.6250   -0.2448    2.5622 C   0  0  0  0  0  0  0  0  0  0  0  0
    2.6577    0.5148    3.6920 C   0  0  0  0  0  0  0  0  0  0  0  0
    1.9860    1.7091    3.7142 C   0  0  0  0  0  0  0  0  0  0  0  0
    1.2939    2.1110    2.5906 C   0  0  0  0  0  0  0  0  0  0  0  0
    1.2706    1.3208    1.4413 C   0  0  0  0  0  0  0  0  0  0  0  0
   -2.1554    0.3995   -1.2674 C   0  0  0  0  0  0  0  0  0  0  0  0
   -1.6926    1.5937   -1.2263 N   0  0  0  0  0  0  0  0  0  0  0  0
   -2.5097    2.5491   -1.9293 C   0  0  0  0  0  0  0  0  0  0  0  0
   -3.8332    1.8290   -2.0538 C   0  0  0  0  0  0  0  0  0  0  0  0
   -3.3769    0.4510   -2.0311 N   0  0  0  0  0  0  0  0  0  0  0  0
   -3.3436   -0.6656    0.5677 H   0  0  0  0  0  0  0  0  0  0  0  0
   -2.0674   -1.6702    1.3004 H   0  0  0  0  0  0  0  0  0  0  0  0
   -3.1128   -2.3072   -0.0629 H   0  0  0  0  0  0  0  0  0  0  0  0
   -1.5168   -1.5863   -1.4842 H   0  0  0  0  0  0  0  0  0  0  0  0
    0.2011   -2.3516   -2.1542 H   0  0  0  0  0  0  0  0  0  0  0  0
    2.3419   -3.2357   -2.7595 H   0  0  0  0  0  0  0  0  0  0  0  0
    4.3189   -2.5811   -1.4606 H   0  0  0  0  0  0  0  0  0  0  0  0
    4.0859   -1.0050    0.4750 H   0  0  0  0  0  0  0  0  0  0  0  0
    3.1640   -1.1964    2.5539 H   0  0  0  0  0  0  0  0  0  0  0  0
    3.1894    0.2296    4.5875 H   0  0  0  0  0  0  0  0  0  0  0  0
    1.9971    2.3340    4.6055 H   0  0  0  0  0  0  0  0  0  0  0  0
    0.7734    3.0529    2.6305 H   0  0  0  0  0  0  0  0  0  0  0  0
    0.7330    1.6459    0.5794 H   0  0  0  0  0  0  0  0  0  0  0  0
   -2.0341    2.7112   -2.9258 H   0  0  0  0  0  0  0  0  0  0  0  0
   -2.6013    3.4905   -1.3548 H   0  0  0  0  0  0  0  0  0  0  0  0
   -4.3693    2.0912   -2.9769 H   0  0  0  0  0  0  0  0  0  0  0  0
   -4.4231    1.9961   -1.1328 H   0  0  0  0  0  0  0  0  0  0  0  0
   -3.8046   -0.3778   -2.4620 H   0  0  0  0  0  0  0  0  0  0  0  0
  1  2  1  0
  2  3  1  0
  3  4  1  0
  4  5  2  0
  5  6  1  0
  6  7  2  0
  7  8  1  0
  8  9  2  0
  9 10  1  0
 10 11  2  0
 11 12  1  0
 12 13  2  0
 13 14  1  0
 14 15  2  0
  2 16  1  0
 16 17  2  0
 17 18  1  0
 18 19  1  0
 19 20  1  0
  9  4  1  0
 15 10  1  0
 20 16  1  0
  1 21  1  0
  1 22  1  0
  1 23  1  0
  2 24  1  0
  5 25  1  0
  6 26  1  0
  7 27  1  0
  8 28  1  0
 11 29  1  0
 12 30  1  0
 13 31  1  0
 14 32  1  0
 15 33  1  0
 18 34  1  0
 18 35  1  0
 19 36  1  0
 19 37  1  0
 20 38  1  0
M  END
$$$$
[H]c1c([H])c([H])c(C([H])([H])OC(=O)[C@@]([H])(N([H])C(=O)[C@@]([H])(N([H])C(=O)[C@]2([H])OC(=O)[C@@]2([H])[C@@]([H])(C([H])([H])[H])C([H])([H])C([H])([H])[H])C([H])(C([H])([H])[H])C([H])([H])[H])C([H])([H])C([H])(C([H])([H])[H])C([H])([H])[H])c([H])c1[H]
     RDKit          3D

 72 73  0  0  0  0  0  0  0  0999 V2000
    7.7799    0.6420   -0.4670 C   0  0  0  0  0  0  0  0  0  0  0  0
    7.6737   -0.6265   -1.2478 C   0  0  0  0  0  0  0  0  0  0  0  0
    6.2682   -1.2047   -1.2602 C   0  0  2  0  0  0  0  0  0  0  0  0
    5.3940   -0.1551   -1.8879 C   0  0  0  0  0  0  0  0  0  0  0  0
    5.7940   -1.5576    0.1141 C   0  0  1  0  0  0  0  0  0  0  0  0
    4.4450   -2.1444    0.2719 C   0  0  1  0  0  0  0  0  0  0  0  0
    5.0556   -2.9102    1.3358 O   0  0  0  0  0  0  0  0  0  0  0  0
    6.1973   -2.9127    0.5730 C   0  0  0  0  0  0  0  0  0  0  0  0
    7.1054   -3.7526    0.4168 O   0  0  0  0  0  0  0  0  0  0  0  0
    3.3405   -1.3603    0.7976 C   0  0  0  0  0  0  0  0  0  0  0  0
    3.1710   -1.3864    2.0595 O   0  0  0  0  0  0  0  0  0  0  0  0
    2.4157   -0.5637    0.0901 N   0  0  0  0  0  0  0  0  0  0  0  0
    1.3491    0.1845    0.7222 C   0  0  1  0  0  0  0  0  0  0  0  0
    1.5138    1.6728    0.5335 C   0  0  0  0  0  0  0  0  0  0  0  0
    1.5171    2.0808   -0.9163 C   0  0  0  0  0  0  0  0  0  0  0  0
    2.8132    2.0778    1.1741 C   0  0  0  0  0  0  0  0  0  0  0  0
    0.0082   -0.2956    0.3300 C   0  0  0  0  0  0  0  0  0  0  0  0
   -0.0746   -1.2503   -0.4725 O   0  0  0  0  0  0  0  0  0  0  0  0
   -1.2077    0.2494    0.7990 N   0  0  0  0  0  0  0  0  0  0  0  0
   -2.5122   -0.1788    0.4494 C   0  0  1  0  0  0  0  0  0  0  0  0
   -3.3706   -0.5743    1.6180 C   0  0  0  0  0  0  0  0  0  0  0  0
   -2.7902   -1.7108    2.4164 C   0  0  0  0  0  0  0  0  0  0  0  0
   -3.6972   -2.0710    3.5910 C   0  0  0  0  0  0  0  0  0  0  0  0
   -2.6579   -2.9825    1.6028 C   0  0  0  0  0  0  0  0  0  0  0  0
   -3.1996    0.9741   -0.2379 C   0  0  0  0  0  0  0  0  0  0  0  0
   -2.6001    2.0832   -0.4089 O   0  0  0  0  0  0  0  0  0  0  0  0
   -4.4928    0.8822   -0.7072 O   0  0  0  0  0  0  0  0  0  0  0  0
   -5.0896    1.9918   -1.3433 C   0  0  0  0  0  0  0  0  0  0  0  0
   -6.4658    1.7356   -1.7860 C   0  0  0  0  0  0  0  0  0  0  0  0
   -7.1454    2.7768   -2.3857 C   0  0  0  0  0  0  0  0  0  0  0  0
   -8.4514    2.6442   -2.8423 C   0  0  0  0  0  0  0  0  0  0  0  0
   -9.0961    1.4498   -2.6997 C   0  0  0  0  0  0  0  0  0  0  0  0
   -8.4223    0.4012   -2.0999 C   0  0  0  0  0  0  0  0  0  0  0  0
   -7.1217    0.5412   -1.6477 C   0  0  0  0  0  0  0  0  0  0  0  0
    8.3775    0.5502    0.4607 H   0  0  0  0  0  0  0  0  0  0  0  0
    8.2978    1.4412   -1.0677 H   0  0  0  0  0  0  0  0  0  0  0  0
    6.7703    0.9734   -0.1791 H   0  0  0  0  0  0  0  0  0  0  0  0
    7.9206   -0.4032   -2.3070 H   0  0  0  0  0  0  0  0  0  0  0  0
    8.4219   -1.4046   -0.9356 H   0  0  0  0  0  0  0  0  0  0  0  0
    6.2861   -2.1093   -1.8856 H   0  0  0  0  0  0  0  0  0  0  0  0
    5.9966    0.4194   -2.6387 H   0  0  0  0  0  0  0  0  0  0  0  0
    4.5539   -0.5946   -2.4692 H   0  0  0  0  0  0  0  0  0  0  0  0
    5.0142    0.5936   -1.1487 H   0  0  0  0  0  0  0  0  0  0  0  0
    6.0661   -0.8273    0.9107 H   0  0  0  0  0  0  0  0  0  0  0  0
    4.1597   -2.7764   -0.5961 H   0  0  0  0  0  0  0  0  0  0  0  0
    2.4939   -0.5145   -0.9440 H   0  0  0  0  0  0  0  0  0  0  0  0
    1.4400    0.0006    1.8181 H   0  0  0  0  0  0  0  0  0  0  0  0
    0.7039    2.1733    1.0954 H   0  0  0  0  0  0  0  0  0  0  0  0
    2.4557    2.6089   -1.2173 H   0  0  0  0  0  0  0  0  0  0  0  0
    1.2859    1.2214   -1.5774 H   0  0  0  0  0  0  0  0  0  0  0  0
    0.6990    2.8194   -1.0639 H   0  0  0  0  0  0  0  0  0  0  0  0
    3.6869    1.9320    0.4911 H   0  0  0  0  0  0  0  0  0  0  0  0
    2.8299    3.1487    1.4637 H   0  0  0  0  0  0  0  0  0  0  0  0
    3.0494    1.5087    2.0964 H   0  0  0  0  0  0  0  0  0  0  0  0
   -1.1199    1.0583    1.4794 H   0  0  0  0  0  0  0  0  0  0  0  0
   -2.4712   -1.0164   -0.2540 H   0  0  0  0  0  0  0  0  0  0  0  0
   -3.5258    0.2689    2.3257 H   0  0  0  0  0  0  0  0  0  0  0  0
   -4.3796   -0.8812    1.2757 H   0  0  0  0  0  0  0  0  0  0  0  0
   -1.7995   -1.4943    2.8335 H   0  0  0  0  0  0  0  0  0  0  0  0
   -4.3562   -1.1812    3.7502 H   0  0  0  0  0  0  0  0  0  0  0  0
   -3.1200   -2.2840    4.5010 H   0  0  0  0  0  0  0  0  0  0  0  0
   -4.3401   -2.9251    3.3761 H   0  0  0  0  0  0  0  0  0  0  0  0
   -2.0363   -3.6837    2.2199 H   0  0  0  0  0  0  0  0  0  0  0  0
   -2.2416   -2.8432    0.6072 H   0  0  0  0  0  0  0  0  0  0  0  0
   -3.6714   -3.4616    1.5755 H   0  0  0  0  0  0  0  0  0  0  0  0
   -5.1004    2.8982   -0.6984 H   0  0  0  0  0  0  0  0  0  0  0  0
   -4.4881    2.2246   -2.2609 H   0  0  0  0  0  0  0  0  0  0  0  0
   -6.6915    3.7600   -2.5318 H   0  0  0  0  0  0  0  0  0  0  0  0
   -8.9496    3.4875   -3.3080 H   0  0  0  0  0  0  0  0  0  0  0  0
  -10.1183    1.3618   -3.0619 H   0  0  0  0  0  0  0  0  0  0  0  0
   -8.9566   -0.5305   -2.0008 H   0  0  0  0  0  0  0  0  0  0  0  0
   -6.5899   -0.2687   -1.1801 H   0  0  0  0  0  0  0  0  0  0  0  0
  1  2  1  0
  2  3  1  0
  3  4  1  0
  3  5  1  0
  5  6  1  0
  6  7  1  0
  7  8  1  0
  8  9  2  0
  6 10  1  0
 10 11  2  0
 10 12  1  0
 12 13  1  0
 13 14  1  0
 14 15  1  0
 14 16  1  0
 13 17  1  0
 17 18  2  0
 17 19  1  0
 19 20  1  0
 20 21  1  0
 21 22  1  0
 22 23  1  0
 22 24  1  0
 20 25  1  0
 25 26  2  0
 25 27  1  0
 27 28  1  0
 28 29  1  0
 29 30  2  0
 30 31  1  0
 31 32  2  0
 32 33  1  0
 33 34  2  0
  8  5  1  0
 34 29  1  0
  1 35  1  0
  1 36  1  0
  1 37  1  0
  2 38  1  0
  2 39  1  0
  3 40  1  6
  4 41  1  0
  4 42  1  0
  4 43  1  0
  5 44  1  1
  6 45  1  6
 12 46  1  0
 13 47  1  1
 14 48  1  0
 15 49  1  0
 15 50  1  0
 15 51  1  0
 16 52  1  0
 16 53  1  0
 16 54  1  0
 19 55  1  0
 20 56  1  6
 21 57  1  0
 21 58  1  0
 22 59  1  0
 23 60  1  0
 23 61  1  0
 23 62  1  0
 24 63  1  0
 24 64  1  0
 24 65  1  0
 28 66  1  0
 28 67  1  0
 30 68  1  0
 31 69  1  0
 32 70  1  0
 33 71  1  0
 34 72  1  0
M  END
$$$$
[H]Oc1c([H])c(-n2c3c(c4c2C([H])([H])C(C([H])([H])[H])(C([H])([H])[H])C([H])([H])C4=O)C([H])([H])C([H])([H])N(C([H])([H])[H])C3([H])[H])c([H])c([H])c1F
     RDKit          3D

 48 51  0  0  0  0  0  0  0  0999 V2000
    3.9430   -1.6379    1.0334 C   0  0  0  0  0  0  0  0  0  0  0  0
    3.6208   -1.1717   -0.2841 N   0  0  0  0  0  0  0  0  0  0  0  0
    3.2451   -2.1828   -1.2089 C   0  0  0  0  0  0  0  0  0  0  0  0
    1.8013   -2.5310   -1.2322 C   0  0  0  0  0  0  0  0  0  0  0  0
    0.9299   -1.4191   -0.8298 C   0  0  0  0  0  0  0  0  0  0  0  0
    1.4080   -0.2049   -0.3965 C   0  0  0  0  0  0  0  0  0  0  0  0
    2.8621    0.0271   -0.3204 C   0  0  0  0  0  0  0  0  0  0  0  0
    0.3683    0.6243   -0.0947 N   0  0  0  0  0  0  0  0  0  0  0  0
   -0.7628   -0.0662   -0.3373 C   0  0  0  0  0  0  0  0  0  0  0  0
   -2.2010    0.2971   -0.2013 C   0  0  0  0  0  0  0  0  0  0  0  0
   -3.0802   -0.9170    0.0075 C   0  0  0  0  0  0  0  0  0  0  0  0
   -2.8046   -1.6146    1.3132 C   0  0  0  0  0  0  0  0  0  0  0  0
   -4.5153   -0.4293   -0.0732 C   0  0  0  0  0  0  0  0  0  0  0  0
   -2.8955   -1.8669   -1.1794 C   0  0  0  0  0  0  0  0  0  0  0  0
   -1.4813   -2.3107   -1.1387 C   0  0  0  0  0  0  0  0  0  0  0  0
   -1.1393   -3.4901   -1.3909 O   0  0  0  0  0  0  0  0  0  0  0  0
   -0.4656   -1.3307   -0.7920 C   0  0  0  0  0  0  0  0  0  0  0  0
    0.5004    1.9561    0.3822 C   0  0  0  0  0  0  0  0  0  0  0  0
    1.1003    2.1934    1.5976 C   0  0  0  0  0  0  0  0  0  0  0  0
    1.2429    3.4721    2.0862 C   0  0  0  0  0  0  0  0  0  0  0  0
    0.7773    4.5755    1.3533 C   0  0  0  0  0  0  0  0  0  0  0  0
    0.9148    5.8352    1.8285 F   0  0  0  0  0  0  0  0  0  0  0  0
    0.1755    4.3406    0.1345 C   0  0  0  0  0  0  0  0  0  0  0  0
   -0.3032    5.3913   -0.6328 O   0  0  0  0  0  0  0  0  0  0  0  0
    0.0350    3.0580   -0.3507 C   0  0  0  0  0  0  0  0  0  0  0  0
    4.8597   -2.2389    0.9962 H   0  0  0  0  0  0  0  0  0  0  0  0
    3.1255   -2.1383    1.5548 H   0  0  0  0  0  0  0  0  0  0  0  0
    4.1958   -0.7285    1.6423 H   0  0  0  0  0  0  0  0  0  0  0  0
    3.8115   -3.1153   -0.9349 H   0  0  0  0  0  0  0  0  0  0  0  0
    3.6384   -1.8918   -2.2161 H   0  0  0  0  0  0  0  0  0  0  0  0
    1.5447   -3.4325   -0.6269 H   0  0  0  0  0  0  0  0  0  0  0  0
    1.5476   -2.8268   -2.2926 H   0  0  0  0  0  0  0  0  0  0  0  0
    3.2087    0.6377   -1.2023 H   0  0  0  0  0  0  0  0  0  0  0  0
    3.1417    0.6333    0.5676 H   0  0  0  0  0  0  0  0  0  0  0  0
   -2.5045    0.7222   -1.1864 H   0  0  0  0  0  0  0  0  0  0  0  0
   -2.3768    0.9979    0.6323 H   0  0  0  0  0  0  0  0  0  0  0  0
   -3.7233   -1.6196    1.9465 H   0  0  0  0  0  0  0  0  0  0  0  0
   -1.9512   -1.2109    1.8646 H   0  0  0  0  0  0  0  0  0  0  0  0
   -2.6073   -2.6937    1.0853 H   0  0  0  0  0  0  0  0  0  0  0  0
   -5.2019   -1.2657    0.1256 H   0  0  0  0  0  0  0  0  0  0  0  0
   -4.6694    0.4260    0.6163 H   0  0  0  0  0  0  0  0  0  0  0  0
   -4.6986   -0.0763   -1.1088 H   0  0  0  0  0  0  0  0  0  0  0  0
   -3.0752   -1.2765   -2.0959 H   0  0  0  0  0  0  0  0  0  0  0  0
   -3.5410   -2.7328   -1.0505 H   0  0  0  0  0  0  0  0  0  0  0  0
    1.4637    1.3667    2.1757 H   0  0  0  0  0  0  0  0  0  0  0  0
    1.7145    3.6392    3.0387 H   0  0  0  0  0  0  0  0  0  0  0  0
   -0.7446    5.3062   -1.5122 H   0  0  0  0  0  0  0  0  0  0  0  0
   -0.4338    2.9205   -1.2927 H   0  0  0  0  0  0  0  0  0  0  0  0
  1  2  1  0
  2  3  1  0
  3  4  1  0
  4  5  1  0
  5  6  2  0
  6  7  1  0
  6  8  1  0
  8  9  1  0
  9 10  1  0
 10 11  1  0
 11 12  1  0
 11 13  1  0
 11 14  1  0
 14 15  1  0
 15 16  2  0
 15 17  1  0
  8 18  1  0
 18 19  2  0
 19 20  1  0
 20 21  2  0
 21 22  1  0
 21 23  1  0
 23 24  1  0
 23 25  2  0
  7  2  1  0
 17  9  2  0
 25 18  1  0
 17  5  1  0
  1 26  1  0
  1 27  1  0
  1 28  1  0
  3 29  1  0
  3 30  1  0
  4 31  1  0
  4 32  1  0
  7 33  1  0
  7 34  1  0
 10 35  1  0
 10 36  1  0
 12 37  1  0
 12 38  1  0
 12 39  1  0
 13 40  1  0
 13 41  1  0
 13 42  1  0
 14 43  1  0
 14 44  1  0
 19 45  1  0
 20 46  1  0
 24 47  1  0
 25 48  1  0
M  END
$$$$
[H]OC(=O)c1[se]c(-c2c([H])c([H])c(OC([H])(C([H])([H])[H])C([H])([H])[H])c(C#N)c2[H])nc1C([H])([H])[H]
     RDKit          3D

 35 36  0  0  0  0  0  0  0  0999 V2000
   -5.2725    1.2153   -0.3579 C   0  0  0  0  0  0  0  0  0  0  0  0
   -4.4408    0.1998    0.4107 C   0  0  0  0  0  0  0  0  0  0  0  0
   -5.4312   -0.8278    0.9341 C   0  0  0  0  0  0  0  0  0  0  0  0
   -3.4695   -0.3400   -0.4038 O   0  0  0  0  0  0  0  0  0  0  0  0
   -2.1159   -0.2364   -0.2572 C   0  0  0  0  0  0  0  0  0  0  0  0
   -1.4662    0.4365    0.7465 C   0  0  0  0  0  0  0  0  0  0  0  0
   -0.0888    0.4837    0.8085 C   0  0  0  0  0  0  0  0  0  0  0  0
    0.6804   -0.1494   -0.1446 C   0  0  0  0  0  0  0  0  0  0  0  0
    0.0222   -0.8190   -1.1432 C   0  0  0  0  0  0  0  0  0  0  0  0
   -1.3406   -0.8829   -1.2303 C   0  0  0  0  0  0  0  0  0  0  0  0
   -1.9794   -1.6020   -2.3032 C   0  0  0  0  0  0  0  0  0  0  0  0
   -2.4640   -2.1760   -3.1599 N   0  0  0  0  0  0  0  0  0  0  0  0
    2.1163   -0.1001   -0.0798 C   0  0  0  0  0  0  0  0  0  0  0  0
    3.1908   -0.4460   -0.6046 N   0  0  0  0  0  0  0  0  0  0  0  0
    4.4194   -0.2819   -0.3665 C   0  0  0  0  0  0  0  0  0  0  0  0
    5.4961   -0.9065   -1.3050 C   0  0  0  0  0  0  0  0  0  0  0  0
    4.9237    0.4162    0.6757 C   0  0  0  0  0  0  0  0  0  0  0  0
    3.0679    0.9718    1.5196 Se  0  0  0  0  0  2  0  0  0  0  0  0
    6.1240    0.8259    1.2818 C   0  0  0  0  0  0  0  0  0  0  0  0
    6.1302    1.5951    2.4337 O   0  0  0  0  0  0  0  0  0  0  0  0
    7.2154    0.5177    0.8134 O   0  0  0  0  0  0  0  0  0  0  0  0
   -6.1564    1.4325    0.2810 H   0  0  0  0  0  0  0  0  0  0  0  0
   -5.6407    0.8053   -1.3130 H   0  0  0  0  0  0  0  0  0  0  0  0
   -4.6832    2.1443   -0.4695 H   0  0  0  0  0  0  0  0  0  0  0  0
   -3.9883    0.7581    1.2439 H   0  0  0  0  0  0  0  0  0  0  0  0
   -4.9836   -1.8444    0.9336 H   0  0  0  0  0  0  0  0  0  0  0  0
   -6.3871   -0.8136    0.3469 H   0  0  0  0  0  0  0  0  0  0  0  0
   -5.6995   -0.5210    1.9643 H   0  0  0  0  0  0  0  0  0  0  0  0
   -2.0233    0.9475    1.5152 H   0  0  0  0  0  0  0  0  0  0  0  0
    0.3632    1.0236    1.6141 H   0  0  0  0  0  0  0  0  0  0  0  0
    0.6332   -1.3073   -1.8784 H   0  0  0  0  0  0  0  0  0  0  0  0
    6.2458   -0.1636   -1.5456 H   0  0  0  0  0  0  0  0  0  0  0  0
    5.0368   -1.2306   -2.2534 H   0  0  0  0  0  0  0  0  0  0  0  0
    5.9963   -1.7324   -0.7615 H   0  0  0  0  0  0  0  0  0  0  0  0
    5.9691    2.6076    2.3534 H   0  0  0  0  0  0  0  0  0  0  0  0
  1  2  1  0
  2  3  1  0
  2  4  1  0
  4  5  1  0
  5  6  2  0
  6  7  1  0
  7  8  2  0
  8  9  1  0
  9 10  2  0
 10 11  1  0
 11 12  3  0
  8 13  1  0
 13 14  2  0
 14 15  1  0
 15 16  1  0
 15 17  2  0
 17 18  1  0
 17 19  1  0
 19 20  1  0
 19 21  2  0
 10  5  1  0
 18 13  1  0
  1 22  1  0
  1 23  1  0
  1 24  1  0
  2 25  1  0
  3 26  1  0
  3 27  1  0
  3 28  1  0
  6 29  1  0
  7 30  1  0
  9 31  1  0
 16 32  1  0
 16 33  1  0
 16 34  1  0
 20 35  1  0
M  END
$$$$
[H]c1c([H])c(C([H])([H])N2C([H])([H])C([H])([H])N(C([H])([H])[H])C([H])([H])C2([H])[H])c(C(F)(F)F)c([H])c1C(=O)N([H])c1c([H])c([H])c(C([H])([H])[H])c(C(=O)N([H])[H])c1[H]
     RDKit          3D

 56 58  0  0  0  0  0  0  0  0999 V2000
    7.7340   -1.5634   -1.0979 C   0  0  0  0  0  0  0  0  0  0  0  0
    6.3977   -1.0603   -0.8380 N   0  0  0  0  0  0  0  0  0  0  0  0
    5.8045   -0.6319   -2.0866 C   0  0  0  0  0  0  0  0  0  0  0  0
    4.4552    0.0186   -1.8811 C   0  0  0  0  0  0  0  0  0  0  0  0
    4.4111    0.8876   -0.7576 N   0  0  0  0  0  0  0  0  0  0  0  0
    3.6396    0.4943    0.3590 C   0  0  0  0  0  0  0  0  0  0  0  0
    2.1961    0.3931    0.2135 C   0  0  0  0  0  0  0  0  0  0  0  0
    1.5817    0.7363   -0.9605 C   0  0  0  0  0  0  0  0  0  0  0  0
    0.2028    0.6790   -1.1491 C   0  0  0  0  0  0  0  0  0  0  0  0
   -0.6134    0.2585   -0.1164 C   0  0  0  0  0  0  0  0  0  0  0  0
   -0.0043   -0.0832    1.0527 C   0  0  0  0  0  0  0  0  0  0  0  0
    1.3685   -0.0325    1.2591 C   0  0  0  0  0  0  0  0  0  0  0  0
    1.9455   -0.4178    2.5470 C   0  0  0  0  0  0  0  0  0  0  0  0
    2.6469    0.5893    3.1858 F   0  0  0  0  0  0  0  0  0  0  0  0
    2.6850   -1.5872    2.4799 F   0  0  0  0  0  0  0  0  0  0  0  0
    0.8909   -0.7187    3.4219 F   0  0  0  0  0  0  0  0  0  0  0  0
   -2.0807    0.1889   -0.3183 C   0  0  0  0  0  0  0  0  0  0  0  0
   -2.4920    0.1895   -1.4806 O   0  0  0  0  0  0  0  0  0  0  0  0
   -2.9563    0.1261    0.7842 N   0  0  0  0  0  0  0  0  0  0  0  0
   -4.3503    0.0486    0.7998 C   0  0  0  0  0  0  0  0  0  0  0  0
   -5.0101    0.3057    1.9972 C   0  0  0  0  0  0  0  0  0  0  0  0
   -6.3774    0.2273    2.0601 C   0  0  0  0  0  0  0  0  0  0  0  0
   -7.1701   -0.1061    0.9572 C   0  0  0  0  0  0  0  0  0  0  0  0
   -8.6371   -0.1612    1.1220 C   0  0  0  0  0  0  0  0  0  0  0  0
   -6.4975   -0.3560   -0.2135 C   0  0  0  0  0  0  0  0  0  0  0  0
   -5.0866   -0.2776   -0.2877 C   0  0  0  0  0  0  0  0  0  0  0  0
   -7.2301   -0.7154   -1.4139 C   0  0  0  0  0  0  0  0  0  0  0  0
   -8.6253   -0.8574   -1.4540 N   0  0  0  0  0  0  0  0  0  0  0  0
   -6.5479   -0.9102   -2.4860 O   0  0  0  0  0  0  0  0  0  0  0  0
    5.7561    1.1881   -0.3213 C   0  0  0  0  0  0  0  0  0  0  0  0
    6.5023   -0.0246    0.1412 C   0  0  0  0  0  0  0  0  0  0  0  0
    8.1689   -1.8419   -0.1139 H   0  0  0  0  0  0  0  0  0  0  0  0
    8.3744   -0.7802   -1.5498 H   0  0  0  0  0  0  0  0  0  0  0  0
    7.6837   -2.4739   -1.7141 H   0  0  0  0  0  0  0  0  0  0  0  0
    6.4802    0.1210   -2.5793 H   0  0  0  0  0  0  0  0  0  0  0  0
    5.6629   -1.5339   -2.7135 H   0  0  0  0  0  0  0  0  0  0  0  0
    4.2784    0.6355   -2.8114 H   0  0  0  0  0  0  0  0  0  0  0  0
    3.6702   -0.7599   -1.8990 H   0  0  0  0  0  0  0  0  0  0  0  0
    3.8324    1.2894    1.1520 H   0  0  0  0  0  0  0  0  0  0  0  0
    4.1171   -0.4047    0.8045 H   0  0  0  0  0  0  0  0  0  0  0  0
    2.1431    1.0900   -1.8191 H   0  0  0  0  0  0  0  0  0  0  0  0
   -0.2422    0.9600   -2.0966 H   0  0  0  0  0  0  0  0  0  0  0  0
   -0.6259   -0.4292    1.8969 H   0  0  0  0  0  0  0  0  0  0  0  0
   -2.4979    0.1391    1.7658 H   0  0  0  0  0  0  0  0  0  0  0  0
   -4.4708    0.5748    2.9126 H   0  0  0  0  0  0  0  0  0  0  0  0
   -6.8594    0.4317    3.0006 H   0  0  0  0  0  0  0  0  0  0  0  0
   -9.0765   -1.1638    1.0059 H   0  0  0  0  0  0  0  0  0  0  0  0
   -9.1244    0.6295    0.5244 H   0  0  0  0  0  0  0  0  0  0  0  0
   -8.8457    0.1307    2.2045 H   0  0  0  0  0  0  0  0  0  0  0  0
   -4.6429   -0.5070   -1.2700 H   0  0  0  0  0  0  0  0  0  0  0  0
   -9.0620   -1.7799   -1.2467 H   0  0  0  0  0  0  0  0  0  0  0  0
   -9.2605   -0.0693   -1.6981 H   0  0  0  0  0  0  0  0  0  0  0  0
    6.2963    1.6148   -1.1911 H   0  0  0  0  0  0  0  0  0  0  0  0
    5.7392    1.9591    0.4874 H   0  0  0  0  0  0  0  0  0  0  0  0
    6.1570   -0.4069    1.1214 H   0  0  0  0  0  0  0  0  0  0  0  0
    7.5655    0.2947    0.3085 H   0  0  0  0  0  0  0  0  0  0  0  0
  1  2  1  0
  2  3  1  0
  3  4  1  0
  4  5  1  0
  5  6  1  0
  6  7  1  0
  7  8  2  0
  8  9  1  0
  9 10  2  0
 10 11  1  0
 11 12  2  0
 12 13  1  0
 13 14  1  0
 13 15  1  0
 13 16  1  0
 10 17  1  0
 17 18  2  0
 17 19  1  0
 19 20  1  0
 20 21  2  0
 21 22  1  0
 22 23  2  0
 23 24  1  0
 23 25  1  0
 25 26  2  0
 25 27  1  0
 27 28  1  0
 27 29  2  0
  5 30  1  0
 30 31  1  0
 31  2  1  0
 12  7  1  0
 26 20  1  0
  1 32  1  0
  1 33  1  0
  1 34  1  0
  3 35  1  0
  3 36  1  0
  4 37  1  0
  4 38  1  0
  6 39  1  0
  6 40  1  0
  8 41  1  0
  9 42  1  0
 11 43  1  0
 19 44  1  0
 21 45  1  0
 22 46  1  0
 24 47  1  0
 24 48  1  0
 24 49  1  0
 26 50  1  0
 28 51  1  0
 28 52  1  0
 30 53  1  0
 30 54  1  0
 31 55  1  0
 31 56  1  0
M  END
$$$$
[H]c1c([H])c([H])c(-c2c([H])c([H])c([H])c([H])c2N([H])S(=O)(=O)c2c([H])c([H])c(Cl)c([H])c2[H])c([H])c1[H]
     RDKit          3D

 37 39  0  0  0  0  0  0  0  0999 V2000
    5.1912   -0.4338    3.4740 Cl  0  0  0  0  0  0  0  0  0  0  0  0
    4.2279   -0.0933    2.0517 C   0  0  0  0  0  0  0  0  0  0  0  0
    3.6310    1.1314    1.8761 C   0  0  0  0  0  0  0  0  0  0  0  0
    2.8675    1.3960    0.7455 C   0  0  0  0  0  0  0  0  0  0  0  0
    2.6891    0.4405   -0.2269 C   0  0  0  0  0  0  0  0  0  0  0  0
    3.2901   -0.7812   -0.0425 C   0  0  0  0  0  0  0  0  0  0  0  0
    4.0583   -1.0524    1.0919 C   0  0  0  0  0  0  0  0  0  0  0  0
    1.7606    0.7003   -1.6754 S   0  0  0  0  0  0  0  0  0  0  0  0
    1.9908    2.1632   -2.0890 O   0  0  0  0  0  0  0  0  0  0  0  0
    2.2731   -0.1484   -2.7996 O   0  0  0  0  0  0  0  0  0  0  0  0
    0.0851    0.4503   -1.4781 N   0  0  0  0  0  0  0  0  0  0  0  0
   -0.4533   -0.7891   -1.0974 C   0  0  0  0  0  0  0  0  0  0  0  0
    0.1931   -1.9995   -1.3849 C   0  0  0  0  0  0  0  0  0  0  0  0
   -0.3512   -3.2072   -0.9727 C   0  0  0  0  0  0  0  0  0  0  0  0
   -1.5343   -3.2626   -0.2733 C   0  0  0  0  0  0  0  0  0  0  0  0
   -2.1619   -2.0758    0.0037 C   0  0  0  0  0  0  0  0  0  0  0  0
   -1.6410   -0.8263   -0.3986 C   0  0  0  0  0  0  0  0  0  0  0  0
   -2.4002    0.3690   -0.0932 C   0  0  0  0  0  0  0  0  0  0  0  0
   -2.9589    1.1754   -1.0418 C   0  0  0  0  0  0  0  0  0  0  0  0
   -3.6756    2.3230   -0.6836 C   0  0  0  0  0  0  0  0  0  0  0  0
   -3.8447    2.6818    0.6357 C   0  0  0  0  0  0  0  0  0  0  0  0
   -3.2823    1.8699    1.5969 C   0  0  0  0  0  0  0  0  0  0  0  0
   -2.5761    0.7393    1.2439 C   0  0  0  0  0  0  0  0  0  0  0  0
    3.7262    1.9258    2.5931 H   0  0  0  0  0  0  0  0  0  0  0  0
    2.3912    2.3567    0.5940 H   0  0  0  0  0  0  0  0  0  0  0  0
    3.2240   -1.6099   -0.7421 H   0  0  0  0  0  0  0  0  0  0  0  0
    4.5236   -2.0136    1.2242 H   0  0  0  0  0  0  0  0  0  0  0  0
   -0.5370    1.2572   -1.6548 H   0  0  0  0  0  0  0  0  0  0  0  0
    1.1136   -1.9617   -1.9352 H   0  0  0  0  0  0  0  0  0  0  0  0
    0.1654   -4.1319   -1.2054 H   0  0  0  0  0  0  0  0  0  0  0  0
   -1.9849   -4.1900    0.0630 H   0  0  0  0  0  0  0  0  0  0  0  0
   -3.1080   -2.0705    0.5591 H   0  0  0  0  0  0  0  0  0  0  0  0
   -2.8368    0.8986   -2.0849 H   0  0  0  0  0  0  0  0  0  0  0  0
   -4.0988    2.9304   -1.4604 H   0  0  0  0  0  0  0  0  0  0  0  0
   -4.3979    3.5687    0.9275 H   0  0  0  0  0  0  0  0  0  0  0  0
   -3.4195    2.1589    2.6423 H   0  0  0  0  0  0  0  0  0  0  0  0
   -2.1396    0.1109    2.0170 H   0  0  0  0  0  0  0  0  0  0  0  0
  1  2  1  0
  2  3  2  0
  3  4  1  0
  4  5  2  0
  5  6  1  0
  6  7  2  0
  5  8  1  0
  8  9  2  0
  8 10  2  0
  8 11  1  0
 11 12  1  0
 12 13  2  0
 13 14  1  0
 14 15  2  0
 15 16  1  0
 16 17  2  0
 17 18  1  0
 18 19  2  0
 19 20  1  0
 20 21  2  0
 21 22  1  0
 22 23  2  0
  7  2  1  0
 17 12  1  0
 23 18  1  0
  3 24  1  0
  4 25  1  0
  6 26  1  0
  7 27  1  0
 11 28  1  0
 13 29  1  0
 14 30  1  0
 15 31  1  0
 16 32  1  0
 19 33  1  0
 20 34  1  0
 21 35  1  0
 22 36  1  0
 23 37  1  0
M  END
$$$$
[H]N=C(N([H])[H])N([H])C([H])([H])C([H])([H])C([H])([H])[C@@]([H])(C(=O)N([H])[C@]([H])(C(=O)N([H])[H])C([H])([H])c1c([H])nc([H])n1[H])N([H])C(=O)[C@@]([H])(N([H])C(=O)[C@]([H])(N([H])[H])[C@]([H])(O[H])C([H])([H])[H])C([H])([H])c1c([H])c([H])c([H])c([H])c1[H]
     RDKit          3D

 78 79  0  0  0  0  0  0  0  0999 V2000
   -5.6771   -2.1162   -2.3623 C   0  0  0  0  0  0  0  0  0  0  0  0
   -5.0424   -2.8010   -1.1738 C   0  0  1  0  0  0  0  0  0  0  0  0
   -3.7635   -3.1874   -1.4861 O   0  0  0  0  0  0  0  0  0  0  0  0
   -5.0976   -1.9239    0.0689 C   0  0  1  0  0  0  0  0  0  0  0  0
   -4.6004   -2.6277    1.2081 N   0  0  0  0  0  0  0  0  0  0  0  0
   -4.2952   -0.6779   -0.1547 C   0  0  0  0  0  0  0  0  0  0  0  0
   -4.6171    0.1569   -1.0493 O   0  0  0  0  0  0  0  0  0  0  0  0
   -3.1638   -0.4286    0.6385 N   0  0  0  0  0  0  0  0  0  0  0  0
   -2.2918    0.7377    0.5267 C   0  0  1  0  0  0  0  0  0  0  0  0
   -1.9717    1.3598    1.8451 C   0  0  0  0  0  0  0  0  0  0  0  0
   -3.1452    1.8312    2.6103 C   0  0  0  0  0  0  0  0  0  0  0  0
   -3.6677    3.0785    2.4301 C   0  0  0  0  0  0  0  0  0  0  0  0
   -4.7616    3.4775    3.1930 C   0  0  0  0  0  0  0  0  0  0  0  0
   -5.3394    2.6367    4.1378 C   0  0  0  0  0  0  0  0  0  0  0  0
   -4.7974    1.3837    4.3033 C   0  0  0  0  0  0  0  0  0  0  0  0
   -3.7063    0.9821    3.5440 C   0  0  0  0  0  0  0  0  0  0  0  0
   -1.0419    0.2449   -0.0974 C   0  0  0  0  0  0  0  0  0  0  0  0
   -1.0683   -0.8331   -0.7398 O   0  0  0  0  0  0  0  0  0  0  0  0
    0.1889    0.9309   -0.0039 N   0  0  0  0  0  0  0  0  0  0  0  0
    1.3760    0.3971   -0.6643 C   0  0  1  0  0  0  0  0  0  0  0  0
    2.1937    1.5233   -1.1861 C   0  0  0  0  0  0  0  0  0  0  0  0
    1.3672    2.3074   -2.1876 C   0  0  0  0  0  0  0  0  0  0  0  0
    2.1852    3.4788   -2.6966 C   0  0  0  0  0  0  0  0  0  0  0  0
    1.4901    4.2760   -3.6660 N   0  0  0  0  0  0  0  0  0  0  0  0
    2.1510    5.4170   -4.1967 C   0  0  0  0  0  0  0  0  0  0  0  0
    3.0634    6.1235   -3.3512 N   0  0  0  0  0  0  0  0  0  0  0  0
    1.9435    5.8191   -5.4127 N   0  0  0  0  0  0  0  0  0  0  0  0
    2.1228   -0.4197    0.3615 C   0  0  0  0  0  0  0  0  0  0  0  0
    1.6358   -0.4313    1.5171 O   0  0  0  0  0  0  0  0  0  0  0  0
    3.2936   -1.1175    0.0039 N   0  0  0  0  0  0  0  0  0  0  0  0
    4.0135   -1.9071    0.9753 C   0  0  1  0  0  0  0  0  0  0  0  0
    3.8328   -3.3602    0.5236 C   0  0  0  0  0  0  0  0  0  0  0  0
    4.4941   -4.3519    1.3688 C   0  0  0  0  0  0  0  0  0  0  0  0
    3.9255   -4.9539    2.4930 C   0  0  0  0  0  0  0  0  0  0  0  0
    4.8289   -5.8228    2.9854 N   0  0  0  0  0  0  0  0  0  0  0  0
    5.9231   -5.7656    2.1953 C   0  0  0  0  0  0  0  0  0  0  0  0
    5.7214   -4.8823    1.2250 N   0  0  0  0  0  0  0  0  0  0  0  0
    5.3951   -1.4557    1.0018 C   0  0  0  0  0  0  0  0  0  0  0  0
    6.4435   -1.9477    1.8378 N   0  0  0  0  0  0  0  0  0  0  0  0
    5.7706   -0.5129    0.2092 O   0  0  0  0  0  0  0  0  0  0  0  0
   -4.9615   -1.4573   -2.8854 H   0  0  0  0  0  0  0  0  0  0  0  0
   -6.5161   -1.4812   -1.9964 H   0  0  0  0  0  0  0  0  0  0  0  0
   -6.1090   -2.8608   -3.0781 H   0  0  0  0  0  0  0  0  0  0  0  0
   -5.6063   -3.7433   -0.9228 H   0  0  0  0  0  0  0  0  0  0  0  0
   -3.7194   -3.5795   -2.3771 H   0  0  0  0  0  0  0  0  0  0  0  0
   -6.1393   -1.6261    0.2327 H   0  0  0  0  0  0  0  0  0  0  0  0
   -4.5946   -2.0639    2.0797 H   0  0  0  0  0  0  0  0  0  0  0  0
   -3.6472   -3.0039    1.0408 H   0  0  0  0  0  0  0  0  0  0  0  0
   -2.9140   -1.1521    1.3894 H   0  0  0  0  0  0  0  0  0  0  0  0
   -2.7236    1.4622   -0.2159 H   0  0  0  0  0  0  0  0  0  0  0  0
   -1.3387    2.2584    1.6707 H   0  0  0  0  0  0  0  0  0  0  0  0
   -1.3780    0.6076    2.4203 H   0  0  0  0  0  0  0  0  0  0  0  0
   -3.2143    3.7415    1.6842 H   0  0  0  0  0  0  0  0  0  0  0  0
   -5.1891    4.4594    3.0628 H   0  0  0  0  0  0  0  0  0  0  0  0
   -6.2037    2.9703    4.7292 H   0  0  0  0  0  0  0  0  0  0  0  0
   -5.2439    0.7273    5.0366 H   0  0  0  0  0  0  0  0  0  0  0  0
   -3.2720   -0.0040    3.6764 H   0  0  0  0  0  0  0  0  0  0  0  0
    0.2813    1.8351    0.5356 H   0  0  0  0  0  0  0  0  0  0  0  0
    1.0937   -0.3675   -1.4268 H   0  0  0  0  0  0  0  0  0  0  0  0
    3.1645    1.2503   -1.5903 H   0  0  0  0  0  0  0  0  0  0  0  0
    2.3749    2.2512   -0.3322 H   0  0  0  0  0  0  0  0  0  0  0  0
    1.0573    1.6102   -2.9994 H   0  0  0  0  0  0  0  0  0  0  0  0
    0.4353    2.6760   -1.7127 H   0  0  0  0  0  0  0  0  0  0  0  0
    2.3332    4.1301   -1.7996 H   0  0  0  0  0  0  0  0  0  0  0  0
    3.1182    3.1175   -3.1187 H   0  0  0  0  0  0  0  0  0  0  0  0
    0.5292    4.0720   -4.0087 H   0  0  0  0  0  0  0  0  0  0  0  0
    3.2308    5.8556   -2.3668 H   0  0  0  0  0  0  0  0  0  0  0  0
    3.5787    6.9357   -3.7373 H   0  0  0  0  0  0  0  0  0  0  0  0
    2.4575    6.6652   -5.7453 H   0  0  0  0  0  0  0  0  0  0  0  0
    3.6469   -1.0693   -0.9652 H   0  0  0  0  0  0  0  0  0  0  0  0
    3.5709   -1.8088    1.9973 H   0  0  0  0  0  0  0  0  0  0  0  0
    2.7077   -3.5242    0.5796 H   0  0  0  0  0  0  0  0  0  0  0  0
    4.0676   -3.4819   -0.5384 H   0  0  0  0  0  0  0  0  0  0  0  0
    2.9438   -4.7630    2.8976 H   0  0  0  0  0  0  0  0  0  0  0  0
    6.8018   -6.3654    2.3714 H   0  0  0  0  0  0  0  0  0  0  0  0
    6.4263   -4.6612    0.4786 H   0  0  0  0  0  0  0  0  0  0  0  0
    6.2963   -1.9218    2.8625 H   0  0  0  0  0  0  0  0  0  0  0  0
    7.3435   -2.3284    1.4762 H   0  0  0  0  0  0  0  0  0  0  0  0
  1  2  1  0
  2  3  1  0
  2  4  1  0
  4  5  1  0
  4  6  1  0
  6  7  2  0
  6  8  1  0
  8  9  1  0
  9 10  1  0
 10 11  1  0
 11 12  2  0
 12 13  1  0
 13 14  2  0
 14 15  1  0
 15 16  2  0
  9 17  1  0
 17 18  2  0
 17 19  1  0
 19 20  1  0
 20 21  1  0
 21 22  1  0
 22 23  1  0
 23 24  1  0
 24 25  1  0
 25 26  1  0
 25 27  2  3
 20 28  1  0
 28 29  2  0
 28 30  1  0
 30 31  1  0
 31 32  1  0
 32 33  1  0
 33 34  2  0
 34 35  1  0
 35 36  2  0
 36 37  1  0
 31 38  1  0
 38 39  1  0
 38 40  2  0
 16 11  1  0
 37 33  1  0
  1 41  1  0
  1 42  1  0
  1 43  1  0
  2 44  1  1
  3 45  1  0
  4 46  1  1
  5 47  1  0
  5 48  1  0
  8 49  1  0
  9 50  1  6
 10 51  1  0
 10 52  1  0
 12 53  1  0
 13 54  1  0
 14 55  1  0
 15 56  1  0
 16 57  1  0
 19 58  1  0
 20 59  1  6
 21 60  1  0
 21 61  1  0
 22 62  1  0
 22 63  1  0
 23 64  1  0
 23 65  1  0
 24 66  1  0
 26 67  1  0
 26 68  1  0
 27 69  1  0
 30 70  1  0
 31 71  1  1
 32 72  1  0
 32 73  1  0
 34 74  1  0
 36 75  1  0
 37 76  1  0
 39 77  1  0
 39 78  1  0
M  END
$$$$
[H]N=C(N([H])[H])N([H])C([H])([H])C([H])([H])C([H])([H])[C@@]([H])(C([H])=O)N([H])C(=O)[C@@]1([H])N(C(=O)[C@@]([H])(N([H])C(=O)[C@@]([H])(N([H])[H])C([H])([H])C([H])(C([H])([H])[H])C([H])([H])[H])C([H])([H])c2c([H])c([H])c([H])c([H])c2[H])C([H])([H])C([H])([H])C1([H])[H]
     RDKit          3D

 78 79  0  0  0  0  0  0  0  0999 V2000
   -5.8920    4.6169    2.5250 C   0  0  0  0  0  0  0  0  0  0  0  0
   -6.5699    3.3828    1.9673 C   0  0  0  0  0  0  0  0  0  0  0  0
   -7.9160    3.2396    2.6441 C   0  0  0  0  0  0  0  0  0  0  0  0
   -5.7255    2.1637    2.2482 C   0  0  0  0  0  0  0  0  0  0  0  0
   -4.3592    2.3246    1.5940 C   0  0  2  0  0  0  0  0  0  0  0  0
   -4.5073    2.4781    0.1683 N   0  0  0  0  0  0  0  0  0  0  0  0
   -3.5095    1.1584    1.8856 C   0  0  0  0  0  0  0  0  0  0  0  0
   -3.2524    0.8262    3.0691 O   0  0  0  0  0  0  0  0  0  0  0  0
   -2.9668    0.3900    0.8360 N   0  0  0  0  0  0  0  0  0  0  0  0
   -2.1229   -0.7719    1.0968 C   0  0  1  0  0  0  0  0  0  0  0  0
   -2.8960   -1.9581    0.5627 C   0  0  0  0  0  0  0  0  0  0  0  0
   -3.1869   -1.8755   -0.8883 C   0  0  0  0  0  0  0  0  0  0  0  0
   -2.2954   -2.3589   -1.8316 C   0  0  0  0  0  0  0  0  0  0  0  0
   -2.5293   -2.3128   -3.1738 C   0  0  0  0  0  0  0  0  0  0  0  0
   -3.6758   -1.7772   -3.6621 C   0  0  0  0  0  0  0  0  0  0  0  0
   -4.5990   -1.2801   -2.7568 C   0  0  0  0  0  0  0  0  0  0  0  0
   -4.3470   -1.3343   -1.4037 C   0  0  0  0  0  0  0  0  0  0  0  0
   -0.8143   -0.5649    0.4280 C   0  0  0  0  0  0  0  0  0  0  0  0
   -0.7520    0.4013   -0.4119 O   0  0  0  0  0  0  0  0  0  0  0  0
    0.3456   -1.3244    0.6328 N   0  0  0  0  0  0  0  0  0  0  0  0
    0.3433   -2.3947    1.6849 C   0  0  0  0  0  0  0  0  0  0  0  0
    1.0304   -3.5463    1.0354 C   0  0  0  0  0  0  0  0  0  0  0  0
    1.6402   -2.9777   -0.2259 C   0  0  0  0  0  0  0  0  0  0  0  0
    1.6498   -1.4620    0.1279 C   0  0  1  0  0  0  0  0  0  0  0  0
    2.1680   -0.6794   -0.9555 C   0  0  0  0  0  0  0  0  0  0  0  0
    1.6612    0.2604   -1.6065 O   0  0  0  0  0  0  0  0  0  0  0  0
    3.5092   -1.0127   -1.3977 N   0  0  0  0  0  0  0  0  0  0  0  0
    4.1717   -0.3230   -2.4763 C   0  0  1  0  0  0  0  0  0  0  0  0
    5.4582    0.2593   -1.9917 C   0  0  0  0  0  0  0  0  0  0  0  0
    6.4105   -0.7941   -1.4666 C   0  0  0  0  0  0  0  0  0  0  0  0
    7.7062   -0.1853   -0.9890 C   0  0  0  0  0  0  0  0  0  0  0  0
    7.4808    0.7723    0.0925 N   0  0  0  0  0  0  0  0  0  0  0  0
    8.5663    1.4664    0.6984 C   0  0  0  0  0  0  0  0  0  0  0  0
    9.0740    0.9830    1.9309 N   0  0  0  0  0  0  0  0  0  0  0  0
    9.0851    2.4976    0.1657 N   0  0  0  0  0  0  0  0  0  0  0  0
    4.3812   -1.2041   -3.6543 C   0  0  0  0  0  0  0  0  0  0  0  0
    3.9904   -2.3515   -3.5815 O   0  0  0  0  0  0  0  0  0  0  0  0
   -5.1085    4.8950    1.7706 H   0  0  0  0  0  0  0  0  0  0  0  0
   -5.4340    4.4367    3.5124 H   0  0  0  0  0  0  0  0  0  0  0  0
   -6.6671    5.4091    2.5871 H   0  0  0  0  0  0  0  0  0  0  0  0
   -6.7279    3.5291    0.8821 H   0  0  0  0  0  0  0  0  0  0  0  0
   -8.1454    2.1603    2.7495 H   0  0  0  0  0  0  0  0  0  0  0  0
   -8.7151    3.6735    2.0079 H   0  0  0  0  0  0  0  0  0  0  0  0
   -7.9018    3.7808    3.6071 H   0  0  0  0  0  0  0  0  0  0  0  0
   -5.5812    2.0807    3.3308 H   0  0  0  0  0  0  0  0  0  0  0  0
   -6.2317    1.2761    1.8480 H   0  0  0  0  0  0  0  0  0  0  0  0
   -3.8446    3.2270    1.9900 H   0  0  0  0  0  0  0  0  0  0  0  0
   -4.9303    1.6467   -0.2863 H   0  0  0  0  0  0  0  0  0  0  0  0
   -3.5750    2.6433   -0.2556 H   0  0  0  0  0  0  0  0  0  0  0  0
   -3.1688    0.6626   -0.1435 H   0  0  0  0  0  0  0  0  0  0  0  0
   -1.9703   -0.8579    2.1695 H   0  0  0  0  0  0  0  0  0  0  0  0
   -2.5522   -2.9376    0.8509 H   0  0  0  0  0  0  0  0  0  0  0  0
   -3.9133   -1.8571    1.0676 H   0  0  0  0  0  0  0  0  0  0  0  0
   -1.3763   -2.7906   -1.4832 H   0  0  0  0  0  0  0  0  0  0  0  0
   -1.7808   -2.7130   -3.8420 H   0  0  0  0  0  0  0  0  0  0  0  0
   -3.8347   -1.7542   -4.7364 H   0  0  0  0  0  0  0  0  0  0  0  0
   -5.5077   -0.8581   -3.1801 H   0  0  0  0  0  0  0  0  0  0  0  0
   -5.1008   -0.9328   -0.7429 H   0  0  0  0  0  0  0  0  0  0  0  0
    1.0089   -2.0575    2.5177 H   0  0  0  0  0  0  0  0  0  0  0  0
   -0.6444   -2.6664    2.0182 H   0  0  0  0  0  0  0  0  0  0  0  0
    1.9038   -3.9282    1.6415 H   0  0  0  0  0  0  0  0  0  0  0  0
    0.3620   -4.4075    0.8216 H   0  0  0  0  0  0  0  0  0  0  0  0
    0.9916   -3.1284   -1.1199 H   0  0  0  0  0  0  0  0  0  0  0  0
    2.6718   -3.3230   -0.3916 H   0  0  0  0  0  0  0  0  0  0  0  0
    2.4189   -1.4405    0.9747 H   0  0  0  0  0  0  0  0  0  0  0  0
    3.9924   -1.7829   -0.9030 H   0  0  0  0  0  0  0  0  0  0  0  0
    3.5036    0.4889   -2.8151 H   0  0  0  0  0  0  0  0  0  0  0  0
    5.2855    1.0167   -1.2058 H   0  0  0  0  0  0  0  0  0  0  0  0
    6.0167    0.7929   -2.8001 H   0  0  0  0  0  0  0  0  0  0  0  0
    6.6631   -1.5450   -2.2319 H   0  0  0  0  0  0  0  0  0  0  0  0
    5.9418   -1.2769   -0.5952 H   0  0  0  0  0  0  0  0  0  0  0  0
    8.3695   -0.9719   -0.6064 H   0  0  0  0  0  0  0  0  0  0  0  0
    8.2064    0.2919   -1.8652 H   0  0  0  0  0  0  0  0  0  0  0  0
    6.5135    0.9401    0.4139 H   0  0  0  0  0  0  0  0  0  0  0  0
    9.9026    1.4232    2.4022 H   0  0  0  0  0  0  0  0  0  0  0  0
    8.6410    0.1637    2.4215 H   0  0  0  0  0  0  0  0  0  0  0  0
    8.7067    2.8438   -0.7373 H   0  0  0  0  0  0  0  0  0  0  0  0
    4.8572   -0.8845   -4.5635 H   0  0  0  0  0  0  0  0  0  0  0  0
  1  2  1  0
  2  3  1  0
  2  4  1  0
  4  5  1  0
  5  6  1  0
  5  7  1  0
  7  8  2  0
  7  9  1  0
  9 10  1  0
 10 11  1  0
 11 12  1  0
 12 13  2  0
 13 14  1  0
 14 15  2  0
 15 16  1  0
 16 17  2  0
 10 18  1  0
 18 19  2  0
 18 20  1  0
 20 21  1  0
 21 22  1  0
 22 23  1  0
 23 24  1  0
 24 25  1  0
 25 26  2  0
 25 27  1  0
 27 28  1  0
 28 29  1  0
 29 30  1  0
 30 31  1  0
 31 32  1  0
 32 33  1  0
 33 34  1  0
 33 35  2  3
 28 36  1  0
 36 37  2  0
 17 12  1  0
 24 20  1  0
  1 38  1  0
  1 39  1  0
  1 40  1  0
  2 41  1  0
  3 42  1  0
  3 43  1  0
  3 44  1  0
  4 45  1  0
  4 46  1  0
  5 47  1  1
  6 48  1  0
  6 49  1  0
  9 50  1  0
 10 51  1  1
 11 52  1  0
 11 53  1  0
 13 54  1  0
 14 55  1  0
 15 56  1  0
 16 57  1  0
 17 58  1  0
 21 59  1  0
 21 60  1  0
 22 61  1  0
 22 62  1  0
 23 63  1  0
 23 64  1  0
 24 65  1  1
 27 66  1  0
 28 67  1  6
 29 68  1  0
 29 69  1  0
 30 70  1  0
 30 71  1  0
 31 72  1  0
 31 73  1  0
 32 74  1  0
 34 75  1  0
 34 76  1  0
 35 77  1  0
 36 78  1  0
M  END
$$$$
[H]C1=C([H])C([H])(F)C([H])([H])C([H])=C1N([H])C(=O)C1(C(=O)N([H])c2c([H])c([H])c(Oc3c([H])c([H])nc4c([H])c(OC([H])([H])C([H])([H])C([H])([H])N5C([H])([H])C([H])([H])OC([H])([H])C5([H])[H])c(OC([H])([H])[H])c([H])c34)c(F)c2[H])C([H])([H])C1([H])[H]
     RDKit          3D

 82 87  0  0  0  0  0  0  0  0999 V2000
    3.9666    3.0495   -1.7322 C   0  0  0  0  0  0  0  0  0  0  0  0
    4.8184    1.9472   -1.5191 O   0  0  0  0  0  0  0  0  0  0  0  0
    4.2779    0.7150   -1.2054 C   0  0  0  0  0  0  0  0  0  0  0  0
    2.9355    0.4830   -1.0834 C   0  0  0  0  0  0  0  0  0  0  0  0
    2.5057   -0.7878   -0.7673 C   0  0  0  0  0  0  0  0  0  0  0  0
    1.1302   -1.0757   -0.6337 C   0  0  0  0  0  0  0  0  0  0  0  0
    0.2693   -0.0306   -0.8259 O   0  0  0  0  0  0  0  0  0  0  0  0
   -1.0898   -0.1642   -0.6451 C   0  0  0  0  0  0  0  0  0  0  0  0
   -1.9847   -0.0120   -1.6950 C   0  0  0  0  0  0  0  0  0  0  0  0
   -3.3381   -0.1282   -1.5809 C   0  0  0  0  0  0  0  0  0  0  0  0
   -3.8905   -0.4214   -0.3289 C   0  0  0  0  0  0  0  0  0  0  0  0
   -5.3238   -0.4986   -0.2135 N   0  0  0  0  0  0  0  0  0  0  0  0
   -5.9613   -1.3830    0.6262 C   0  0  0  0  0  0  0  0  0  0  0  0
   -5.1921   -2.1849    1.2964 O   0  0  0  0  0  0  0  0  0  0  0  0
   -7.4011   -1.5958    0.9101 C   0  0  0  0  0  0  0  0  0  0  0  0
   -7.6820   -2.4618    2.1265 C   0  0  0  0  0  0  0  0  0  0  0  0
   -7.8126   -3.1190    0.8294 C   0  0  0  0  0  0  0  0  0  0  0  0
   -8.4706   -0.6963    0.4763 C   0  0  0  0  0  0  0  0  0  0  0  0
   -9.6747   -1.1656    0.7176 O   0  0  0  0  0  0  0  0  0  0  0  0
   -8.4814    0.5528   -0.1324 N   0  0  0  0  0  0  0  0  0  0  0  0
   -9.7446    1.2195   -0.4499 C   0  0  0  0  0  0  0  0  0  0  0  0
   -9.9496    2.4040    0.0799 C   0  0  0  0  0  0  0  0  0  0  0  0
  -11.1350    3.2347   -0.1097 C   0  0  0  0  0  0  0  0  0  0  0  0
  -12.2008    2.6387   -0.9439 C   0  0  0  0  0  0  0  0  0  0  0  0
  -12.4721    3.4850   -2.0494 F   0  0  0  0  0  0  0  0  0  0  0  0
  -11.8730    1.3187   -1.4859 C   0  0  0  0  0  0  0  0  0  0  0  0
  -10.7586    0.6480   -1.2759 C   0  0  0  0  0  0  0  0  0  0  0  0
   -3.0432   -0.5784    0.7341 C   0  0  0  0  0  0  0  0  0  0  0  0
   -1.6522   -0.4525    0.5863 C   0  0  0  0  0  0  0  0  0  0  0  0
   -0.8827   -0.5957    1.6903 F   0  0  0  0  0  0  0  0  0  0  0  0
    0.7223   -2.3515   -0.3227 C   0  0  0  0  0  0  0  0  0  0  0  0
    1.6378   -3.3635   -0.1352 C   0  0  0  0  0  0  0  0  0  0  0  0
    2.9451   -3.0865   -0.2619 N   0  0  0  0  0  0  0  0  0  0  0  0
    3.3732   -1.8309   -0.5703 C   0  0  0  0  0  0  0  0  0  0  0  0
    4.7330   -1.5901   -0.6954 C   0  0  0  0  0  0  0  0  0  0  0  0
    5.1920   -0.3333   -1.0085 C   0  0  0  0  0  0  0  0  0  0  0  0
    6.5206   -0.0853   -1.1253 O   0  0  0  0  0  0  0  0  0  0  0  0
    7.5310   -0.9938   -0.8772 C   0  0  0  0  0  0  0  0  0  0  0  0
    7.6262   -1.3701    0.5948 C   0  0  0  0  0  0  0  0  0  0  0  0
    7.9359   -0.0985    1.3961 C   0  0  0  0  0  0  0  0  0  0  0  0
    9.1945    0.4265    0.9288 N   0  0  0  0  0  0  0  0  0  0  0  0
    9.4053    1.7864    1.4776 C   0  0  0  0  0  0  0  0  0  0  0  0
   10.8161    2.1639    1.0165 C   0  0  0  0  0  0  0  0  0  0  0  0
   11.2632    1.3549   -0.0281 O   0  0  0  0  0  0  0  0  0  0  0  0
   11.4615    0.0232    0.3872 C   0  0  0  0  0  0  0  0  0  0  0  0
   10.3466   -0.3576    1.3702 C   0  0  0  0  0  0  0  0  0  0  0  0
    4.5770    3.9509   -1.9692 H   0  0  0  0  0  0  0  0  0  0  0  0
    3.3066    3.2216   -0.8582 H   0  0  0  0  0  0  0  0  0  0  0  0
    3.3086    2.7911   -2.5987 H   0  0  0  0  0  0  0  0  0  0  0  0
    2.2243    1.2761   -1.2311 H   0  0  0  0  0  0  0  0  0  0  0  0
   -1.5528    0.2161   -2.6750 H   0  0  0  0  0  0  0  0  0  0  0  0
   -4.0246   -0.0039   -2.4200 H   0  0  0  0  0  0  0  0  0  0  0  0
   -5.8260    0.1518   -0.8369 H   0  0  0  0  0  0  0  0  0  0  0  0
   -6.8106   -2.7138    2.7607 H   0  0  0  0  0  0  0  0  0  0  0  0
   -8.5985   -2.2800    2.7131 H   0  0  0  0  0  0  0  0  0  0  0  0
   -7.0275   -3.7752    0.4011 H   0  0  0  0  0  0  0  0  0  0  0  0
   -8.7992   -3.3162    0.3639 H   0  0  0  0  0  0  0  0  0  0  0  0
   -7.6334    1.0911   -0.3743 H   0  0  0  0  0  0  0  0  0  0  0  0
   -9.1652    2.8388    0.7401 H   0  0  0  0  0  0  0  0  0  0  0  0
  -11.5358    3.5321    0.9159 H   0  0  0  0  0  0  0  0  0  0  0  0
  -10.8538    4.2484   -0.5572 H   0  0  0  0  0  0  0  0  0  0  0  0
  -13.1586    2.5647   -0.3407 H   0  0  0  0  0  0  0  0  0  0  0  0
  -12.6648    0.8691   -2.1323 H   0  0  0  0  0  0  0  0  0  0  0  0
  -10.6018   -0.3227   -1.7168 H   0  0  0  0  0  0  0  0  0  0  0  0
   -3.4037   -0.7893    1.7394 H   0  0  0  0  0  0  0  0  0  0  0  0
   -0.3200   -2.5956   -0.2356 H   0  0  0  0  0  0  0  0  0  0  0  0
    1.2680   -4.3480    0.1079 H   0  0  0  0  0  0  0  0  0  0  0  0
    5.3620   -2.4538   -0.5623 H   0  0  0  0  0  0  0  0  0  0  0  0
    7.4424   -1.9223   -1.5038 H   0  0  0  0  0  0  0  0  0  0  0  0
    8.4920   -0.5348   -1.2249 H   0  0  0  0  0  0  0  0  0  0  0  0
    6.7751   -1.8921    1.0071 H   0  0  0  0  0  0  0  0  0  0  0  0
    8.4922   -2.0400    0.6815 H   0  0  0  0  0  0  0  0  0  0  0  0
    7.1233    0.6400    1.3255 H   0  0  0  0  0  0  0  0  0  0  0  0
    8.0487   -0.4301    2.4644 H   0  0  0  0  0  0  0  0  0  0  0  0
    9.4079    1.7624    2.5778 H   0  0  0  0  0  0  0  0  0  0  0  0
    8.6320    2.4413    1.0296 H   0  0  0  0  0  0  0  0  0  0  0  0
   11.5508    2.0414    1.8480 H   0  0  0  0  0  0  0  0  0  0  0  0
   10.8264    3.2054    0.6080 H   0  0  0  0  0  0  0  0  0  0  0  0
   11.3001   -0.6008   -0.5146 H   0  0  0  0  0  0  0  0  0  0  0  0
   12.4569   -0.1361    0.8078 H   0  0  0  0  0  0  0  0  0  0  0  0
   10.1090   -1.3943    1.4038 H   0  0  0  0  0  0  0  0  0  0  0  0
   10.6797    0.0679    2.3647 H   0  0  0  0  0  0  0  0  0  0  0  0
  1  2  1  0
  2  3  1  0
  3  4  2  0
  4  5  1  0
  5  6  2  0
  6  7  1  0
  7  8  1  0
  8  9  2  0
  9 10  1  0
 10 11  2  0
 11 12  1  0
 12 13  1  0
 13 14  2  0
 13 15  1  0
 15 16  1  0
 16 17  1  0
 15 18  1  0
 18 19  2  0
 18 20  1  0
 20 21  1  0
 21 22  2  0
 22 23  1  0
 23 24  1  0
 24 25  1  0
 24 26  1  0
 26 27  2  0
 11 28  1  0
 28 29  2  0
 29 30  1  0
  6 31  1  0
 31 32  2  0
 32 33  1  0
 33 34  2  0
 34 35  1  0
 35 36  2  0
 36 37  1  0
 37 38  1  0
 38 39  1  0
 39 40  1  0
 40 41  1  0
 41 42  1  0
 42 43  1  0
 43 44  1  0
 44 45  1  0
 45 46  1  0
 36  3  1  0
 46 41  1  0
 34  5  1  0
 29  8  1  0
 17 15  1  0
 27 21  1  0
  1 47  1  0
  1 48  1  0
  1 49  1  0
  4 50  1  0
  9 51  1  0
 10 52  1  0
 12 53  1  0
 16 54  1  0
 16 55  1  0
 17 56  1  0
 17 57  1  0
 20 58  1  0
 22 59  1  0
 23 60  1  0
 23 61  1  0
 24 62  1  0
 26 63  1  0
 27 64  1  0
 28 65  1  0
 31 66  1  0
 32 67  1  0
 35 68  1  0
 38 69  1  0
 38 70  1  0
 39 71  1  0
 39 72  1  0
 40 73  1  0
 40 74  1  0
 42 75  1  0
 42 76  1  0
 43 77  1  0
 43 78  1  0
 45 79  1  0
 45 80  1  0
 46 81  1  0
 46 82  1  0
M  END
$$$$
[H]C1=C2C([H])([H])C([H])([H])[C@@]3([H])[C@]4([H])C([H])([H])[C@@]([H])(C([H])([H])C([H])([H])[H])C(=O)[C@@]4(C([H])([H])[H])C([H])([H])C([H])([H])[C@]3([H])[C@@]2(C([H])([H])[H])C([H])([H])C([H])([H])C1=O
     RDKit          3D

 53 56  0  0  0  0  0  0  0  0999 V2000
    4.8010    1.3945   -0.9164 C   0  0  0  0  0  0  0  0  0  0  0  0
    4.2830    0.3992    0.0831 C   0  0  0  0  0  0  0  0  0  0  0  0
    3.5740   -0.7750   -0.5957 C   0  0  2  0  0  0  0  0  0  0  0  0
    2.3912   -0.2924   -1.4138 C   0  0  0  0  0  0  0  0  0  0  0  0
    1.3132   -0.2900   -0.4134 C   0  0  1  0  0  0  0  0  0  0  0  0
   -0.0803   -0.1953   -0.8865 C   0  0  2  0  0  0  0  0  0  0  0  0
   -0.3208    0.9035   -1.8550 C   0  0  0  0  0  0  0  0  0  0  0  0
   -1.0164    2.0937   -1.2955 C   0  0  0  0  0  0  0  0  0  0  0  0
   -2.2791    1.6244   -0.6487 C   0  0  0  0  0  0  0  0  0  0  0  0
   -3.4005    2.3142   -0.7471 C   0  0  0  0  0  0  0  0  0  0  0  0
   -4.5842    1.7946   -0.0914 C   0  0  0  0  0  0  0  0  0  0  0  0
   -5.7205    1.9236   -0.5969 O   0  0  0  0  0  0  0  0  0  0  0  0
   -4.4414    1.0994    1.2012 C   0  0  0  0  0  0  0  0  0  0  0  0
   -3.0320    0.5903    1.4224 C   0  0  0  0  0  0  0  0  0  0  0  0
   -2.3077    0.3554    0.1255 C   0  0  1  0  0  0  0  0  0  0  0  0
   -3.1003   -0.6819   -0.6425 C   0  0  0  0  0  0  0  0  0  0  0  0
   -0.9150   -0.0566    0.3994 C   0  0  1  0  0  0  0  0  0  0  0  0
   -0.7577   -1.3399    1.1452 C   0  0  0  0  0  0  0  0  0  0  0  0
    0.6857   -1.5824    1.5311 C   0  0  0  0  0  0  0  0  0  0  0  0
    1.5330   -1.6218    0.3081 C   0  0  1  0  0  0  0  0  0  0  0  0
    1.2406   -2.7990   -0.5849 C   0  0  0  0  0  0  0  0  0  0  0  0
    2.9806   -1.5717    0.5449 C   0  0  0  0  0  0  0  0  0  0  0  0
    3.6873   -2.0231    1.4194 O   0  0  0  0  0  0  0  0  0  0  0  0
    5.1678    0.9372   -1.8519 H   0  0  0  0  0  0  0  0  0  0  0  0
    4.0194    2.1460   -1.1741 H   0  0  0  0  0  0  0  0  0  0  0  0
    5.6080    1.9771   -0.3990 H   0  0  0  0  0  0  0  0  0  0  0  0
    3.6104    0.9066    0.7837 H   0  0  0  0  0  0  0  0  0  0  0  0
    5.0989   -0.0543    0.6836 H   0  0  0  0  0  0  0  0  0  0  0  0
    4.2840   -1.3633   -1.1726 H   0  0  0  0  0  0  0  0  0  0  0  0
    2.6717    0.7105   -1.7993 H   0  0  0  0  0  0  0  0  0  0  0  0
    2.2097   -1.0224   -2.2153 H   0  0  0  0  0  0  0  0  0  0  0  0
    1.4820    0.4951    0.3600 H   0  0  0  0  0  0  0  0  0  0  0  0
   -0.4668   -1.1431   -1.3555 H   0  0  0  0  0  0  0  0  0  0  0  0
   -0.8886    0.5764   -2.7652 H   0  0  0  0  0  0  0  0  0  0  0  0
    0.6732    1.2483   -2.2592 H   0  0  0  0  0  0  0  0  0  0  0  0
   -0.3938    2.6785   -0.5886 H   0  0  0  0  0  0  0  0  0  0  0  0
   -1.2970    2.7602   -2.1365 H   0  0  0  0  0  0  0  0  0  0  0  0
   -3.4065    3.2415   -1.3139 H   0  0  0  0  0  0  0  0  0  0  0  0
   -4.7039    1.8578    1.9949 H   0  0  0  0  0  0  0  0  0  0  0  0
   -5.1644    0.2757    1.3389 H   0  0  0  0  0  0  0  0  0  0  0  0
   -3.0630   -0.2968    2.0857 H   0  0  0  0  0  0  0  0  0  0  0  0
   -2.4970    1.3892    2.0006 H   0  0  0  0  0  0  0  0  0  0  0  0
   -3.4177   -0.2574   -1.6167 H   0  0  0  0  0  0  0  0  0  0  0  0
   -4.0199   -0.9998   -0.1100 H   0  0  0  0  0  0  0  0  0  0  0  0
   -2.4907   -1.5919   -0.8430 H   0  0  0  0  0  0  0  0  0  0  0  0
   -0.4160    0.7399    0.9798 H   0  0  0  0  0  0  0  0  0  0  0  0
   -1.0554   -2.1947    0.4797 H   0  0  0  0  0  0  0  0  0  0  0  0
   -1.4020   -1.4275    2.0384 H   0  0  0  0  0  0  0  0  0  0  0  0
    1.0657   -0.7959    2.2045 H   0  0  0  0  0  0  0  0  0  0  0  0
    0.7181   -2.5764    2.0539 H   0  0  0  0  0  0  0  0  0  0  0  0
    2.1321   -3.4902   -0.6371 H   0  0  0  0  0  0  0  0  0  0  0  0
    0.9928   -2.5430   -1.6130 H   0  0  0  0  0  0  0  0  0  0  0  0
    0.4154   -3.4470   -0.1751 H   0  0  0  0  0  0  0  0  0  0  0  0
  1  2  1  0
  2  3  1  0
  3  4  1  0
  4  5  1  0
  5  6  1  0
  6  7  1  0
  7  8  1  0
  8  9  1  0
  9 10  2  0
 10 11  1  0
 11 12  2  0
 11 13  1  0
 13 14  1  0
 14 15  1  0
 15 16  1  6
 15 17  1  0
 17 18  1  0
 18 19  1  0
 19 20  1  0
 20 21  1  6
 20 22  1  0
 22 23  2  0
 22  3  1  0
 20  5  1  0
 17  6  1  0
 15  9  1  0
  1 24  1  0
  1 25  1  0
  1 26  1  0
  2 27  1  0
  2 28  1  0
  3 29  1  6
  4 30  1  0
  4 31  1  0
  5 32  1  1
  6 33  1  6
  7 34  1  0
  7 35  1  0
  8 36  1  0
  8 37  1  0
 10 38  1  0
 13 39  1  0
 13 40  1  0
 14 41  1  0
 14 42  1  0
 16 43  1  0
 16 44  1  0
 16 45  1  0
 17 46  1  1
 18 47  1  0
 18 48  1  0
 19 49  1  0
 19 50  1  0
 21 51  1  0
 21 52  1  0
 21 53  1  0
M  END
$$$$
[H]N=C(N([H])[H])N([H])C([H])([H])C([H])([H])C([H])([H])[C@@]([H])(C(=O)c1nc2c([H])c([H])c([H])c([H])c2s1)N([H])C(=O)[C@@]1([H])N(C(=O)[C@]([H])(N([H])C(=O)OC([H])([H])c2c([H])c([H])c([H])c([H])c2[H])C([H])([H])c2c([H])c([H])c([H])c([H])c2[H])C([H])([H])C([H])([H])C1([H])[H]
     RDKit          3D

 87 91  0  0  0  0  0  0  0  0999 V2000
   -8.4258   -3.3667   -0.5759 N   0  0  0  0  0  0  0  0  0  0  0  0
   -8.4170   -2.0182   -1.0078 C   0  0  0  0  0  0  0  0  0  0  0  0
   -9.5363   -1.5228   -1.4410 N   0  0  0  0  0  0  0  0  0  0  0  0
   -7.2253   -1.2409   -0.9850 N   0  0  0  0  0  0  0  0  0  0  0  0
   -5.9871   -1.9154   -0.7663 C   0  0  0  0  0  0  0  0  0  0  0  0
   -4.7664   -1.0502   -0.7598 C   0  0  0  0  0  0  0  0  0  0  0  0
   -4.8339   -0.0422    0.3388 C   0  0  0  0  0  0  0  0  0  0  0  0
   -3.6037    0.8421    0.3913 C   0  0  2  0  0  0  0  0  0  0  0  0
   -2.4260    0.0641    0.6147 N   0  0  0  0  0  0  0  0  0  0  0  0
   -1.3206   -0.6397    0.9086 C   0  0  0  0  0  0  0  0  0  0  0  0
   -0.7953   -0.6762    2.0838 O   0  0  0  0  0  0  0  0  0  0  0  0
   -0.6760   -1.4084   -0.1425 C   0  0  2  0  0  0  0  0  0  0  0  0
   -1.0744   -2.9136    0.0082 C   0  0  0  0  0  0  0  0  0  0  0  0
   -0.3501   -3.4446   -1.2094 C   0  0  0  0  0  0  0  0  0  0  0  0
    0.6526   -2.3434   -1.6104 C   0  0  0  0  0  0  0  0  0  0  0  0
    0.7263   -1.6359   -0.2884 N   0  0  0  0  0  0  0  0  0  0  0  0
    1.8731   -1.3226    0.3964 C   0  0  0  0  0  0  0  0  0  0  0  0
    1.6703   -0.4641    1.3988 O   0  0  0  0  0  0  0  0  0  0  0  0
    3.3099   -1.6657    0.3685 C   0  0  1  0  0  0  0  0  0  0  0  0
    3.6890   -2.5809   -0.8016 C   0  0  0  0  0  0  0  0  0  0  0  0
    5.1498   -2.9170   -0.8217 C   0  0  0  0  0  0  0  0  0  0  0  0
    6.0099   -2.1772   -1.6107 C   0  0  0  0  0  0  0  0  0  0  0  0
    7.3645   -2.3952   -1.6805 C   0  0  0  0  0  0  0  0  0  0  0  0
    7.9252   -3.4132   -0.9256 C   0  0  0  0  0  0  0  0  0  0  0  0
    7.0485   -4.1576   -0.1291 C   0  0  0  0  0  0  0  0  0  0  0  0
    5.6944   -3.9296   -0.0689 C   0  0  0  0  0  0  0  0  0  0  0  0
    4.2289   -0.7354    0.6584 N   0  0  0  0  0  0  0  0  0  0  0  0
    4.7345    0.1169    1.7100 C   0  0  0  0  0  0  0  0  0  0  0  0
    4.1379    0.0280    2.8039 O   0  0  0  0  0  0  0  0  0  0  0  0
    5.7862    0.9594    1.5806 O   0  0  0  0  0  0  0  0  0  0  0  0
    6.3724    1.8197    2.5085 C   0  0  0  0  0  0  0  0  0  0  0  0
    7.5399    2.4172    1.7833 C   0  0  0  0  0  0  0  0  0  0  0  0
    7.4168    2.6746    0.4554 C   0  0  0  0  0  0  0  0  0  0  0  0
    8.4869    3.1647   -0.3081 C   0  0  0  0  0  0  0  0  0  0  0  0
    9.7015    3.3961    0.3069 C   0  0  0  0  0  0  0  0  0  0  0  0
    9.8333    3.1415    1.6541 C   0  0  0  0  0  0  0  0  0  0  0  0
    8.7452    2.6499    2.3955 C   0  0  0  0  0  0  0  0  0  0  0  0
   -3.8839    1.9635    1.3090 C   0  0  0  0  0  0  0  0  0  0  0  0
   -3.1931    2.1056    2.3658 O   0  0  0  0  0  0  0  0  0  0  0  0
   -4.9409    2.9709    1.0725 C   0  0  0  0  0  0  0  0  0  0  0  0
   -5.8221    3.0884    0.1004 N   0  0  0  0  0  0  0  0  0  0  0  0
   -6.6473    4.1042    0.0702 C   0  0  0  0  0  0  0  0  0  0  0  0
   -7.6131    4.3307   -0.9313 C   0  0  0  0  0  0  0  0  0  0  0  0
   -8.3985    5.4389   -0.8660 C   0  0  0  0  0  0  0  0  0  0  0  0
   -8.3227    6.3817    0.1311 C   0  0  0  0  0  0  0  0  0  0  0  0
   -7.3914    6.1690    1.1113 C   0  0  0  0  0  0  0  0  0  0  0  0
   -6.5608    5.0305    1.0762 C   0  0  0  0  0  0  0  0  0  0  0  0
   -5.2836    4.3778    2.0156 S   0  0  0  0  0  0  0  0  0  0  0  0
   -8.3046   -4.1669   -1.2531 H   0  0  0  0  0  0  0  0  0  0  0  0
   -8.5412   -3.6138    0.4397 H   0  0  0  0  0  0  0  0  0  0  0  0
  -10.4048   -2.0717   -1.4713 H   0  0  0  0  0  0  0  0  0  0  0  0
   -7.3412   -0.2012   -1.1342 H   0  0  0  0  0  0  0  0  0  0  0  0
   -5.8555   -2.6723   -1.5935 H   0  0  0  0  0  0  0  0  0  0  0  0
   -6.0321   -2.5322    0.1762 H   0  0  0  0  0  0  0  0  0  0  0  0
   -3.8545   -1.6775   -0.6604 H   0  0  0  0  0  0  0  0  0  0  0  0
   -4.6884   -0.5619   -1.7695 H   0  0  0  0  0  0  0  0  0  0  0  0
   -5.7514    0.5468    0.1805 H   0  0  0  0  0  0  0  0  0  0  0  0
   -4.9754   -0.5861    1.3232 H   0  0  0  0  0  0  0  0  0  0  0  0
   -3.4626    1.3939   -0.6140 H   0  0  0  0  0  0  0  0  0  0  0  0
   -2.6227    0.3278    1.9606 H   0  0  0  0  0  0  0  0  0  0  0  0
   -1.0507   -1.0895   -1.1443 H   0  0  0  0  0  0  0  0  0  0  0  0
   -0.5000   -3.2136    0.9054 H   0  0  0  0  0  0  0  0  0  0  0  0
   -2.1347   -3.0710    0.0309 H   0  0  0  0  0  0  0  0  0  0  0  0
    0.1273   -4.4092   -1.0249 H   0  0  0  0  0  0  0  0  0  0  0  0
   -1.0782   -3.4679   -2.0225 H   0  0  0  0  0  0  0  0  0  0  0  0
    0.0735   -1.5772   -2.2353 H   0  0  0  0  0  0  0  0  0  0  0  0
    1.5059   -2.6898   -2.0623 H   0  0  0  0  0  0  0  0  0  0  0  0
    3.3828   -2.4693    1.2715 H   0  0  0  0  0  0  0  0  0  0  0  0
    3.0817   -3.4980   -0.7508 H   0  0  0  0  0  0  0  0  0  0  0  0
    3.5045   -2.0031   -1.7018 H   0  0  0  0  0  0  0  0  0  0  0  0
    5.5790   -1.3822   -2.2390 H   0  0  0  0  0  0  0  0  0  0  0  0
    7.9954   -1.7748   -2.3225 H   0  0  0  0  0  0  0  0  0  0  0  0
    9.0029   -3.6296   -0.9378 H   0  0  0  0  0  0  0  0  0  0  0  0
    7.4970   -4.9608    0.4600 H   0  0  0  0  0  0  0  0  0  0  0  0
    5.0478   -4.5370    0.5765 H   0  0  0  0  0  0  0  0  0  0  0  0
    4.8449   -0.4245   -0.2615 H   0  0  0  0  0  0  0  0  0  0  0  0
    6.7784    1.3601    3.4125 H   0  0  0  0  0  0  0  0  0  0  0  0
    5.6387    2.5837    2.8197 H   0  0  0  0  0  0  0  0  0  0  0  0
    6.4688    2.5012   -0.0571 H   0  0  0  0  0  0  0  0  0  0  0  0
    8.3742    3.3692   -1.3641 H   0  0  0  0  0  0  0  0  0  0  0  0
   10.5223    3.7641   -0.2954 H   0  0  0  0  0  0  0  0  0  0  0  0
   10.8034    3.3216    2.1211 H   0  0  0  0  0  0  0  0  0  0  0  0
    8.9115    2.4806    3.4379 H   0  0  0  0  0  0  0  0  0  0  0  0
   -7.7756    3.6587   -1.7629 H   0  0  0  0  0  0  0  0  0  0  0  0
   -9.1549    5.6525   -1.6485 H   0  0  0  0  0  0  0  0  0  0  0  0
   -8.9751    7.2270    0.1173 H   0  0  0  0  0  0  0  0  0  0  0  0
   -7.2383    6.8352    1.9323 H   0  0  0  0  0  0  0  0  0  0  0  0
  1  2  1  0
  2  3  2  3
  2  4  1  0
  4  5  1  0
  5  6  1  0
  6  7  1  0
  7  8  1  0
  8  9  1  0
  9 10  1  0
 10 11  2  0
 10 12  1  0
 12 13  1  0
 13 14  1  0
 14 15  1  0
 15 16  1  0
 16 17  1  0
 17 18  2  0
 17 19  1  0
 19 20  1  0
 20 21  1  0
 21 22  2  0
 22 23  1  0
 23 24  2  0
 24 25  1  0
 25 26  2  0
 19 27  1  0
 27 28  1  0
 28 29  2  0
 28 30  1  0
 30 31  1  0
 31 32  1  0
 32 33  2  0
 33 34  1  0
 34 35  2  0
 35 36  1  0
 36 37  2  0
  8 38  1  0
 38 39  2  0
 38 40  1  0
 40 41  2  0
 41 42  1  0
 42 43  2  0
 43 44  1  0
 44 45  2  0
 45 46  1  0
 46 47  2  0
 47 48  1  0
 16 12  1  0
 26 21  1  0
 37 32  1  0
 48 40  1  0
 47 42  1  0
  1 49  1  0
  1 50  1  0
  3 51  1  0
  4 52  1  0
  5 53  1  0
  5 54  1  0
  6 55  1  0
  6 56  1  0
  7 57  1  0
  7 58  1  0
  8 59  1  6
  9 60  1  0
 12 61  1  6
 13 62  1  0
 13 63  1  0
 14 64  1  0
 14 65  1  0
 15 66  1  0
 15 67  1  0
 19 68  1  1
 20 69  1  0
 20 70  1  0
 22 71  1  0
 23 72  1  0
 24 73  1  0
 25 74  1  0
 26 75  1  0
 27 76  1  0
 31 77  1  0
 31 78  1  0
 33 79  1  0
 34 80  1  0
 35 81  1  0
 36 82  1  0
 37 83  1  0
 43 84  1  0
 44 85  1  0
 45 86  1  0
 46 87  1  0
M  END
$$$$
[H]c1nc2c(c([H])c1[H])c(C1=C(c3nc(N4C([H])([H])C([H])([H])N(C([H])([H])[H])C([H])([H])C4([H])[H])nc4c([H])c([H])c(F)c([H])c34)C(=O)N([H])C1=O)c([H])n2[H]
     RDKit          3D

 54 59  0  0  0  0  0  0  0  0999 V2000
   -6.8338    0.9889   -1.5444 C   0  0  0  0  0  0  0  0  0  0  0  0
   -5.6328    0.7898   -0.8165 N   0  0  0  0  0  0  0  0  0  0  0  0
   -4.5762    1.6857   -1.0411 C   0  0  0  0  0  0  0  0  0  0  0  0
   -3.2677    1.0885   -1.4646 C   0  0  0  0  0  0  0  0  0  0  0  0
   -3.0240   -0.1362   -0.7131 N   0  0  0  0  0  0  0  0  0  0  0  0
   -4.0653   -1.1281   -0.7459 C   0  0  0  0  0  0  0  0  0  0  0  0
   -5.3640   -0.5124   -0.3619 C   0  0  0  0  0  0  0  0  0  0  0  0
   -1.8023   -0.2696   -0.0109 C   0  0  0  0  0  0  0  0  0  0  0  0
   -0.8598    0.6804   -0.0149 N   0  0  0  0  0  0  0  0  0  0  0  0
    0.3112    0.5338    0.6694 C   0  0  0  0  0  0  0  0  0  0  0  0
    1.3095    1.5852    0.6620 C   0  0  0  0  0  0  0  0  0  0  0  0
    2.5250    1.5622    0.1204 C   0  0  0  0  0  0  0  0  0  0  0  0
    3.1468    2.8486    0.3789 C   0  0  0  0  0  0  0  0  0  0  0  0
    4.3100    3.2098    0.0154 O   0  0  0  0  0  0  0  0  0  0  0  0
    2.2433    3.6581    1.1098 N   0  0  0  0  0  0  0  0  0  0  0  0
    1.0753    2.8785    1.2993 C   0  0  0  0  0  0  0  0  0  0  0  0
    0.0582    3.2962    1.9176 O   0  0  0  0  0  0  0  0  0  0  0  0
    3.1108    0.4637   -0.6722 C   0  0  0  0  0  0  0  0  0  0  0  0
    2.4723   -0.2037   -1.7196 C   0  0  0  0  0  0  0  0  0  0  0  0
    3.2970   -1.1521   -2.1960 N   0  0  0  0  0  0  0  0  0  0  0  0
    4.4622   -1.1469   -1.5087 C   0  0  0  0  0  0  0  0  0  0  0  0
    5.5767   -1.8908   -1.5970 N   0  0  0  0  0  0  0  0  0  0  0  0
    6.6396   -1.7275   -0.7959 C   0  0  0  0  0  0  0  0  0  0  0  0
    6.5551   -0.7394    0.1567 C   0  0  0  0  0  0  0  0  0  0  0  0
    5.4228    0.0438    0.2739 C   0  0  0  0  0  0  0  0  0  0  0  0
    4.3390   -0.1338   -0.5563 C   0  0  0  0  0  0  0  0  0  0  0  0
    0.5168   -0.6132    1.3754 C   0  0  0  0  0  0  0  0  0  0  0  0
    1.6360   -0.8731    2.1276 C   0  0  0  0  0  0  0  0  0  0  0  0
    1.8007   -2.0561    2.8561 C   0  0  0  0  0  0  0  0  0  0  0  0
    2.9129   -2.2955    3.5920 F   0  0  0  0  0  0  0  0  0  0  0  0
    0.8155   -3.0052    2.8314 C   0  0  0  0  0  0  0  0  0  0  0  0
   -0.3182   -2.7877    2.0974 C   0  0  0  0  0  0  0  0  0  0  0  0
   -0.4582   -1.6196    1.3910 C   0  0  0  0  0  0  0  0  0  0  0  0
   -1.5785   -1.3882    0.6869 N   0  0  0  0  0  0  0  0  0  0  0  0
   -7.6787    1.0261   -0.8073 H   0  0  0  0  0  0  0  0  0  0  0  0
   -7.0647    0.0938   -2.1946 H   0  0  0  0  0  0  0  0  0  0  0  0
   -6.8543    1.8832   -2.1745 H   0  0  0  0  0  0  0  0  0  0  0  0
   -4.8821    2.4330   -1.8109 H   0  0  0  0  0  0  0  0  0  0  0  0
   -4.3902    2.2855   -0.1146 H   0  0  0  0  0  0  0  0  0  0  0  0
   -3.2341    0.8421   -2.5593 H   0  0  0  0  0  0  0  0  0  0  0  0
   -2.4762    1.8461   -1.2960 H   0  0  0  0  0  0  0  0  0  0  0  0
   -4.1625   -1.4749   -1.8107 H   0  0  0  0  0  0  0  0  0  0  0  0
   -3.8574   -1.9889   -0.0664 H   0  0  0  0  0  0  0  0  0  0  0  0
   -6.1740   -1.1909   -0.7310 H   0  0  0  0  0  0  0  0  0  0  0  0
   -5.4467   -0.5309    0.7631 H   0  0  0  0  0  0  0  0  0  0  0  0
    2.4214    4.6535    1.4432 H   0  0  0  0  0  0  0  0  0  0  0  0
    1.4745    0.0336   -2.0630 H   0  0  0  0  0  0  0  0  0  0  0  0
    3.1180   -1.8340   -2.9905 H   0  0  0  0  0  0  0  0  0  0  0  0
    7.5405   -2.3492   -0.8880 H   0  0  0  0  0  0  0  0  0  0  0  0
    7.3848   -0.5610    0.8348 H   0  0  0  0  0  0  0  0  0  0  0  0
    5.3433    0.8176    1.0328 H   0  0  0  0  0  0  0  0  0  0  0  0
    2.4236   -0.1205    2.1849 H   0  0  0  0  0  0  0  0  0  0  0  0
    0.8706   -3.9535    3.3716 H   0  0  0  0  0  0  0  0  0  0  0  0
   -1.1119   -3.5449    2.0744 H   0  0  0  0  0  0  0  0  0  0  0  0
  1  2  1  0
  2  3  1  0
  3  4  1  0
  4  5  1  0
  5  6  1  0
  6  7  1  0
  5  8  1  0
  8  9  2  0
  9 10  1  0
 10 11  1  0
 11 12  2  0
 12 13  1  0
 13 14  2  0
 13 15  1  0
 15 16  1  0
 16 17  2  0
 12 18  1  0
 18 19  2  0
 19 20  1  0
 20 21  1  0
 21 22  2  0
 22 23  1  0
 23 24  2  0
 24 25  1  0
 25 26  2  0
 10 27  2  0
 27 28  1  0
 28 29  2  0
 29 30  1  0
 29 31  1  0
 31 32  2  0
 32 33  1  0
 33 34  2  0
  7  2  1  0
 34  8  1  0
 16 11  1  0
 26 18  1  0
 33 27  1  0
 26 21  1  0
  1 35  1  0
  1 36  1  0
  1 37  1  0
  3 38  1  0
  3 39  1  0
  4 40  1  0
  4 41  1  0
  6 42  1  0
  6 43  1  0
  7 44  1  0
  7 45  1  0
 15 46  1  0
 19 47  1  0
 20 48  1  0
 23 49  1  0
 24 50  1  0
 25 51  1  0
 28 52  1  0
 31 53  1  0
 32 54  1  0
M  END
$$$$
[H]O[C@@]1([H])C([H])([H])C([H])([H])[C@]2([H])[C@]1(C([H])([H])[H])C([H])([H])C([H])([H])[C@]1([H])[C@]3([H])C(=C([H])C(=O)C([H])([H])C3([H])[H])C([H])([H])C([H])([H])[C@@]21[H]
     RDKit          3D

 46 49  0  0  0  0  0  0  0  0999 V2000
    2.5880    1.2762    1.0752 C   0  0  0  0  0  0  0  0  0  0  0  0
    2.1587    0.6304   -0.2204 C   0  0  2  0  0  0  0  0  0  0  0  0
    1.3387    1.5512   -1.0337 C   0  0  0  0  0  0  0  0  0  0  0  0
   -0.1184    1.5810   -0.6680 C   0  0  0  0  0  0  0  0  0  0  0  0
   -0.7031    0.2581   -0.3304 C   0  0  1  0  0  0  0  0  0  0  0  0
    0.1291   -0.5428    0.6522 C   0  0  1  0  0  0  0  0  0  0  0  0
   -0.5042   -1.9278    0.7543 C   0  0  0  0  0  0  0  0  0  0  0  0
   -1.8820   -1.8018    1.3575 C   0  0  0  0  0  0  0  0  0  0  0  0
   -2.6554   -0.8548    0.5090 C   0  0  0  0  0  0  0  0  0  0  0  0
   -3.8048   -1.2509    0.0219 C   0  0  0  0  0  0  0  0  0  0  0  0
   -4.5670   -0.3302   -0.8086 C   0  0  0  0  0  0  0  0  0  0  0  0
   -5.3146   -0.7324   -1.7321 O   0  0  0  0  0  0  0  0  0  0  0  0
   -4.3996    1.1327   -0.4870 C   0  0  0  0  0  0  0  0  0  0  0  0
   -2.9090    1.3786   -0.5748 C   0  0  0  0  0  0  0  0  0  0  0  0
   -2.0819    0.4757    0.2649 C   0  0  2  0  0  0  0  0  0  0  0  0
    1.4576   -0.6969    0.0229 C   0  0  2  0  0  0  0  0  0  0  0  0
    2.4889   -1.4464    0.7544 C   0  0  0  0  0  0  0  0  0  0  0  0
    3.7752   -1.0421    0.0304 C   0  0  0  0  0  0  0  0  0  0  0  0
    3.3834    0.0904   -0.9032 C   0  0  2  0  0  0  0  0  0  0  0  0
    4.3842    1.0233   -1.0611 O   0  0  0  0  0  0  0  0  0  0  0  0
    1.7533    1.5417    1.7252 H   0  0  0  0  0  0  0  0  0  0  0  0
    3.3099    0.6562    1.6377 H   0  0  0  0  0  0  0  0  0  0  0  0
    3.1188    2.2116    0.8043 H   0  0  0  0  0  0  0  0  0  0  0  0
    1.5075    1.3525   -2.1108 H   0  0  0  0  0  0  0  0  0  0  0  0
    1.7251    2.5975   -0.8609 H   0  0  0  0  0  0  0  0  0  0  0  0
   -0.6666    1.9869   -1.5431 H   0  0  0  0  0  0  0  0  0  0  0  0
   -0.3307    2.2818    0.1724 H   0  0  0  0  0  0  0  0  0  0  0  0
   -0.8249   -0.3869   -1.2413 H   0  0  0  0  0  0  0  0  0  0  0  0
    0.1373   -0.0373    1.6237 H   0  0  0  0  0  0  0  0  0  0  0  0
    0.1313   -2.5986    1.3572 H   0  0  0  0  0  0  0  0  0  0  0  0
   -0.5978   -2.3391   -0.2647 H   0  0  0  0  0  0  0  0  0  0  0  0
   -1.7768   -1.3733    2.3760 H   0  0  0  0  0  0  0  0  0  0  0  0
   -2.3520   -2.8012    1.3954 H   0  0  0  0  0  0  0  0  0  0  0  0
   -4.2151   -2.2452    0.2128 H   0  0  0  0  0  0  0  0  0  0  0  0
   -4.7838    1.3660    0.5088 H   0  0  0  0  0  0  0  0  0  0  0  0
   -4.8690    1.7374   -1.3036 H   0  0  0  0  0  0  0  0  0  0  0  0
   -2.6526    1.3319   -1.6626 H   0  0  0  0  0  0  0  0  0  0  0  0
   -2.7481    2.4303   -0.2383 H   0  0  0  0  0  0  0  0  0  0  0  0
   -1.8775    0.9284    1.2820 H   0  0  0  0  0  0  0  0  0  0  0  0
    1.3205   -1.1557   -0.9844 H   0  0  0  0  0  0  0  0  0  0  0  0
    2.3542   -2.5565    0.6387 H   0  0  0  0  0  0  0  0  0  0  0  0
    2.5607   -1.2582    1.8278 H   0  0  0  0  0  0  0  0  0  0  0  0
    4.1627   -1.9060   -0.5603 H   0  0  0  0  0  0  0  0  0  0  0  0
    4.5680   -0.7488    0.7277 H   0  0  0  0  0  0  0  0  0  0  0  0
    3.0575   -0.3791   -1.8531 H   0  0  0  0  0  0  0  0  0  0  0  0
    5.2241    0.5921   -1.2901 H   0  0  0  0  0  0  0  0  0  0  0  0
  2  1  1  1
  2  3  1  0
  3  4  1  0
  4  5  1  0
  5  6  1  0
  6  7  1  0
  7  8  1  0
  8  9  1  0
  9 10  2  0
 10 11  1  0
 11 12  2  0
 11 13  1  0
 13 14  1  0
 14 15  1  0
  6 16  1  0
 16 17  1  0
 17 18  1  0
 18 19  1  0
 19 20  1  0
 16  2  1  0
 19  2  1  0
 15  5  1  0
 15  9  1  0
  1 21  1  0
  1 22  1  0
  1 23  1  0
  3 24  1  0
  3 25  1  0
  4 26  1  0
  4 27  1  0
  5 28  1  6
  6 29  1  1
  7 30  1  0
  7 31  1  0
  8 32  1  0
  8 33  1  0
 10 34  1  0
 13 35  1  0
 13 36  1  0
 14 37  1  0
 14 38  1  0
 15 39  1  1
 16 40  1  6
 17 41  1  0
 17 42  1  0
 18 43  1  0
 18 44  1  0
 19 45  1  6
 20 46  1  0
M  END
$$$$
[H]C([H])([H])C1(C([H])([H])[H])C(=O)C([H])([H])C([H])([H])[C@]2(C([H])([H])[H])[C@@]3([H])C([H])([H])C([H])([H])[C@]4(C([H])([H])[H])[C@@]([H])(C([H])([H])[H])C([H])([H])C([H])([H])C([H])([H])[C@@]4([H])[C@]3([H])C([H])([H])[C@@]([H])(C([H])([H])[H])[C@@]2([H])[C@]1([H])C([H])([H])[H]
     RDKit          3D

 71 74  0  0  0  0  0  0  0  0999 V2000
   -0.9398    1.8861   -1.9217 C   0  0  0  0  0  0  0  0  0  0  0  0
   -1.1592    1.5898   -0.5082 C   0  0  2  0  0  0  0  0  0  0  0  0
    0.1478    1.6220    0.2850 C   0  0  0  0  0  0  0  0  0  0  0  0
    0.9558    0.4670   -0.2604 C   0  0  1  0  0  0  0  0  0  0  0  0
    2.3010    0.5245    0.4252 C   0  0  2  0  0  0  0  0  0  0  0  0
    2.8882    1.8933    0.3444 C   0  0  0  0  0  0  0  0  0  0  0  0
    4.3545    1.9466    0.6238 C   0  0  0  0  0  0  0  0  0  0  0  0
    4.7257    0.7606    1.4779 C   0  0  0  0  0  0  0  0  0  0  0  0
    4.4679   -0.5490    0.8151 C   0  0  2  0  0  0  0  0  0  0  0  0
    5.7042   -0.9410   -0.0039 C   0  0  0  0  0  0  0  0  0  0  0  0
    3.2233   -0.5637   -0.0395 C   0  0  2  0  0  0  0  0  0  0  0  0
    3.6124   -0.4460   -1.4749 C   0  0  0  0  0  0  0  0  0  0  0  0
    2.5067   -1.8816    0.2545 C   0  0  0  0  0  0  0  0  0  0  0  0
    1.1538   -1.9302   -0.4181 C   0  0  0  0  0  0  0  0  0  0  0  0
    0.2863   -0.7949    0.1273 C   0  0  2  0  0  0  0  0  0  0  0  0
   -1.1562   -0.9419   -0.3145 C   0  0  1  0  0  0  0  0  0  0  0  0
   -1.1346   -1.5555   -1.6629 C   0  0  0  0  0  0  0  0  0  0  0  0
   -1.6725   -2.0138    0.6580 C   0  0  0  0  0  0  0  0  0  0  0  0
   -3.1307   -2.2464    0.6176 C   0  0  0  0  0  0  0  0  0  0  0  0
   -3.8633   -1.0880    1.2008 C   0  0  0  0  0  0  0  0  0  0  0  0
   -4.1083   -1.1019    2.4025 O   0  0  0  0  0  0  0  0  0  0  0  0
   -4.3362    0.1087    0.4513 C   0  0  0  0  0  0  0  0  0  0  0  0
   -4.3912    1.2645    1.3871 C   0  0  0  0  0  0  0  0  0  0  0  0
   -5.6858   -0.2360   -0.1289 C   0  0  0  0  0  0  0  0  0  0  0  0
   -3.3069    0.3293   -0.6779 C   0  0  1  0  0  0  0  0  0  0  0  0
   -3.7689    1.5408   -1.4270 C   0  0  0  0  0  0  0  0  0  0  0  0
   -1.9167    0.3384   -0.1688 C   0  0  2  0  0  0  0  0  0  0  0  0
   -1.1452    1.1174   -2.6539 H   0  0  0  0  0  0  0  0  0  0  0  0
    0.1413    2.1841   -2.0681 H   0  0  0  0  0  0  0  0  0  0  0  0
   -1.5026    2.8046   -2.2673 H   0  0  0  0  0  0  0  0  0  0  0  0
   -1.7481    2.4399   -0.0473 H   0  0  0  0  0  0  0  0  0  0  0  0
    0.6190    2.6000    0.1180 H   0  0  0  0  0  0  0  0  0  0  0  0
   -0.1122    1.4136    1.3350 H   0  0  0  0  0  0  0  0  0  0  0  0
    1.0444    0.4979   -1.3635 H   0  0  0  0  0  0  0  0  0  0  0  0
    2.0942    0.3167    1.5161 H   0  0  0  0  0  0  0  0  0  0  0  0
    2.3845    2.5201    1.1369 H   0  0  0  0  0  0  0  0  0  0  0  0
    2.6028    2.4026   -0.6177 H   0  0  0  0  0  0  0  0  0  0  0  0
    4.9839    2.0390   -0.2877 H   0  0  0  0  0  0  0  0  0  0  0  0
    4.6113    2.8589    1.2384 H   0  0  0  0  0  0  0  0  0  0  0  0
    4.1470    0.8539    2.4236 H   0  0  0  0  0  0  0  0  0  0  0  0
    5.8089    0.8511    1.7176 H   0  0  0  0  0  0  0  0  0  0  0  0
    4.4195   -1.3283    1.6315 H   0  0  0  0  0  0  0  0  0  0  0  0
    6.2145   -0.0098   -0.3630 H   0  0  0  0  0  0  0  0  0  0  0  0
    5.4376   -1.6163   -0.8399 H   0  0  0  0  0  0  0  0  0  0  0  0
    6.4449   -1.4810    0.6117 H   0  0  0  0  0  0  0  0  0  0  0  0
    2.8973    0.0861   -2.1108 H   0  0  0  0  0  0  0  0  0  0  0  0
    4.6019    0.0781   -1.6193 H   0  0  0  0  0  0  0  0  0  0  0  0
    3.7210   -1.4726   -1.9330 H   0  0  0  0  0  0  0  0  0  0  0  0
    2.4616   -2.0222    1.3417 H   0  0  0  0  0  0  0  0  0  0  0  0
    3.1370   -2.6778   -0.2191 H   0  0  0  0  0  0  0  0  0  0  0  0
    0.7474   -2.9266   -0.2248 H   0  0  0  0  0  0  0  0  0  0  0  0
    1.3318   -1.8421   -1.4980 H   0  0  0  0  0  0  0  0  0  0  0  0
    0.3823   -0.8889    1.2499 H   0  0  0  0  0  0  0  0  0  0  0  0
   -0.3733   -1.1292   -2.3504 H   0  0  0  0  0  0  0  0  0  0  0  0
   -0.7959   -2.6283   -1.5185 H   0  0  0  0  0  0  0  0  0  0  0  0
   -2.0603   -1.6267   -2.2177 H   0  0  0  0  0  0  0  0  0  0  0  0
   -1.1775   -2.9719    0.3903 H   0  0  0  0  0  0  0  0  0  0  0  0
   -1.3302   -1.7842    1.6947 H   0  0  0  0  0  0  0  0  0  0  0  0
   -3.3631   -3.1521    1.1710 H   0  0  0  0  0  0  0  0  0  0  0  0
   -3.4548   -2.4100   -0.4338 H   0  0  0  0  0  0  0  0  0  0  0  0
   -5.4284    1.3094    1.8235 H   0  0  0  0  0  0  0  0  0  0  0  0
   -3.7148    1.1389    2.2573 H   0  0  0  0  0  0  0  0  0  0  0  0
   -4.1950    2.2403    0.9478 H   0  0  0  0  0  0  0  0  0  0  0  0
   -6.1957   -0.8955    0.6289 H   0  0  0  0  0  0  0  0  0  0  0  0
   -6.3428    0.6229   -0.2762 H   0  0  0  0  0  0  0  0  0  0  0  0
   -5.5437   -0.8596   -1.0270 H   0  0  0  0  0  0  0  0  0  0  0  0
   -3.5335   -0.5413   -1.3660 H   0  0  0  0  0  0  0  0  0  0  0  0
   -4.9013    1.4770   -1.4528 H   0  0  0  0  0  0  0  0  0  0  0  0
   -3.5527    2.5024   -0.9706 H   0  0  0  0  0  0  0  0  0  0  0  0
   -3.5102    1.4964   -2.5272 H   0  0  0  0  0  0  0  0  0  0  0  0
   -2.0098    0.4312    0.9664 H   0  0  0  0  0  0  0  0  0  0  0  0
  1  2  1  0
  2  3  1  0
  3  4  1  0
  4  5  1  0
  5  6  1  0
  6  7  1  0
  7  8  1  0
  8  9  1  0
  9 10  1  0
  9 11  1  0
 11 12  1  6
 11 13  1  0
 13 14  1  0
 14 15  1  0
 15 16  1  0
 16 17  1  6
 16 18  1  0
 18 19  1  0
 19 20  1  0
 20 21  2  0
 20 22  1  0
 22 23  1  0
 22 24  1  0
 22 25  1  0
 25 26  1  0
 25 27  1  0
 27  2  1  0
 15  4  1  0
 27 16  1  0
 11  5  1  0
  1 28  1  0
  1 29  1  0
  1 30  1  0
  2 31  1  1
  3 32  1  0
  3 33  1  0
  4 34  1  6
  5 35  1  1
  6 36  1  0
  6 37  1  0
  7 38  1  0
  7 39  1  0
  8 40  1  0
  8 41  1  0
  9 42  1  1
 10 43  1  0
 10 44  1  0
 10 45  1  0
 12 46  1  0
 12 47  1  0
 12 48  1  0
 13 49  1  0
 13 50  1  0
 14 51  1  0
 14 52  1  0
 15 53  1  1
 17 54  1  0
 17 55  1  0
 17 56  1  0
 18 57  1  0
 18 58  1  0
 19 59  1  0
 19 60  1  0
 23 61  1  0
 23 62  1  0
 23 63  1  0
 24 64  1  0
 24 65  1  0
 24 66  1  0
 25 67  1  6
 26 68  1  0
 26 69  1  0
 26 70  1  0
 27 71  1  1
M  END
$$$$
[H]c1c([H])c([H])c(C([H])([H])OC(=O)N([H])[C@]([H])(C(=O)N([H])[C@]([H])(C(=O)c2nc3c([H])c([H])c([H])c([H])c3s2)C([H])([H])C([H])([H])C([H])([H])N=C(N([H])[H])N([H])[H])C([H])([H])c2c([H])c([H])c([H])c([H])c2[H])c([H])c1[H]
     RDKit          3D

 73 76  0  0  0  0  0  0  0  0999 V2000
   -8.1124    2.8390    2.3680 N   0  0  0  0  0  0  0  0  0  0  0  0
   -6.9566    3.3064    1.6704 C   0  0  0  0  0  0  0  0  0  0  0  0
   -6.7394    4.6887    1.4293 N   0  0  0  0  0  0  0  0  0  0  0  0
   -6.1003    2.4584    1.2550 N   0  0  0  0  0  0  0  0  0  0  0  0
   -4.9023    2.8422    0.5407 C   0  0  0  0  0  0  0  0  0  0  0  0
   -4.0637    1.5801    0.3875 C   0  0  0  0  0  0  0  0  0  0  0  0
   -2.8007    1.9092   -0.3483 C   0  0  0  0  0  0  0  0  0  0  0  0
   -1.9524    0.6581   -0.4935 C   0  0  2  0  0  0  0  0  0  0  0  0
   -0.7247    1.0187   -1.2246 N   0  0  0  0  0  0  0  0  0  0  0  0
    0.5363    0.8670   -0.5930 C   0  0  0  0  0  0  0  0  0  0  0  0
    0.6088    0.4295    0.5849 O   0  0  0  0  0  0  0  0  0  0  0  0
    1.7497    1.2541   -1.4013 C   0  0  2  0  0  0  0  0  0  0  0  0
    1.7039    0.5346   -2.6782 C   0  0  0  0  0  0  0  0  0  0  0  0
    2.7762    0.7520   -3.6444 C   0  0  0  0  0  0  0  0  0  0  0  0
    2.7037    1.7956   -4.5524 C   0  0  0  0  0  0  0  0  0  0  0  0
    3.7303    1.9509   -5.4459 C   0  0  0  0  0  0  0  0  0  0  0  0
    4.8258    1.0823   -5.4467 C   0  0  0  0  0  0  0  0  0  0  0  0
    4.9023    0.0445   -4.5473 C   0  0  0  0  0  0  0  0  0  0  0  0
    3.8520   -0.1062   -3.6410 C   0  0  0  0  0  0  0  0  0  0  0  0
    2.8986    1.0018   -0.5624 N   0  0  0  0  0  0  0  0  0  0  0  0
    3.2958   -0.2380   -0.0435 C   0  0  0  0  0  0  0  0  0  0  0  0
    2.6476   -1.2786   -0.2912 O   0  0  0  0  0  0  0  0  0  0  0  0
    4.4158   -0.3426    0.7567 O   0  0  0  0  0  0  0  0  0  0  0  0
    4.7858   -1.6127    1.2628 C   0  0  0  0  0  0  0  0  0  0  0  0
    6.0156   -1.4905    2.0954 C   0  0  0  0  0  0  0  0  0  0  0  0
    5.9195   -1.2382    3.4607 C   0  0  0  0  0  0  0  0  0  0  0  0
    7.0513   -1.1266    4.2224 C   0  0  0  0  0  0  0  0  0  0  0  0
    8.2857   -1.2657    3.6289 C   0  0  0  0  0  0  0  0  0  0  0  0
    8.3793   -1.5123    2.2953 C   0  0  0  0  0  0  0  0  0  0  0  0
    7.2456   -1.6279    1.5110 C   0  0  0  0  0  0  0  0  0  0  0  0
   -2.6160   -0.4007   -1.2528 C   0  0  0  0  0  0  0  0  0  0  0  0
   -2.6275   -0.4029   -2.5027 O   0  0  0  0  0  0  0  0  0  0  0  0
   -3.2828   -1.4905   -0.5453 C   0  0  0  0  0  0  0  0  0  0  0  0
   -3.3882   -1.7178    0.7463 N   0  0  0  0  0  0  0  0  0  0  0  0
   -4.0316   -2.7585    1.1907 C   0  0  0  0  0  0  0  0  0  0  0  0
   -4.2112   -3.1062    2.5421 C   0  0  0  0  0  0  0  0  0  0  0  0
   -4.9018   -4.2169    2.8902 C   0  0  0  0  0  0  0  0  0  0  0  0
   -5.4654   -5.0676    1.9724 C   0  0  0  0  0  0  0  0  0  0  0  0
   -5.3029   -4.7482    0.6452 C   0  0  0  0  0  0  0  0  0  0  0  0
   -4.5891   -3.5990    0.2659 C   0  0  0  0  0  0  0  0  0  0  0  0
   -4.1522   -2.8380   -1.1988 S   0  0  0  0  0  0  0  0  0  0  0  0
   -8.0577    2.0693    3.0543 H   0  0  0  0  0  0  0  0  0  0  0  0
   -9.0453    3.2784    2.1892 H   0  0  0  0  0  0  0  0  0  0  0  0
   -6.9503    5.0688    0.4921 H   0  0  0  0  0  0  0  0  0  0  0  0
   -6.3792    5.3051    2.1695 H   0  0  0  0  0  0  0  0  0  0  0  0
   -4.3590    3.5693    1.1801 H   0  0  0  0  0  0  0  0  0  0  0  0
   -5.1374    3.3179   -0.4120 H   0  0  0  0  0  0  0  0  0  0  0  0
   -4.6556    0.8253   -0.1834 H   0  0  0  0  0  0  0  0  0  0  0  0
   -3.8165    1.2047    1.3827 H   0  0  0  0  0  0  0  0  0  0  0  0
   -2.2153    2.6038    0.3013 H   0  0  0  0  0  0  0  0  0  0  0  0
   -2.9879    2.3458   -1.3534 H   0  0  0  0  0  0  0  0  0  0  0  0
   -1.7026    0.2975    0.5118 H   0  0  0  0  0  0  0  0  0  0  0  0
   -0.8151    1.3782   -2.1810 H   0  0  0  0  0  0  0  0  0  0  0  0
    1.6394    2.3634   -1.4800 H   0  0  0  0  0  0  0  0  0  0  0  0
    1.6852   -0.5706   -2.4410 H   0  0  0  0  0  0  0  0  0  0  0  0
    0.7408    0.6877   -3.2246 H   0  0  0  0  0  0  0  0  0  0  0  0
    1.8307    2.4236   -4.4926 H   0  0  0  0  0  0  0  0  0  0  0  0
    3.6538    2.7762   -6.1499 H   0  0  0  0  0  0  0  0  0  0  0  0
    5.6189    1.2321   -6.1642 H   0  0  0  0  0  0  0  0  0  0  0  0
    5.7573   -0.6098   -4.5698 H   0  0  0  0  0  0  0  0  0  0  0  0
    3.9796   -0.9479   -2.9718 H   0  0  0  0  0  0  0  0  0  0  0  0
    3.5302    1.8294   -0.2944 H   0  0  0  0  0  0  0  0  0  0  0  0
    4.0085   -2.0661    1.8836 H   0  0  0  0  0  0  0  0  0  0  0  0
    4.9975   -2.3007    0.4024 H   0  0  0  0  0  0  0  0  0  0  0  0
    4.9256   -1.1336    3.8974 H   0  0  0  0  0  0  0  0  0  0  0  0
    7.0054   -0.9320    5.2788 H   0  0  0  0  0  0  0  0  0  0  0  0
    9.1939   -1.1830    4.2023 H   0  0  0  0  0  0  0  0  0  0  0  0
    9.3380   -1.6305    1.7791 H   0  0  0  0  0  0  0  0  0  0  0  0
    7.3224   -1.8246    0.4472 H   0  0  0  0  0  0  0  0  0  0  0  0
   -3.7946   -2.4831    3.3451 H   0  0  0  0  0  0  0  0  0  0  0  0
   -5.0229   -4.4588    3.9648 H   0  0  0  0  0  0  0  0  0  0  0  0
   -5.9991   -5.9285    2.2915 H   0  0  0  0  0  0  0  0  0  0  0  0
   -5.6968   -5.3349   -0.1637 H   0  0  0  0  0  0  0  0  0  0  0  0
  1  2  1  0
  2  3  1  0
  2  4  2  3
  4  5  1  0
  5  6  1  0
  6  7  1  0
  7  8  1  0
  8  9  1  0
  9 10  1  0
 10 11  2  0
 10 12  1  0
 12 13  1  0
 13 14  1  0
 14 15  2  0
 15 16  1  0
 16 17  2  0
 17 18  1  0
 18 19  2  0
 12 20  1  0
 20 21  1  0
 21 22  2  0
 21 23  1  0
 23 24  1  0
 24 25  1  0
 25 26  2  0
 26 27  1  0
 27 28  2  0
 28 29  1  0
 29 30  2  0
  8 31  1  0
 31 32  2  0
 31 33  1  0
 33 34  2  0
 34 35  1  0
 35 36  2  0
 36 37  1  0
 37 38  2  0
 38 39  1  0
 39 40  2  0
 40 41  1  0
 19 14  1  0
 30 25  1  0
 41 33  1  0
 40 35  1  0
  1 42  1  0
  1 43  1  0
  3 44  1  0
  3 45  1  0
  5 46  1  0
  5 47  1  0
  6 48  1  0
  6 49  1  0
  7 50  1  0
  7 51  1  0
  8 52  1  1
  9 53  1  0
 12 54  1  6
 13 55  1  0
 13 56  1  0
 15 57  1  0
 16 58  1  0
 17 59  1  0
 18 60  1  0
 19 61  1  0
 20 62  1  0
 24 63  1  0
 24 64  1  0
 26 65  1  0
 27 66  1  0
 28 67  1  0
 29 68  1  0
 30 69  1  0
 36 70  1  0
 37 71  1  0
 38 72  1  0
 39 73  1  0
M  END
$$$$
[H]ON([H])C(=O)C([H])([H])C([H])([H])C([H])([H])C([H])([H])C([H])([H])C([H])([H])C(=O)N([H])c1c([H])c([H])c(-c2c([H])nnn2C([H])([H])c2c([H])c([H])c(F)c([H])c2[H])c([H])c1[H]
     RDKit          3D

 58 60  0  0  0  0  0  0  0  0999 V2000
   -9.4947    3.0982    0.5773 O   0  0  0  0  0  0  0  0  0  0  0  0
   -8.8913    2.0892    0.7570 N   0  0  0  0  0  0  0  0  0  0  0  0
   -8.1734    0.8889    0.9708 C   0  0  0  0  0  0  0  0  0  0  0  0
   -8.6711   -0.2417    0.9029 O   0  0  0  0  0  0  0  0  0  0  0  0
   -6.6854    0.9941    1.3023 C   0  0  0  0  0  0  0  0  0  0  0  0
   -6.1501   -0.3899    1.4603 C   0  0  0  0  0  0  0  0  0  0  0  0
   -4.7057   -0.4221    1.7837 C   0  0  0  0  0  0  0  0  0  0  0  0
   -3.8006    0.2350    0.7620 C   0  0  0  0  0  0  0  0  0  0  0  0
   -4.0557   -0.4370   -0.5597 C   0  0  0  0  0  0  0  0  0  0  0  0
   -3.1133    0.0939   -1.5988 C   0  0  0  0  0  0  0  0  0  0  0  0
   -1.7229   -0.3604   -1.2643 C   0  0  0  0  0  0  0  0  0  0  0  0
   -1.6206   -1.1872   -0.3089 O   0  0  0  0  0  0  0  0  0  0  0  0
   -0.6043    0.1109   -1.9830 N   0  0  0  0  0  0  0  0  0  0  0  0
    0.7032   -0.3227   -1.7004 C   0  0  0  0  0  0  0  0  0  0  0  0
    1.1784   -0.6926   -0.4737 C   0  0  0  0  0  0  0  0  0  0  0  0
    2.4682   -1.2051   -0.2736 C   0  0  0  0  0  0  0  0  0  0  0  0
    3.3380   -1.3667   -1.2900 C   0  0  0  0  0  0  0  0  0  0  0  0
    2.8752   -0.9888   -2.5657 C   0  0  0  0  0  0  0  0  0  0  0  0
    1.6228   -0.4951   -2.7490 C   0  0  0  0  0  0  0  0  0  0  0  0
    4.7059   -1.8479   -1.1905 C   0  0  0  0  0  0  0  0  0  0  0  0
    5.4123   -2.3593   -2.3177 C   0  0  0  0  0  0  0  0  0  0  0  0
    6.6270   -2.6581   -1.8508 N   0  0  0  0  0  0  0  0  0  0  0  0
    6.6962   -2.3764   -0.5981 N   0  0  0  0  0  0  0  0  0  0  0  0
    5.5049   -1.8640   -0.1538 N   0  0  0  0  0  0  0  0  0  0  0  0
    5.4221   -1.3806    1.2140 C   0  0  0  0  0  0  0  0  0  0  0  0
    6.0372    0.0049    1.2344 C   0  0  0  0  0  0  0  0  0  0  0  0
    7.4126    0.0430    1.4379 C   0  0  0  0  0  0  0  0  0  0  0  0
    8.0595    1.2710    1.4179 C   0  0  0  0  0  0  0  0  0  0  0  0
    7.3373    2.4297    1.2001 C   0  0  0  0  0  0  0  0  0  0  0  0
    7.9505    3.6670    1.1684 F   0  0  0  0  0  0  0  0  0  0  0  0
    5.9671    2.3911    0.9986 C   0  0  0  0  0  0  0  0  0  0  0  0
    5.3296    1.1413    1.0219 C   0  0  0  0  0  0  0  0  0  0  0  0
   -9.3568    3.6229   -0.2727 H   0  0  0  0  0  0  0  0  0  0  0  0
  -10.0087    1.3592    0.5036 H   0  0  0  0  0  0  0  0  0  0  0  0
   -6.1757    1.5259    0.4501 H   0  0  0  0  0  0  0  0  0  0  0  0
   -6.6177    1.6182    2.1847 H   0  0  0  0  0  0  0  0  0  0  0  0
   -6.3913   -0.9856    0.5451 H   0  0  0  0  0  0  0  0  0  0  0  0
   -6.6777   -0.9284    2.2991 H   0  0  0  0  0  0  0  0  0  0  0  0
   -4.3203   -1.4529    1.9306 H   0  0  0  0  0  0  0  0  0  0  0  0
   -4.5491    0.1411    2.7413 H   0  0  0  0  0  0  0  0  0  0  0  0
   -2.7707    0.2992    1.0680 H   0  0  0  0  0  0  0  0  0  0  0  0
   -4.1252    1.3166    0.5986 H   0  0  0  0  0  0  0  0  0  0  0  0
   -3.9475   -1.5436   -0.4388 H   0  0  0  0  0  0  0  0  0  0  0  0
   -5.1219   -0.2028   -0.8291 H   0  0  0  0  0  0  0  0  0  0  0  0
   -3.1398    1.2016   -1.6556 H   0  0  0  0  0  0  0  0  0  0  0  0
   -3.4054   -0.3260   -2.6008 H   0  0  0  0  0  0  0  0  0  0  0  0
   -0.7465    0.8040   -2.7415 H   0  0  0  0  0  0  0  0  0  0  0  0
    0.5230   -0.5722    0.3915 H   0  0  0  0  0  0  0  0  0  0  0  0
    2.6993   -1.4942    0.7258 H   0  0  0  0  0  0  0  0  0  0  0  0
    3.5471   -1.1065   -3.3938 H   0  0  0  0  0  0  0  0  0  0  0  0
    1.2697   -0.2111   -3.7385 H   0  0  0  0  0  0  0  0  0  0  0  0
    5.0090   -2.4545   -3.2918 H   0  0  0  0  0  0  0  0  0  0  0  0
    4.4789   -1.3177    1.6886 H   0  0  0  0  0  0  0  0  0  0  0  0
    6.0907   -2.0364    1.8478 H   0  0  0  0  0  0  0  0  0  0  0  0
    7.9599   -0.8757    1.6144 H   0  0  0  0  0  0  0  0  0  0  0  0
    9.1387    1.3513    1.5706 H   0  0  0  0  0  0  0  0  0  0  0  0
    5.4212    3.3099    0.8264 H   0  0  0  0  0  0  0  0  0  0  0  0
    4.2581    1.0948    0.8737 H   0  0  0  0  0  0  0  0  0  0  0  0
  1  2  1  0
  2  3  1  0
  3  4  2  0
  3  5  1  0
  5  6  1  0
  6  7  1  0
  7  8  1  0
  8  9  1  0
  9 10  1  0
 10 11  1  0
 11 12  2  0
 11 13  1  0
 13 14  1  0
 14 15  2  0
 15 16  1  0
 16 17  2  0
 17 18  1  0
 18 19  2  0
 17 20  1  0
 20 21  2  0
 21 22  1  0
 22 23  2  0
 23 24  1  0
 24 25  1  0
 25 26  1  0
 26 27  2  0
 27 28  1  0
 28 29  2  0
 29 30  1  0
 29 31  1  0
 31 32  2  0
 19 14  1  0
 24 20  1  0
 32 26  1  0
  1 33  1  0
  2 34  1  0
  5 35  1  0
  5 36  1  0
  6 37  1  0
  6 38  1  0
  7 39  1  0
  7 40  1  0
  8 41  1  0
  8 42  1  0
  9 43  1  0
  9 44  1  0
 10 45  1  0
 10 46  1  0
 13 47  1  0
 15 48  1  0
 16 49  1  0
 18 50  1  0
 19 51  1  0
 21 52  1  0
 25 53  1  0
 25 54  1  0
 27 55  1  0
 28 56  1  0
 31 57  1  0
 32 58  1  0
M  END
$$$$
[H]N=C(N([H])[H])N([H])C([H])([H])C([H])([H])C([H])([H])[C@@]([H])(C(=O)c1nc2c([H])c([H])c([H])c([H])c2s1)N([H])C(=O)[C@@]1([H])N(C(=O)[C@@]([H])(N([H])C(=O)OC(C([H])([H])[H])(C([H])([H])[H])C([H])([H])[H])C([H])([H])C([H])([H])C(=O)O[H])C([H])([H])C([H])([H])C1([H])[H]
     RDKit          3D

 82 84  0  0  0  0  0  0  0  0999 V2000
    6.2009   -1.1272   -3.8773 C   0  0  0  0  0  0  0  0  0  0  0  0
    6.2642   -1.0329   -2.3407 C   0  0  0  0  0  0  0  0  0  0  0  0
    6.6716   -2.3893   -1.7988 C   0  0  0  0  0  0  0  0  0  0  0  0
    7.3423   -0.0427   -1.9793 C   0  0  0  0  0  0  0  0  0  0  0  0
    4.9850   -0.6661   -1.9299 O   0  0  0  0  0  0  0  0  0  0  0  0
    4.5753   -0.4763   -0.6302 C   0  0  0  0  0  0  0  0  0  0  0  0
    5.4325   -0.6492    0.2877 O   0  0  0  0  0  0  0  0  0  0  0  0
    3.2366   -0.0991   -0.3383 N   0  0  0  0  0  0  0  0  0  0  0  0
    2.7823    0.1113    1.0638 C   0  0  1  0  0  0  0  0  0  0  0  0
    2.4591    1.5970    1.1871 C   0  0  0  0  0  0  0  0  0  0  0  0
    3.7083    2.4291    0.8971 C   0  0  0  0  0  0  0  0  0  0  0  0
    3.3547    3.8424    1.0314 C   0  0  0  0  0  0  0  0  0  0  0  0
    4.3393    4.7995    0.7969 O   0  0  0  0  0  0  0  0  0  0  0  0
    2.2027    4.1926    1.3472 O   0  0  0  0  0  0  0  0  0  0  0  0
    1.6237   -0.7588    1.3201 C   0  0  0  0  0  0  0  0  0  0  0  0
    1.1225   -1.3339    0.3109 O   0  0  0  0  0  0  0  0  0  0  0  0
    1.0226   -1.0123    2.5796 N   0  0  0  0  0  0  0  0  0  0  0  0
    1.6481   -0.4917    3.8015 C   0  0  0  0  0  0  0  0  0  0  0  0
    0.7692   -0.9585    4.9483 C   0  0  0  0  0  0  0  0  0  0  0  0
   -0.5591   -1.1158    4.2817 C   0  0  0  0  0  0  0  0  0  0  0  0
   -0.1388   -1.7533    2.9196 C   0  0  1  0  0  0  0  0  0  0  0  0
   -1.2820   -1.7819    2.0503 C   0  0  0  0  0  0  0  0  0  0  0  0
   -2.0352   -2.8332    2.1556 O   0  0  0  0  0  0  0  0  0  0  0  0
   -1.6960   -0.8411    1.1209 N   0  0  0  0  0  0  0  0  0  0  0  0
   -2.9257   -1.0606    0.3299 C   0  0  1  0  0  0  0  0  0  0  0  0
   -3.9222    0.0307    0.6388 C   0  0  0  0  0  0  0  0  0  0  0  0
   -3.4017    1.4045    0.3149 C   0  0  0  0  0  0  0  0  0  0  0  0
   -4.5210    2.3908    0.6926 C   0  0  0  0  0  0  0  0  0  0  0  0
   -4.0784    3.7365    0.4119 N   0  0  0  0  0  0  0  0  0  0  0  0
   -3.0255    4.2696    1.2030 C   0  0  0  0  0  0  0  0  0  0  0  0
   -2.0640    5.1005    0.5746 N   0  0  0  0  0  0  0  0  0  0  0  0
   -2.9367    4.0099    2.4725 N   0  0  0  0  0  0  0  0  0  0  0  0
   -2.6546   -1.2345   -1.0824 C   0  0  0  0  0  0  0  0  0  0  0  0
   -1.5569   -1.0566   -1.6459 O   0  0  0  0  0  0  0  0  0  0  0  0
   -3.7517   -1.6721   -1.9932 C   0  0  0  0  0  0  0  0  0  0  0  0
   -5.0117   -1.9147   -1.6919 N   0  0  0  0  0  0  0  0  0  0  0  0
   -5.8415   -2.3264   -2.5975 C   0  0  0  0  0  0  0  0  0  0  0  0
   -7.2037   -2.6274   -2.4140 C   0  0  0  0  0  0  0  0  0  0  0  0
   -7.9866   -3.0574   -3.4254 C   0  0  0  0  0  0  0  0  0  0  0  0
   -7.5140   -3.2324   -4.7073 C   0  0  0  0  0  0  0  0  0  0  0  0
   -6.1794   -2.9440   -4.9180 C   0  0  0  0  0  0  0  0  0  0  0  0
   -5.3641   -2.4980   -3.8717 C   0  0  0  0  0  0  0  0  0  0  0  0
   -3.7194   -2.0448   -3.6729 S   0  0  0  0  0  0  0  0  0  0  0  0
    5.2790   -1.6379   -4.2170 H   0  0  0  0  0  0  0  0  0  0  0  0
    7.0795   -1.7018   -4.2389 H   0  0  0  0  0  0  0  0  0  0  0  0
    6.2009   -0.1090   -4.3172 H   0  0  0  0  0  0  0  0  0  0  0  0
    7.0460   -2.2713   -0.7463 H   0  0  0  0  0  0  0  0  0  0  0  0
    5.8456   -3.1158   -1.7631 H   0  0  0  0  0  0  0  0  0  0  0  0
    7.5051   -2.7560   -2.4385 H   0  0  0  0  0  0  0  0  0  0  0  0
    8.0278    0.0596   -2.8633 H   0  0  0  0  0  0  0  0  0  0  0  0
    7.9574   -0.3803   -1.1319 H   0  0  0  0  0  0  0  0  0  0  0  0
    6.8851    0.9713   -1.7949 H   0  0  0  0  0  0  0  0  0  0  0  0
    2.5338    0.0446   -1.0866 H   0  0  0  0  0  0  0  0  0  0  0  0
    3.6441   -0.1064    1.7079 H   0  0  0  0  0  0  0  0  0  0  0  0
    1.7933    1.8043    0.2867 H   0  0  0  0  0  0  0  0  0  0  0  0
    1.9984    1.8940    2.1017 H   0  0  0  0  0  0  0  0  0  0  0  0
    4.0760    2.1700   -0.1323 H   0  0  0  0  0  0  0  0  0  0  0  0
    4.5139    2.1984    1.6463 H   0  0  0  0  0  0  0  0  0  0  0  0
    5.0851    5.0018    1.4538 H   0  0  0  0  0  0  0  0  0  0  0  0
    1.8068    0.5615    3.8630 H   0  0  0  0  0  0  0  0  0  0  0  0
    2.6470   -1.0306    3.8489 H   0  0  0  0  0  0  0  0  0  0  0  0
    0.7494   -0.2391    5.7936 H   0  0  0  0  0  0  0  0  0  0  0  0
    1.1063   -1.9837    5.2781 H   0  0  0  0  0  0  0  0  0  0  0  0
   -1.0346   -0.1718    4.0206 H   0  0  0  0  0  0  0  0  0  0  0  0
   -1.2275   -1.8226    4.8163 H   0  0  0  0  0  0  0  0  0  0  0  0
    0.2233   -2.8036    3.1818 H   0  0  0  0  0  0  0  0  0  0  0  0
   -1.2059    0.0546    0.9324 H   0  0  0  0  0  0  0  0  0  0  0  0
   -3.3999   -2.0268    0.6846 H   0  0  0  0  0  0  0  0  0  0  0  0
   -4.1778    0.0542    1.7289 H   0  0  0  0  0  0  0  0  0  0  0  0
   -4.8668   -0.1218    0.1057 H   0  0  0  0  0  0  0  0  0  0  0  0
   -3.1546    1.5515   -0.7524 H   0  0  0  0  0  0  0  0  0  0  0  0
   -2.5225    1.6713    0.9717 H   0  0  0  0  0  0  0  0  0  0  0  0
   -4.7454    2.2271    1.7783 H   0  0  0  0  0  0  0  0  0  0  0  0
   -5.4087    2.0739    0.1305 H   0  0  0  0  0  0  0  0  0  0  0  0
   -4.5439    4.2578   -0.3524 H   0  0  0  0  0  0  0  0  0  0  0  0
   -2.0486    5.2551   -0.4435 H   0  0  0  0  0  0  0  0  0  0  0  0
   -1.3300    5.5888    1.1464 H   0  0  0  0  0  0  0  0  0  0  0  0
   -2.1784    4.3863    3.0729 H   0  0  0  0  0  0  0  0  0  0  0  0
   -7.6688   -2.5190   -1.4257 H   0  0  0  0  0  0  0  0  0  0  0  0
   -9.0631   -3.2942   -3.2704 H   0  0  0  0  0  0  0  0  0  0  0  0
   -8.1171   -3.5724   -5.5176 H   0  0  0  0  0  0  0  0  0  0  0  0
   -5.6814   -3.0446   -5.8811 H   0  0  0  0  0  0  0  0  0  0  0  0
  1  2  1  0
  2  3  1  0
  2  4  1  0
  2  5  1  0
  5  6  1  0
  6  7  2  0
  6  8  1  0
  8  9  1  0
  9 10  1  0
 10 11  1  0
 11 12  1  0
 12 13  1  0
 12 14  2  0
  9 15  1  0
 15 16  2  0
 15 17  1  0
 17 18  1  0
 18 19  1  0
 19 20  1  0
 20 21  1  0
 21 22  1  0
 22 23  2  0
 22 24  1  0
 24 25  1  0
 25 26  1  0
 26 27  1  0
 27 28  1  0
 28 29  1  0
 29 30  1  0
 30 31  1  0
 30 32  2  3
 25 33  1  0
 33 34  2  0
 33 35  1  0
 35 36  2  0
 36 37  1  0
 37 38  2  0
 38 39  1  0
 39 40  2  0
 40 41  1  0
 41 42  2  0
 42 43  1  0
 21 17  1  0
 43 35  1  0
 42 37  1  0
  1 44  1  0
  1 45  1  0
  1 46  1  0
  3 47  1  0
  3 48  1  0
  3 49  1  0
  4 50  1  0
  4 51  1  0
  4 52  1  0
  8 53  1  0
  9 54  1  1
 10 55  1  0
 10 56  1  0
 11 57  1  0
 11 58  1  0
 13 59  1  0
 18 60  1  0
 18 61  1  0
 19 62  1  0
 19 63  1  0
 20 64  1  0
 20 65  1  0
 21 66  1  1
 24 67  1  0
 25 68  1  1
 26 69  1  0
 26 70  1  0
 27 71  1  0
 27 72  1  0
 28 73  1  0
 28 74  1  0
 29 75  1  0
 31 76  1  0
 31 77  1  0
 32 78  1  0
 38 79  1  0
 39 80  1  0
 40 81  1  0
 41 82  1  0
M  END
$$$$
[H]N=C(N([H])[H])N([H])C([H])([H])C([H])([H])C([H])([H])[C@@]([H])(C([H])=O)N([H])C(=O)[C@@]([H])(N([H])C(=O)[C@@]1([H])N(C(=O)[C@@]([H])(N([H])C(=O)OC([H])([H])c2c([H])c([H])c([H])c([H])c2[H])C([H])([H])c2c([H])c([H])c([H])c([H])c2[H])C([H])([H])C([H])([H])C1([H])[H])C([H])([H])C([H])([H])C([H])([H])N([H])C(=N[H])N([H])[H]
     RDKit          3D

 98100  0  0  0  0  0  0  0  0999 V2000
    2.9307   -7.5820   -1.1630 N   0  0  0  0  0  0  0  0  0  0  0  0
    2.6353   -6.2003   -1.1627 C   0  0  0  0  0  0  0  0  0  0  0  0
    2.0823   -5.6425   -0.1535 N   0  0  0  0  0  0  0  0  0  0  0  0
    2.9618   -5.4290   -2.2980 N   0  0  0  0  0  0  0  0  0  0  0  0
    4.1644   -4.6243   -2.2979 C   0  0  0  0  0  0  0  0  0  0  0  0
    4.0124   -3.4556   -1.3118 C   0  0  0  0  0  0  0  0  0  0  0  0
    2.8651   -2.6087   -1.7567 C   0  0  0  0  0  0  0  0  0  0  0  0
    2.5899   -1.4784   -0.8363 C   0  0  2  0  0  0  0  0  0  0  0  0
    1.4459   -0.7021   -1.3557 N   0  0  0  0  0  0  0  0  0  0  0  0
    0.2730   -0.4345   -0.5998 C   0  0  0  0  0  0  0  0  0  0  0  0
    0.2681   -0.9244    0.5747 O   0  0  0  0  0  0  0  0  0  0  0  0
   -0.8407    0.3556   -1.1494 C   0  0  2  0  0  0  0  0  0  0  0  0
   -0.2954    1.7393   -1.5245 C   0  0  0  0  0  0  0  0  0  0  0  0
   -0.2653    2.4376   -0.1810 C   0  0  0  0  0  0  0  0  0  0  0  0
   -1.1125    1.6132    0.7675 C   0  0  0  0  0  0  0  0  0  0  0  0
   -1.8053    0.7225   -0.1489 N   0  0  0  0  0  0  0  0  0  0  0  0
   -3.1774    0.3243   -0.0978 C   0  0  0  0  0  0  0  0  0  0  0  0
   -3.6086   -0.4068   -1.0158 O   0  0  0  0  0  0  0  0  0  0  0  0
   -4.0934    0.7484    0.9900 C   0  0  2  0  0  0  0  0  0  0  0  0
   -4.0304   -0.2132    2.1646 C   0  0  0  0  0  0  0  0  0  0  0  0
   -4.4179   -1.5883    1.8035 C   0  0  0  0  0  0  0  0  0  0  0  0
   -5.7472   -1.9882    1.8959 C   0  0  0  0  0  0  0  0  0  0  0  0
   -6.1464   -3.2623    1.5641 C   0  0  0  0  0  0  0  0  0  0  0  0
   -5.2424   -4.2056    1.1221 C   0  0  0  0  0  0  0  0  0  0  0  0
   -3.9158   -3.8248    1.0245 C   0  0  0  0  0  0  0  0  0  0  0  0
   -3.5152   -2.5276    1.3638 C   0  0  0  0  0  0  0  0  0  0  0  0
   -5.4348    0.8727    0.5025 N   0  0  0  0  0  0  0  0  0  0  0  0
   -6.0618    2.1463    0.4673 C   0  0  0  0  0  0  0  0  0  0  0  0
   -5.4574    3.1900    0.8624 O   0  0  0  0  0  0  0  0  0  0  0  0
   -7.3493    2.3416    0.0083 O   0  0  0  0  0  0  0  0  0  0  0  0
   -7.9072    3.6653   -0.0033 C   0  0  0  0  0  0  0  0  0  0  0  0
   -9.3034    3.6370   -0.5374 C   0  0  0  0  0  0  0  0  0  0  0  0
   -9.7918    4.7223   -1.2248 C   0  0  0  0  0  0  0  0  0  0  0  0
  -11.0749    4.7103   -1.7217 C   0  0  0  0  0  0  0  0  0  0  0  0
  -11.9189    3.6176   -1.5530 C   0  0  0  0  0  0  0  0  0  0  0  0
  -11.3921    2.5503   -0.8589 C   0  0  0  0  0  0  0  0  0  0  0  0
  -10.1179    2.5474   -0.3582 C   0  0  0  0  0  0  0  0  0  0  0  0
    3.7098   -0.5203   -0.7718 C   0  0  0  0  0  0  0  0  0  0  0  0
    3.5878    0.6319   -1.3597 O   0  0  0  0  0  0  0  0  0  0  0  0
    4.9347   -0.7216   -0.1119 N   0  0  0  0  0  0  0  0  0  0  0  0
    5.9585    0.3825   -0.1367 C   0  0  1  0  0  0  0  0  0  0  0  0
    6.0044    0.9409    1.2441 C   0  0  0  0  0  0  0  0  0  0  0  0
    6.8527    2.0830    1.5578 C   0  0  0  0  0  0  0  0  0  0  0  0
    8.3169    1.9772    1.3606 C   0  0  0  0  0  0  0  0  0  0  0  0
    8.9282    3.2308    1.8498 N   0  0  0  0  0  0  0  0  0  0  0  0
   10.3314    3.3930    1.7563 C   0  0  0  0  0  0  0  0  0  0  0  0
   10.8963    4.6791    1.5830 N   0  0  0  0  0  0  0  0  0  0  0  0
   11.0987    2.3740    1.8272 N   0  0  0  0  0  0  0  0  0  0  0  0
    7.1989   -0.2410   -0.6221 C   0  0  0  0  0  0  0  0  0  0  0  0
    7.2570   -1.4851   -0.7456 O   0  0  0  0  0  0  0  0  0  0  0  0
    3.6061   -7.9528   -0.4760 H   0  0  0  0  0  0  0  0  0  0  0  0
    2.4786   -8.2167   -1.8412 H   0  0  0  0  0  0  0  0  0  0  0  0
    1.8118   -6.1375    0.7220 H   0  0  0  0  0  0  0  0  0  0  0  0
    2.3197   -5.4593   -3.1125 H   0  0  0  0  0  0  0  0  0  0  0  0
    4.2752   -4.1858   -3.3201 H   0  0  0  0  0  0  0  0  0  0  0  0
    5.0608   -5.2283   -2.0534 H   0  0  0  0  0  0  0  0  0  0  0  0
    4.9935   -2.9234   -1.4266 H   0  0  0  0  0  0  0  0  0  0  0  0
    3.9240   -3.8281   -0.2880 H   0  0  0  0  0  0  0  0  0  0  0  0
    1.9575   -3.2155   -1.9932 H   0  0  0  0  0  0  0  0  0  0  0  0
    3.1641   -2.2004   -2.7687 H   0  0  0  0  0  0  0  0  0  0  0  0
    2.3782   -1.8148    0.1871 H   0  0  0  0  0  0  0  0  0  0  0  0
    1.5299   -0.3469   -2.3214 H   0  0  0  0  0  0  0  0  0  0  0  0
   -1.3089   -0.1276   -2.0350 H   0  0  0  0  0  0  0  0  0  0  0  0
    0.6977    1.6785   -2.0034 H   0  0  0  0  0  0  0  0  0  0  0  0
   -1.0555    2.1668   -2.2121 H   0  0  0  0  0  0  0  0  0  0  0  0
   -0.6348    3.4824   -0.2552 H   0  0  0  0  0  0  0  0  0  0  0  0
    0.7799    2.5118    0.1823 H   0  0  0  0  0  0  0  0  0  0  0  0
   -1.8175    2.2572    1.3404 H   0  0  0  0  0  0  0  0  0  0  0  0
   -0.4653    1.1431    1.4918 H   0  0  0  0  0  0  0  0  0  0  0  0
   -3.7525    1.7308    1.3534 H   0  0  0  0  0  0  0  0  0  0  0  0
   -4.7402    0.1825    2.9194 H   0  0  0  0  0  0  0  0  0  0  0  0
   -3.0214   -0.1419    2.5869 H   0  0  0  0  0  0  0  0  0  0  0  0
   -6.4665   -1.2577    2.2419 H   0  0  0  0  0  0  0  0  0  0  0  0
   -7.1867   -3.5872    1.6335 H   0  0  0  0  0  0  0  0  0  0  0  0
   -5.5624   -5.2137    0.8583 H   0  0  0  0  0  0  0  0  0  0  0  0
   -3.2041   -4.5486    0.6818 H   0  0  0  0  0  0  0  0  0  0  0  0
   -2.4758   -2.3076    1.2629 H   0  0  0  0  0  0  0  0  0  0  0  0
   -5.9615    0.0515    0.1740 H   0  0  0  0  0  0  0  0  0  0  0  0
   -7.8219    4.1492    0.9697 H   0  0  0  0  0  0  0  0  0  0  0  0
   -7.2878    4.2360   -0.7456 H   0  0  0  0  0  0  0  0  0  0  0  0
   -9.1473    5.6003   -1.3733 H   0  0  0  0  0  0  0  0  0  0  0  0
  -11.4646    5.5734   -2.2689 H   0  0  0  0  0  0  0  0  0  0  0  0
  -12.9404    3.6181   -1.9536 H   0  0  0  0  0  0  0  0  0  0  0  0
  -12.0500    1.6803   -0.7190 H   0  0  0  0  0  0  0  0  0  0  0  0
   -9.7470    1.6831    0.1828 H   0  0  0  0  0  0  0  0  0  0  0  0
    5.1932   -1.5545    0.4036 H   0  0  0  0  0  0  0  0  0  0  0  0
    5.5880    1.1654   -0.8164 H   0  0  0  0  0  0  0  0  0  0  0  0
    4.9119    1.1868    1.4905 H   0  0  0  0  0  0  0  0  0  0  0  0
    6.2731    0.0765    1.9514 H   0  0  0  0  0  0  0  0  0  0  0  0
    6.5246    3.0134    0.9680 H   0  0  0  0  0  0  0  0  0  0  0  0
    6.6934    2.3778    2.6539 H   0  0  0  0  0  0  0  0  0  0  0  0
    8.7378    1.1285    1.8807 H   0  0  0  0  0  0  0  0  0  0  0  0
    8.5743    1.9897    0.2545 H   0  0  0  0  0  0  0  0  0  0  0  0
    8.3226    3.9590    2.2483 H   0  0  0  0  0  0  0  0  0  0  0  0
   11.7945    4.9018    2.0501 H   0  0  0  0  0  0  0  0  0  0  0  0
   10.4303    5.4020    0.9991 H   0  0  0  0  0  0  0  0  0  0  0  0
   10.7296    1.4197    1.9524 H   0  0  0  0  0  0  0  0  0  0  0  0
    8.0814    0.3148   -0.8892 H   0  0  0  0  0  0  0  0  0  0  0  0
  1  2  1  0
  2  3  2  3
  2  4  1  0
  4  5  1  0
  5  6  1  0
  6  7  1  0
  7  8  1  0
  8  9  1  0
  9 10  1  0
 10 11  2  0
 10 12  1  0
 12 13  1  0
 13 14  1  0
 14 15  1  0
 15 16  1  0
 16 17  1  0
 17 18  2  0
 17 19  1  0
 19 20  1  0
 20 21  1  0
 21 22  2  0
 22 23  1  0
 23 24  2  0
 24 25  1  0
 25 26  2  0
 19 27  1  0
 27 28  1  0
 28 29  2  0
 28 30  1  0
 30 31  1  0
 31 32  1  0
 32 33  2  0
 33 34  1  0
 34 35  2  0
 35 36  1  0
 36 37  2  0
  8 38  1  0
 38 39  2  0
 38 40  1  0
 40 41  1  0
 41 42  1  0
 42 43  1  0
 43 44  1  0
 44 45  1  0
 45 46  1  0
 46 47  1  0
 46 48  2  3
 41 49  1  0
 49 50  2  0
 16 12  1  0
 26 21  1  0
 37 32  1  0
  1 51  1  0
  1 52  1  0
  3 53  1  0
  4 54  1  0
  5 55  1  0
  5 56  1  0
  6 57  1  0
  6 58  1  0
  7 59  1  0
  7 60  1  0
  8 61  1  1
  9 62  1  0
 12 63  1  6
 13 64  1  0
 13 65  1  0
 14 66  1  0
 14 67  1  0
 15 68  1  0
 15 69  1  0
 19 70  1  1
 20 71  1  0
 20 72  1  0
 22 73  1  0
 23 74  1  0
 24 75  1  0
 25 76  1  0
 26 77  1  0
 27 78  1  0
 31 79  1  0
 31 80  1  0
 33 81  1  0
 34 82  1  0
 35 83  1  0
 36 84  1  0
 37 85  1  0
 40 86  1  0
 41 87  1  6
 42 88  1  0
 42 89  1  0
 43 90  1  0
 43 91  1  0
 44 92  1  0
 44 93  1  0
 45 94  1  0
 47 95  1  0
 47 96  1  0
 48 97  1  0
 49 98  1  0
M  END
$$$$
[H]C1=C([H])C([H])(F)C([H])([H])C([H])=C1N([H])C(=O)C1(C(=O)N([H])c2c([H])c([H])c(Oc3c([H])c([H])nc4c([H])c(OC([H])([H])C([H])([H])C([H])([H])N5C([H])([H])C([H])([H])OC([H])([H])C5([H])[H])c(OC([H])([H])[H])c([H])c34)c(F)c2[H])C([H])([H])C1([H])[H]
     RDKit          3D

 82 87  0  0  0  0  0  0  0  0999 V2000
    3.9666    3.0495   -1.7322 C   0  0  0  0  0  0  0  0  0  0  0  0
    4.8184    1.9472   -1.5191 O   0  0  0  0  0  0  0  0  0  0  0  0
    4.2779    0.7150   -1.2054 C   0  0  0  0  0  0  0  0  0  0  0  0
    2.9355    0.4830   -1.0834 C   0  0  0  0  0  0  0  0  0  0  0  0
    2.5057   -0.7878   -0.7673 C   0  0  0  0  0  0  0  0  0  0  0  0
    1.1302   -1.0757   -0.6337 C   0  0  0  0  0  0  0  0  0  0  0  0
    0.2693   -0.0306   -0.8259 O   0  0  0  0  0  0  0  0  0  0  0  0
   -1.0898   -0.1642   -0.6451 C   0  0  0  0  0  0  0  0  0  0  0  0
   -1.9847   -0.0120   -1.6950 C   0  0  0  0  0  0  0  0  0  0  0  0
   -3.3381   -0.1282   -1.5809 C   0  0  0  0  0  0  0  0  0  0  0  0
   -3.8905   -0.4214   -0.3289 C   0  0  0  0  0  0  0  0  0  0  0  0
   -5.3238   -0.4986   -0.2135 N   0  0  0  0  0  0  0  0  0  0  0  0
   -5.9613   -1.3830    0.6262 C   0  0  0  0  0  0  0  0  0  0  0  0
   -5.1921   -2.1849    1.2964 O   0  0  0  0  0  0  0  0  0  0  0  0
   -7.4011   -1.5958    0.9101 C   0  0  0  0  0  0  0  0  0  0  0  0
   -7.6820   -2.4618    2.1265 C   0  0  0  0  0  0  0  0  0  0  0  0
   -7.8126   -3.1190    0.8294 C   0  0  0  0  0  0  0  0  0  0  0  0
   -8.4706   -0.6963    0.4763 C   0  0  0  0  0  0  0  0  0  0  0  0
   -9.6747   -1.1656    0.7176 O   0  0  0  0  0  0  0  0  0  0  0  0
   -8.4814    0.5528   -0.1324 N   0  0  0  0  0  0  0  0  0  0  0  0
   -9.7446    1.2195   -0.4499 C   0  0  0  0  0  0  0  0  0  0  0  0
   -9.9496    2.4040    0.0799 C   0  0  0  0  0  0  0  0  0  0  0  0
  -11.1350    3.2347   -0.1097 C   0  0  0  0  0  0  0  0  0  0  0  0
  -12.2008    2.6387   -0.9439 C   0  0  0  0  0  0  0  0  0  0  0  0
  -12.4721    3.4850   -2.0494 F   0  0  0  0  0  0  0  0  0  0  0  0
  -11.8730    1.3187   -1.4859 C   0  0  0  0  0  0  0  0  0  0  0  0
  -10.7586    0.6480   -1.2759 C   0  0  0  0  0  0  0  0  0  0  0  0
   -3.0432   -0.5784    0.7341 C   0  0  0  0  0  0  0  0  0  0  0  0
   -1.6522   -0.4525    0.5863 C   0  0  0  0  0  0  0  0  0  0  0  0
   -0.8827   -0.5957    1.6903 F   0  0  0  0  0  0  0  0  0  0  0  0
    0.7223   -2.3515   -0.3227 C   0  0  0  0  0  0  0  0  0  0  0  0
    1.6378   -3.3635   -0.1352 C   0  0  0  0  0  0  0  0  0  0  0  0
    2.9451   -3.0865   -0.2619 N   0  0  0  0  0  0  0  0  0  0  0  0
    3.3732   -1.8309   -0.5703 C   0  0  0  0  0  0  0  0  0  0  0  0
    4.7330   -1.5901   -0.6954 C   0  0  0  0  0  0  0  0  0  0  0  0
    5.1920   -0.3333   -1.0085 C   0  0  0  0  0  0  0  0  0  0  0  0
    6.5206   -0.0853   -1.1253 O   0  0  0  0  0  0  0  0  0  0  0  0
    7.5310   -0.9938   -0.8772 C   0  0  0  0  0  0  0  0  0  0  0  0
    7.6262   -1.3701    0.5948 C   0  0  0  0  0  0  0  0  0  0  0  0
    7.9359   -0.0985    1.3961 C   0  0  0  0  0  0  0  0  0  0  0  0
    9.1945    0.4265    0.9288 N   0  0  0  0  0  0  0  0  0  0  0  0
    9.4053    1.7864    1.4776 C   0  0  0  0  0  0  0  0  0  0  0  0
   10.8161    2.1639    1.0165 C   0  0  0  0  0  0  0  0  0  0  0  0
   11.2632    1.3549   -0.0281 O   0  0  0  0  0  0  0  0  0  0  0  0
   11.4615    0.0232    0.3872 C   0  0  0  0  0  0  0  0  0  0  0  0
   10.3466   -0.3576    1.3702 C   0  0  0  0  0  0  0  0  0  0  0  0
    4.5770    3.9509   -1.9692 H   0  0  0  0  0  0  0  0  0  0  0  0
    3.3066    3.2216   -0.8582 H   0  0  0  0  0  0  0  0  0  0  0  0
    3.3086    2.7911   -2.5987 H   0  0  0  0  0  0  0  0  0  0  0  0
    2.2243    1.2761   -1.2311 H   0  0  0  0  0  0  0  0  0  0  0  0
   -1.5528    0.2161   -2.6750 H   0  0  0  0  0  0  0  0  0  0  0  0
   -4.0246   -0.0039   -2.4200 H   0  0  0  0  0  0  0  0  0  0  0  0
   -5.8260    0.1518   -0.8369 H   0  0  0  0  0  0  0  0  0  0  0  0
   -6.8106   -2.7138    2.7607 H   0  0  0  0  0  0  0  0  0  0  0  0
   -8.5985   -2.2800    2.7131 H   0  0  0  0  0  0  0  0  0  0  0  0
   -7.0275   -3.7752    0.4011 H   0  0  0  0  0  0  0  0  0  0  0  0
   -8.7992   -3.3162    0.3639 H   0  0  0  0  0  0  0  0  0  0  0  0
   -7.6334    1.0911   -0.3743 H   0  0  0  0  0  0  0  0  0  0  0  0
   -9.1652    2.8388    0.7401 H   0  0  0  0  0  0  0  0  0  0  0  0
  -11.5358    3.5321    0.9159 H   0  0  0  0  0  0  0  0  0  0  0  0
  -10.8538    4.2484   -0.5572 H   0  0  0  0  0  0  0  0  0  0  0  0
  -13.1586    2.5647   -0.3407 H   0  0  0  0  0  0  0  0  0  0  0  0
  -12.6648    0.8691   -2.1323 H   0  0  0  0  0  0  0  0  0  0  0  0
  -10.6018   -0.3227   -1.7168 H   0  0  0  0  0  0  0  0  0  0  0  0
   -3.4037   -0.7893    1.7394 H   0  0  0  0  0  0  0  0  0  0  0  0
   -0.3200   -2.5956   -0.2356 H   0  0  0  0  0  0  0  0  0  0  0  0
    1.2680   -4.3480    0.1079 H   0  0  0  0  0  0  0  0  0  0  0  0
    5.3620   -2.4538   -0.5623 H   0  0  0  0  0  0  0  0  0  0  0  0
    7.4424   -1.9223   -1.5038 H   0  0  0  0  0  0  0  0  0  0  0  0
    8.4920   -0.5348   -1.2249 H   0  0  0  0  0  0  0  0  0  0  0  0
    6.7751   -1.8921    1.0071 H   0  0  0  0  0  0  0  0  0  0  0  0
    8.4922   -2.0400    0.6815 H   0  0  0  0  0  0  0  0  0  0  0  0
    7.1233    0.6400    1.3255 H   0  0  0  0  0  0  0  0  0  0  0  0
    8.0487   -0.4301    2.4644 H   0  0  0  0  0  0  0  0  0  0  0  0
    9.4079    1.7624    2.5778 H   0  0  0  0  0  0  0  0  0  0  0  0
    8.6320    2.4413    1.0296 H   0  0  0  0  0  0  0  0  0  0  0  0
   11.5508    2.0414    1.8480 H   0  0  0  0  0  0  0  0  0  0  0  0
   10.8264    3.2054    0.6080 H   0  0  0  0  0  0  0  0  0  0  0  0
   11.3001   -0.6008   -0.5146 H   0  0  0  0  0  0  0  0  0  0  0  0
   12.4569   -0.1361    0.8078 H   0  0  0  0  0  0  0  0  0  0  0  0
   10.1090   -1.3943    1.4038 H   0  0  0  0  0  0  0  0  0  0  0  0
   10.6797    0.0679    2.3647 H   0  0  0  0  0  0  0  0  0  0  0  0
  1  2  1  0
  2  3  1  0
  3  4  2  0
  4  5  1  0
  5  6  2  0
  6  7  1  0
  7  8  1  0
  8  9  2  0
  9 10  1  0
 10 11  2  0
 11 12  1  0
 12 13  1  0
 13 14  2  0
 13 15  1  0
 15 16  1  0
 16 17  1  0
 15 18  1  0
 18 19  2  0
 18 20  1  0
 20 21  1  0
 21 22  2  0
 22 23  1  0
 23 24  1  0
 24 25  1  0
 24 26  1  0
 26 27  2  0
 11 28  1  0
 28 29  2  0
 29 30  1  0
  6 31  1  0
 31 32  2  0
 32 33  1  0
 33 34  2  0
 34 35  1  0
 35 36  2  0
 36 37  1  0
 37 38  1  0
 38 39  1  0
 39 40  1  0
 40 41  1  0
 41 42  1  0
 42 43  1  0
 43 44  1  0
 44 45  1  0
 45 46  1  0
 36  3  1  0
 46 41  1  0
 34  5  1  0
 29  8  1  0
 17 15  1  0
 27 21  1  0
  1 47  1  0
  1 48  1  0
  1 49  1  0
  4 50  1  0
  9 51  1  0
 10 52  1  0
 12 53  1  0
 16 54  1  0
 16 55  1  0
 17 56  1  0
 17 57  1  0
 20 58  1  0
 22 59  1  0
 23 60  1  0
 23 61  1  0
 24 62  1  0
 26 63  1  0
 27 64  1  0
 28 65  1  0
 31 66  1  0
 32 67  1  0
 35 68  1  0
 38 69  1  0
 38 70  1  0
 39 71  1  0
 39 72  1  0
 40 73  1  0
 40 74  1  0
 42 75  1  0
 42 76  1  0
 43 77  1  0
 43 78  1  0
 45 79  1  0
 45 80  1  0
 46 81  1  0
 46 82  1  0
M  END
$$$$
[H]c1c([H])c(C2([H])c3c(nc(-c4c([H])c(C#N)c([H])c([H])c4OC([H])([H])[H])n3C([H])(C([H])([H])[H])C([H])([H])[H])C(=O)N2c2c([H])c(Cl)c([H])c([H])c2C([H])([H])[H])c([H])c([H])c1Cl
     RDKit          3D

 61 65  0  0  0  0  0  0  0  0999 V2000
   -5.0748   -1.7787    1.1892 C   0  0  0  0  0  0  0  0  0  0  0  0
   -4.0905   -0.8570    0.8130 O   0  0  0  0  0  0  0  0  0  0  0  0
   -4.4377    0.4376    0.4876 C   0  0  0  0  0  0  0  0  0  0  0  0
   -5.8121    0.7753    0.5606 C   0  0  0  0  0  0  0  0  0  0  0  0
   -6.2592    2.0381    0.2680 C   0  0  0  0  0  0  0  0  0  0  0  0
   -5.3410    2.9955   -0.1049 C   0  0  0  0  0  0  0  0  0  0  0  0
   -4.0087    2.6605   -0.1746 C   0  0  0  0  0  0  0  0  0  0  0  0
   -3.5279    1.3684    0.1201 C   0  0  0  0  0  0  0  0  0  0  0  0
   -2.0878    1.1297    0.0966 C   0  0  0  0  0  0  0  0  0  0  0  0
   -1.2425    1.9856    0.7748 N   0  0  0  0  0  0  0  0  0  0  0  0
    0.0105    1.6515    0.5456 C   0  0  0  0  0  0  0  0  0  0  0  0
    1.4041    2.0289    0.8876 C   0  0  0  0  0  0  0  0  0  0  0  0
    1.6846    3.0146    1.6534 O   0  0  0  0  0  0  0  0  0  0  0  0
    2.2217    1.1174    0.2178 N   0  0  0  0  0  0  0  0  0  0  0  0
    1.4001    0.2039   -0.5973 C   0  0  0  0  0  0  0  0  0  0  0  0
    0.0075    0.5619   -0.2966 C   0  0  0  0  0  0  0  0  0  0  0  0
   -1.2969    0.2689   -0.5515 N   0  0  0  0  0  0  0  0  0  0  0  0
   -1.7672   -0.7590   -1.4651 C   0  0  0  0  0  0  0  0  0  0  0  0
   -1.0946   -0.5710   -2.8407 C   0  0  0  0  0  0  0  0  0  0  0  0
   -1.5206   -2.1726   -1.0166 C   0  0  0  0  0  0  0  0  0  0  0  0
    1.7810   -1.1740   -0.3325 C   0  0  0  0  0  0  0  0  0  0  0  0
    1.7622   -1.7383    0.9162 C   0  0  0  0  0  0  0  0  0  0  0  0
    2.1727   -3.0247    1.1093 C   0  0  0  0  0  0  0  0  0  0  0  0
    2.6183   -3.7934    0.0549 C   0  0  0  0  0  0  0  0  0  0  0  0
    3.1509   -5.4340    0.2496 Cl  0  0  0  0  0  0  0  0  0  0  0  0
    2.6454   -3.2478   -1.2067 C   0  0  0  0  0  0  0  0  0  0  0  0
    2.2356   -1.9669   -1.3928 C   0  0  0  0  0  0  0  0  0  0  0  0
    3.6450    1.0809    0.2927 C   0  0  0  0  0  0  0  0  0  0  0  0
    4.3980    1.1063   -0.8907 C   0  0  0  0  0  0  0  0  0  0  0  0
    5.7692    1.0732   -0.8694 C   0  0  0  0  0  0  0  0  0  0  0  0
    6.6884    1.1096   -2.3602 Cl  0  0  0  0  0  0  0  0  0  0  0  0
    6.4613    1.0126    0.3231 C   0  0  0  0  0  0  0  0  0  0  0  0
    5.7447    0.9868    1.4896 C   0  0  0  0  0  0  0  0  0  0  0  0
    4.3448    1.0208    1.4707 C   0  0  0  0  0  0  0  0  0  0  0  0
    3.7009    0.9906    2.7967 C   0  0  0  0  0  0  0  0  0  0  0  0
   -5.8079    4.3290   -0.4181 C   0  0  0  0  0  0  0  0  0  0  0  0
   -6.1755    5.4018   -0.6909 N   0  0  0  0  0  0  0  0  0  0  0  0
   -5.5808   -1.4063    2.1149 H   0  0  0  0  0  0  0  0  0  0  0  0
   -5.8500   -1.8303    0.3823 H   0  0  0  0  0  0  0  0  0  0  0  0
   -4.6751   -2.7810    1.4059 H   0  0  0  0  0  0  0  0  0  0  0  0
   -6.5332    0.0233    0.8555 H   0  0  0  0  0  0  0  0  0  0  0  0
   -7.2970    2.3314    0.3123 H   0  0  0  0  0  0  0  0  0  0  0  0
   -3.2721    3.3778   -0.4598 H   0  0  0  0  0  0  0  0  0  0  0  0
    1.6546    0.4694   -1.6739 H   0  0  0  0  0  0  0  0  0  0  0  0
   -2.8380   -0.6457   -1.6870 H   0  0  0  0  0  0  0  0  0  0  0  0
   -0.4475   -1.4447   -3.0816 H   0  0  0  0  0  0  0  0  0  0  0  0
   -1.8173   -0.4742   -3.6554 H   0  0  0  0  0  0  0  0  0  0  0  0
   -0.4445    0.3228   -2.8266 H   0  0  0  0  0  0  0  0  0  0  0  0
   -0.8284   -2.7203   -1.6873 H   0  0  0  0  0  0  0  0  0  0  0  0
   -1.2074   -2.2464    0.0496 H   0  0  0  0  0  0  0  0  0  0  0  0
   -2.4697   -2.7873   -1.0544 H   0  0  0  0  0  0  0  0  0  0  0  0
    1.4056   -1.1291    1.7617 H   0  0  0  0  0  0  0  0  0  0  0  0
    2.1534   -3.4591    2.0964 H   0  0  0  0  0  0  0  0  0  0  0  0
    2.9838   -3.7893   -2.0912 H   0  0  0  0  0  0  0  0  0  0  0  0
    2.2517   -1.5253   -2.3714 H   0  0  0  0  0  0  0  0  0  0  0  0
    3.8825    1.1533   -1.8504 H   0  0  0  0  0  0  0  0  0  0  0  0
    7.5551    0.9843    0.3466 H   0  0  0  0  0  0  0  0  0  0  0  0
    6.2915    0.9396    2.4076 H   0  0  0  0  0  0  0  0  0  0  0  0
    4.2876    0.2567    3.4306 H   0  0  0  0  0  0  0  0  0  0  0  0
    3.8152    1.9526    3.3552 H   0  0  0  0  0  0  0  0  0  0  0  0
    2.6777    0.5958    2.8118 H   0  0  0  0  0  0  0  0  0  0  0  0
  1  2  1  0
  2  3  1  0
  3  4  2  0
  4  5  1  0
  5  6  2  0
  6  7  1  0
  7  8  2  0
  8  9  1  0
  9 10  2  0
 10 11  1  0
 11 12  1  0
 12 13  2  0
 12 14  1  0
 14 15  1  0
 15 16  1  0
 16 17  1  0
 17 18  1  0
 18 19  1  0
 18 20  1  0
 15 21  1  0
 21 22  2  0
 22 23  1  0
 23 24  2  0
 24 25  1  0
 24 26  1  0
 26 27  2  0
 14 28  1  0
 28 29  2  0
 29 30  1  0
 30 31  1  0
 30 32  2  0
 32 33  1  0
 33 34  2  0
 34 35  1  0
  6 36  1  0
 36 37  3  0
  8  3  1  0
 17  9  1  0
 27 21  1  0
 34 28  1  0
 16 11  2  0
  1 38  1  0
  1 39  1  0
  1 40  1  0
  4 41  1  0
  5 42  1  0
  7 43  1  0
 15 44  1  0
 18 45  1  0
 19 46  1  0
 19 47  1  0
 19 48  1  0
 20 49  1  0
 20 50  1  0
 20 51  1  0
 22 52  1  0
 23 53  1  0
 26 54  1  0
 27 55  1  0
 29 56  1  0
 32 57  1  0
 33 58  1  0
 35 59  1  0
 35 60  1  0
 35 61  1  0
M  END
$$$$
[H]c1c([H])c(N(C([H])([H])[H])C([H])([H])c2nc3c(N([H])[H])nc(N([H])[H])nc3c([H])c2[H])c([H])c([H])c1Cl
     RDKit          3D

 37 39  0  0  0  0  0  0  0  0999 V2000
    2.0506   -1.1366    1.5372 C   0  0  0  0  0  0  0  0  0  0  0  0
    1.9739   -0.7317    0.1525 N   0  0  0  0  0  0  0  0  0  0  0  0
    0.8206   -1.0077   -0.6302 C   0  0  0  0  0  0  0  0  0  0  0  0
   -0.4423   -0.4213   -0.0912 C   0  0  0  0  0  0  0  0  0  0  0  0
   -0.4244    0.6109    0.8222 C   0  0  0  0  0  0  0  0  0  0  0  0
   -1.6055    1.1522    1.3290 C   0  0  0  0  0  0  0  0  0  0  0  0
   -2.8314    0.6598    0.9222 C   0  0  0  0  0  0  0  0  0  0  0  0
   -3.9995    1.1377    1.3750 N   0  0  0  0  0  0  0  0  0  0  0  0
   -5.1931    0.6447    0.9699 C   0  0  0  0  0  0  0  0  0  0  0  0
   -6.4028    1.2084    1.4995 N   0  0  0  0  0  0  0  0  0  0  0  0
   -5.2114   -0.3614    0.0803 N   0  0  0  0  0  0  0  0  0  0  0  0
   -4.0432   -0.8640   -0.3944 C   0  0  0  0  0  0  0  0  0  0  0  0
   -4.0104   -1.9274   -1.3327 N   0  0  0  0  0  0  0  0  0  0  0  0
   -2.8120   -0.3723    0.0084 C   0  0  0  0  0  0  0  0  0  0  0  0
   -1.6547   -0.8748   -0.4640 N   0  0  0  0  0  0  0  0  0  0  0  0
    3.0824   -0.0618   -0.4198 C   0  0  0  0  0  0  0  0  0  0  0  0
    3.2490    1.3090   -0.3229 C   0  0  0  0  0  0  0  0  0  0  0  0
    4.3384    1.9294   -0.8962 C   0  0  0  0  0  0  0  0  0  0  0  0
    5.3114    1.2146   -1.5920 C   0  0  0  0  0  0  0  0  0  0  0  0
    6.6970    2.0066   -2.3216 Cl  0  0  0  0  0  0  0  0  0  0  0  0
    5.1118   -0.1460   -1.6675 C   0  0  0  0  0  0  0  0  0  0  0  0
    4.0373   -0.7925   -1.1069 C   0  0  0  0  0  0  0  0  0  0  0  0
    2.6917   -2.0483    1.6625 H   0  0  0  0  0  0  0  0  0  0  0  0
    1.0544   -1.4299    1.9377 H   0  0  0  0  0  0  0  0  0  0  0  0
    2.5277   -0.3329    2.1166 H   0  0  0  0  0  0  0  0  0  0  0  0
    0.7073   -2.1228   -0.7865 H   0  0  0  0  0  0  0  0  0  0  0  0
    1.0094   -0.6307   -1.6755 H   0  0  0  0  0  0  0  0  0  0  0  0
    0.5060    1.0308    1.1731 H   0  0  0  0  0  0  0  0  0  0  0  0
   -1.6088    1.9616    2.0443 H   0  0  0  0  0  0  0  0  0  0  0  0
   -7.1087    0.5754    1.9109 H   0  0  0  0  0  0  0  0  0  0  0  0
   -6.5955    2.2228    1.4857 H   0  0  0  0  0  0  0  0  0  0  0  0
   -4.2378   -1.8279   -2.3384 H   0  0  0  0  0  0  0  0  0  0  0  0
   -3.7404   -2.8664   -0.9832 H   0  0  0  0  0  0  0  0  0  0  0  0
    2.5120    1.9173    0.2142 H   0  0  0  0  0  0  0  0  0  0  0  0
    4.4975    3.0041   -0.8365 H   0  0  0  0  0  0  0  0  0  0  0  0
    5.8454   -0.7495   -2.2017 H   0  0  0  0  0  0  0  0  0  0  0  0
    3.8982   -1.8794   -1.1799 H   0  0  0  0  0  0  0  0  0  0  0  0
  1  2  1  0
  2  3  1  0
  3  4  1  0
  4  5  2  0
  5  6  1  0
  6  7  2  0
  7  8  1  0
  8  9  2  0
  9 10  1  0
  9 11  1  0
 11 12  2  0
 12 13  1  0
 12 14  1  0
 14 15  2  0
  2 16  1  0
 16 17  2  0
 17 18  1  0
 18 19  2  0
 19 20  1  0
 19 21  1  0
 21 22  2  0
 15  4  1  0
 22 16  1  0
 14  7  1  0
  1 23  1  0
  1 24  1  0
  1 25  1  0
  3 26  1  0
  3 27  1  0
  5 28  1  0
  6 29  1  0
 10 30  1  0
 10 31  1  0
 13 32  1  0
 13 33  1  0
 17 34  1  0
 18 35  1  0
 21 36  1  0
 22 37  1  0
M  END
$$$$
[H]c1nc(N([H])c2c([H])c([H])c3c(c([H])nn3C([H])([H])c3c([H])c([H])c([H])c([H])c3[H])c2[H])c2c(O[C@@]([H])(C(=O)N(C([H])([H])[H])C([H])([H])[H])C([H])([H])[H])c([H])c([H])c([H])c2n1
     RDKit          3D

 61 65  0  0  0  0  0  0  0  0999 V2000
    4.2186   -0.1591    1.7869 C   0  0  0  0  0  0  0  0  0  0  0  0
    4.1199    0.1421    0.2830 C   0  0  1  0  0  0  0  0  0  0  0  0
    3.1615   -0.6735   -0.3118 O   0  0  0  0  0  0  0  0  0  0  0  0
    3.3850   -1.5876   -1.2923 C   0  0  0  0  0  0  0  0  0  0  0  0
    4.6662   -1.7907   -1.7953 C   0  0  0  0  0  0  0  0  0  0  0  0
    4.8765   -2.7115   -2.7856 C   0  0  0  0  0  0  0  0  0  0  0  0
    3.8275   -3.4347   -3.2839 C   0  0  0  0  0  0  0  0  0  0  0  0
    2.5496   -3.2609   -2.8114 C   0  0  0  0  0  0  0  0  0  0  0  0
    1.5368   -3.9904   -3.3447 N   0  0  0  0  0  0  0  0  0  0  0  0
    0.2938   -3.7962   -2.8781 C   0  0  0  0  0  0  0  0  0  0  0  0
    0.0586   -2.9150   -1.9197 N   0  0  0  0  0  0  0  0  0  0  0  0
    1.0362   -2.1407   -1.3314 C   0  0  0  0  0  0  0  0  0  0  0  0
    0.6814   -1.3055   -0.2681 N   0  0  0  0  0  0  0  0  0  0  0  0
   -0.7149   -1.1236    0.0608 C   0  0  0  0  0  0  0  0  0  0  0  0
   -1.6951   -1.0384   -0.8796 C   0  0  0  0  0  0  0  0  0  0  0  0
   -3.0449   -0.8983   -0.5214 C   0  0  0  0  0  0  0  0  0  0  0  0
   -3.4181   -0.8414    0.8079 C   0  0  0  0  0  0  0  0  0  0  0  0
   -4.6039   -0.7155    1.4303 N   0  0  0  0  0  0  0  0  0  0  0  0
   -5.9218   -0.5886    0.7889 C   0  0  0  0  0  0  0  0  0  0  0  0
   -6.1771    0.8528    0.6081 C   0  0  0  0  0  0  0  0  0  0  0  0
   -5.8625    1.4664   -0.5782 C   0  0  0  0  0  0  0  0  0  0  0  0
   -6.1150    2.8395   -0.7140 C   0  0  0  0  0  0  0  0  0  0  0  0
   -6.6681    3.5655    0.3188 C   0  0  0  0  0  0  0  0  0  0  0  0
   -6.9814    2.9450    1.5054 C   0  0  0  0  0  0  0  0  0  0  0  0
   -6.7324    1.5959    1.6364 C   0  0  0  0  0  0  0  0  0  0  0  0
   -4.3595   -0.7222    2.7244 N   0  0  0  0  0  0  0  0  0  0  0  0
   -3.0564   -0.8476    2.9746 C   0  0  0  0  0  0  0  0  0  0  0  0
   -2.4161   -0.9276    1.7471 C   0  0  0  0  0  0  0  0  0  0  0  0
   -1.0922   -1.0655    1.4001 C   0  0  0  0  0  0  0  0  0  0  0  0
    2.3146   -2.3326   -1.8062 C   0  0  0  0  0  0  0  0  0  0  0  0
    3.7288    1.5921    0.1355 C   0  0  0  0  0  0  0  0  0  0  0  0
    2.6515    1.8319   -0.4441 O   0  0  0  0  0  0  0  0  0  0  0  0
    4.5535    2.6280    0.6350 N   0  0  0  0  0  0  0  0  0  0  0  0
    5.7988    2.3239    1.2971 C   0  0  0  0  0  0  0  0  0  0  0  0
    4.1351    3.9939    0.4750 C   0  0  0  0  0  0  0  0  0  0  0  0
    5.2634   -0.2398    2.0692 H   0  0  0  0  0  0  0  0  0  0  0  0
    3.7140   -1.1448    1.9808 H   0  0  0  0  0  0  0  0  0  0  0  0
    3.7131    0.6635    2.3114 H   0  0  0  0  0  0  0  0  0  0  0  0
    5.1094   -0.0068   -0.1210 H   0  0  0  0  0  0  0  0  0  0  0  0
    5.5131   -1.2321   -1.4179 H   0  0  0  0  0  0  0  0  0  0  0  0
    5.8944   -2.8483   -3.1598 H   0  0  0  0  0  0  0  0  0  0  0  0
    4.0066   -4.1645   -4.0723 H   0  0  0  0  0  0  0  0  0  0  0  0
   -0.5043   -4.3969   -3.3261 H   0  0  0  0  0  0  0  0  0  0  0  0
    1.2952   -0.8046    0.3453 H   0  0  0  0  0  0  0  0  0  0  0  0
   -1.4691   -1.0499   -1.9325 H   0  0  0  0  0  0  0  0  0  0  0  0
   -3.8158   -0.8337   -1.2712 H   0  0  0  0  0  0  0  0  0  0  0  0
   -6.6663   -1.0647    1.4723 H   0  0  0  0  0  0  0  0  0  0  0  0
   -5.8685   -1.1367   -0.1612 H   0  0  0  0  0  0  0  0  0  0  0  0
   -5.4288    0.9253   -1.4143 H   0  0  0  0  0  0  0  0  0  0  0  0
   -5.8523    3.2957   -1.6713 H   0  0  0  0  0  0  0  0  0  0  0  0
   -6.8466    4.6214    0.1733 H   0  0  0  0  0  0  0  0  0  0  0  0
   -7.4111    3.5365    2.2914 H   0  0  0  0  0  0  0  0  0  0  0  0
   -6.9644    1.0719    2.5526 H   0  0  0  0  0  0  0  0  0  0  0  0
   -2.5553   -0.8840    3.9392 H   0  0  0  0  0  0  0  0  0  0  0  0
   -0.3001   -1.1337    2.1327 H   0  0  0  0  0  0  0  0  0  0  0  0
    6.4868    3.2175    1.2191 H   0  0  0  0  0  0  0  0  0  0  0  0
    5.6273    2.1051    2.3677 H   0  0  0  0  0  0  0  0  0  0  0  0
    6.2597    1.4798    0.7424 H   0  0  0  0  0  0  0  0  0  0  0  0
    4.4620    4.5691    1.3704 H   0  0  0  0  0  0  0  0  0  0  0  0
    4.5819    4.4612   -0.4479 H   0  0  0  0  0  0  0  0  0  0  0  0
    3.0214    4.0834    0.3779 H   0  0  0  0  0  0  0  0  0  0  0  0
  1  2  1  0
  2  3  1  0
  3  4  1  0
  4  5  2  0
  5  6  1  0
  6  7  2  0
  7  8  1  0
  8  9  2  0
  9 10  1  0
 10 11  2  0
 11 12  1  0
 12 13  1  0
 13 14  1  0
 14 15  2  0
 15 16  1  0
 16 17  2  0
 17 18  1  0
 18 19  1  0
 19 20  1  0
 20 21  2  0
 21 22  1  0
 22 23  2  0
 23 24  1  0
 24 25  2  0
 18 26  1  0
 26 27  2  0
 27 28  1  0
 28 29  2  0
 12 30  2  0
  2 31  1  0
 31 32  2  0
 31 33  1  0
 33 34  1  0
 33 35  1  0
 30  4  1  0
 30  8  1  0
 29 14  1  0
 28 17  1  0
 25 20  1  0
  1 36  1  0
  1 37  1  0
  1 38  1  0
  2 39  1  6
  5 40  1  0
  6 41  1  0
  7 42  1  0
 10 43  1  0
 13 44  1  0
 15 45  1  0
 16 46  1  0
 19 47  1  0
 19 48  1  0
 21 49  1  0
 22 50  1  0
 23 51  1  0
 24 52  1  0
 25 53  1  0
 27 54  1  0
 29 55  1  0
 34 56  1  0
 34 57  1  0
 34 58  1  0
 35 59  1  0
 35 60  1  0
 35 61  1  0
M  END
$$$$
[H]OC(=O)[C@@]([H])(OC([H])([H])c1c([H])c([H])c(-c2c([H])c([H])c([H])c([H])c2[H])c([H])c1[H])[C@@]([H])(C(=O)O[H])N([H])[H]
     RDKit          3D

 40 41  0  0  0  0  0  0  0  0999 V2000
   -3.7687   -1.1471    1.6027 N   0  0  0  0  0  0  0  0  0  0  0  0
   -4.3469   -0.0230    0.8097 C   0  0  1  0  0  0  0  0  0  0  0  0
   -3.6118   -0.0633   -0.5136 C   0  0  2  0  0  0  0  0  0  0  0  0
   -2.2333    0.0963   -0.2962 O   0  0  0  0  0  0  0  0  0  0  0  0
   -1.5054   -1.0190   -0.6467 C   0  0  0  0  0  0  0  0  0  0  0  0
   -0.0669   -0.7059   -0.3632 C   0  0  0  0  0  0  0  0  0  0  0  0
    0.5064   -0.9687    0.8498 C   0  0  0  0  0  0  0  0  0  0  0  0
    1.8370   -0.6508    1.0332 C   0  0  0  0  0  0  0  0  0  0  0  0
    2.6111   -0.0757    0.0335 C   0  0  0  0  0  0  0  0  0  0  0  0
    2.0124    0.1784   -1.1756 C   0  0  0  0  0  0  0  0  0  0  0  0
    0.6944   -0.1309   -1.3732 C   0  0  0  0  0  0  0  0  0  0  0  0
    4.0129    0.2343    0.2991 C   0  0  0  0  0  0  0  0  0  0  0  0
    4.9306    0.1815   -0.7226 C   0  0  0  0  0  0  0  0  0  0  0  0
    6.2547    0.4698   -0.4939 C   0  0  0  0  0  0  0  0  0  0  0  0
    6.6710    0.8172    0.7785 C   0  0  0  0  0  0  0  0  0  0  0  0
    5.7722    0.8740    1.8036 C   0  0  0  0  0  0  0  0  0  0  0  0
    4.4533    0.5853    1.5682 C   0  0  0  0  0  0  0  0  0  0  0  0
   -4.0202    0.9007   -1.5146 C   0  0  0  0  0  0  0  0  0  0  0  0
   -3.0873    1.8332   -2.0118 O   0  0  0  0  0  0  0  0  0  0  0  0
   -5.1616    1.0037   -2.0112 O   0  0  0  0  0  0  0  0  0  0  0  0
   -5.7888   -0.2302    0.7213 C   0  0  0  0  0  0  0  0  0  0  0  0
   -6.6847    0.7221    0.2827 O   0  0  0  0  0  0  0  0  0  0  0  0
   -6.2793   -1.3453    1.0657 O   0  0  0  0  0  0  0  0  0  0  0  0
   -2.7788   -0.9314    1.8351 H   0  0  0  0  0  0  0  0  0  0  0  0
   -3.8416   -2.0203    1.0693 H   0  0  0  0  0  0  0  0  0  0  0  0
   -4.1347    0.8756    1.4056 H   0  0  0  0  0  0  0  0  0  0  0  0
   -3.7402   -1.0856   -0.9242 H   0  0  0  0  0  0  0  0  0  0  0  0
   -1.7427   -1.9240   -0.0881 H   0  0  0  0  0  0  0  0  0  0  0  0
   -1.6031   -1.2130   -1.7238 H   0  0  0  0  0  0  0  0  0  0  0  0
   -0.0992   -1.4122    1.6136 H   0  0  0  0  0  0  0  0  0  0  0  0
    2.2847   -0.8622    1.9978 H   0  0  0  0  0  0  0  0  0  0  0  0
    2.5817    0.6294   -1.9907 H   0  0  0  0  0  0  0  0  0  0  0  0
    0.2338    0.0718   -2.3233 H   0  0  0  0  0  0  0  0  0  0  0  0
    4.6348   -0.0858   -1.7219 H   0  0  0  0  0  0  0  0  0  0  0  0
    6.9921    0.4343   -1.2825 H   0  0  0  0  0  0  0  0  0  0  0  0
    7.7043    1.0448    0.9692 H   0  0  0  0  0  0  0  0  0  0  0  0
    6.0804    1.1425    2.7980 H   0  0  0  0  0  0  0  0  0  0  0  0
    3.7354    0.6281    2.3749 H   0  0  0  0  0  0  0  0  0  0  0  0
   -2.5810    1.6358   -2.8813 H   0  0  0  0  0  0  0  0  0  0  0  0
   -6.9272    1.5357    0.8440 H   0  0  0  0  0  0  0  0  0  0  0  0
  1  2  1  0
  2  3  1  0
  3  4  1  0
  4  5  1  0
  5  6  1  0
  6  7  2  0
  7  8  1  0
  8  9  2  0
  9 10  1  0
 10 11  2  0
  9 12  1  0
 12 13  2  0
 13 14  1  0
 14 15  2  0
 15 16  1  0
 16 17  2  0
  3 18  1  0
 18 19  1  0
 18 20  2  0
  2 21  1  0
 21 22  1  0
 21 23  2  0
 11  6  1  0
 17 12  1  0
  1 24  1  0
  1 25  1  0
  2 26  1  1
  3 27  1  6
  5 28  1  0
  5 29  1  0
  7 30  1  0
  8 31  1  0
 10 32  1  0
 11 33  1  0
 13 34  1  0
 14 35  1  0
 15 36  1  0
 16 37  1  0
 17 38  1  0
 19 39  1  0
 22 40  1  0
M  END
$$$$
[H]c1nc(N2C([H])([H])C([H])([H])N(c3c([H])c([H])c([H])c([H])c3C([H])([H])[H])C([H])([H])C2([H])[H])c2c([H])nn(-c3c([H])c([H])c([H])c([H])c3[H])c2n1
     RDKit          3D

 50 54  0  0  0  0  0  0  0  0999 V2000
   -4.6081   -1.3025    1.7257 C   0  0  0  0  0  0  0  0  0  0  0  0
   -5.2003   -0.6552    0.5100 C   0  0  0  0  0  0  0  0  0  0  0  0
   -6.5461   -0.8151    0.2330 C   0  0  0  0  0  0  0  0  0  0  0  0
   -7.1663   -0.2529   -0.8593 C   0  0  0  0  0  0  0  0  0  0  0  0
   -6.4358    0.5131   -1.7391 C   0  0  0  0  0  0  0  0  0  0  0  0
   -5.1010    0.6747   -1.4690 C   0  0  0  0  0  0  0  0  0  0  0  0
   -4.4599    0.1089   -0.3634 C   0  0  0  0  0  0  0  0  0  0  0  0
   -3.0764    0.3094   -0.1383 N   0  0  0  0  0  0  0  0  0  0  0  0
   -2.0716   -0.7249   -0.0935 C   0  0  0  0  0  0  0  0  0  0  0  0
   -1.0392   -0.3088    0.9255 C   0  0  0  0  0  0  0  0  0  0  0  0
   -0.3421    0.8431    0.4144 N   0  0  0  0  0  0  0  0  0  0  0  0
   -1.1498    1.8389   -0.2782 C   0  0  0  0  0  0  0  0  0  0  0  0
   -2.6219    1.6713    0.0637 C   0  0  0  0  0  0  0  0  0  0  0  0
    1.0389    1.0860    0.5266 C   0  0  0  0  0  0  0  0  0  0  0  0
    1.5431    2.1598    1.1490 N   0  0  0  0  0  0  0  0  0  0  0  0
    2.8601    2.3838    1.2516 C   0  0  0  0  0  0  0  0  0  0  0  0
    3.7278    1.5226    0.7239 N   0  0  0  0  0  0  0  0  0  0  0  0
    3.3000    0.4288    0.0880 C   0  0  0  0  0  0  0  0  0  0  0  0
    3.9341   -0.5997   -0.5332 N   0  0  0  0  0  0  0  0  0  0  0  0
    3.0403   -1.4431   -1.0109 N   0  0  0  0  0  0  0  0  0  0  0  0
    1.8078   -0.9822   -0.7112 C   0  0  0  0  0  0  0  0  0  0  0  0
    1.9321    0.1996   -0.0165 C   0  0  0  0  0  0  0  0  0  0  0  0
    5.3475   -0.7191   -0.6354 C   0  0  0  0  0  0  0  0  0  0  0  0
    6.0589   -0.3327   -1.7532 C   0  0  0  0  0  0  0  0  0  0  0  0
    7.4332   -0.4735   -1.7935 C   0  0  0  0  0  0  0  0  0  0  0  0
    8.1470   -0.9946   -0.7446 C   0  0  0  0  0  0  0  0  0  0  0  0
    7.4508   -1.3844    0.3772 C   0  0  0  0  0  0  0  0  0  0  0  0
    6.0833   -1.2462    0.4219 C   0  0  0  0  0  0  0  0  0  0  0  0
   -4.3085   -2.3106    1.4519 H   0  0  0  0  0  0  0  0  0  0  0  0
   -5.4587   -1.4157    2.4597 H   0  0  0  0  0  0  0  0  0  0  0  0
   -3.8756   -0.6763    2.2234 H   0  0  0  0  0  0  0  0  0  0  0  0
   -7.1335   -1.4134    0.9136 H   0  0  0  0  0  0  0  0  0  0  0  0
   -8.2153   -0.3937   -1.0506 H   0  0  0  0  0  0  0  0  0  0  0  0
   -6.8888    0.9758   -2.6157 H   0  0  0  0  0  0  0  0  0  0  0  0
   -4.5285    1.2780   -2.1630 H   0  0  0  0  0  0  0  0  0  0  0  0
   -2.4557   -1.7327    0.0534 H   0  0  0  0  0  0  0  0  0  0  0  0
   -1.5174   -0.7557   -1.0789 H   0  0  0  0  0  0  0  0  0  0  0  0
   -1.5958    0.0223    1.8277 H   0  0  0  0  0  0  0  0  0  0  0  0
   -0.3629   -1.1354    1.2101 H   0  0  0  0  0  0  0  0  0  0  0  0
   -1.0652    1.6018   -1.3665 H   0  0  0  0  0  0  0  0  0  0  0  0
   -0.8696    2.8675   -0.0295 H   0  0  0  0  0  0  0  0  0  0  0  0
   -3.1507    2.3888   -0.6017 H   0  0  0  0  0  0  0  0  0  0  0  0
   -2.7663    1.8965    1.1379 H   0  0  0  0  0  0  0  0  0  0  0  0
    3.1869    3.2684    1.7663 H   0  0  0  0  0  0  0  0  0  0  0  0
    0.8647   -1.4518   -0.9672 H   0  0  0  0  0  0  0  0  0  0  0  0
    5.5157    0.0819   -2.5945 H   0  0  0  0  0  0  0  0  0  0  0  0
    7.9887   -0.1707   -2.6689 H   0  0  0  0  0  0  0  0  0  0  0  0
    9.2247   -1.0870   -0.8192 H   0  0  0  0  0  0  0  0  0  0  0  0
    8.0016   -1.7966    1.2108 H   0  0  0  0  0  0  0  0  0  0  0  0
    5.5239   -1.5468    1.2932 H   0  0  0  0  0  0  0  0  0  0  0  0
  1  2  1  0
  2  3  2  0
  3  4  1  0
  4  5  2  0
  5  6  1  0
  6  7  2  0
  7  8  1  0
  8  9  1  0
  9 10  1  0
 10 11  1  0
 11 12  1  0
 12 13  1  0
 11 14  1  0
 14 15  2  0
 15 16  1  0
 16 17  2  0
 17 18  1  0
 18 19  1  0
 19 20  1  0
 20 21  2  0
 21 22  1  0
 19 23  1  0
 23 24  2  0
 24 25  1  0
 25 26  2  0
 26 27  1  0
 27 28  2  0
  7  2  1  0
 13  8  1  0
 22 14  1  0
 28 23  1  0
 22 18  2  0
  1 29  1  0
  1 30  1  0
  1 31  1  0
  3 32  1  0
  4 33  1  0
  5 34  1  0
  6 35  1  0
  9 36  1  0
  9 37  1  0
 10 38  1  0
 10 39  1  0
 12 40  1  0
 12 41  1  0
 13 42  1  0
 13 43  1  0
 16 44  1  0
 21 45  1  0
 24 46  1  0
 25 47  1  0
 26 48  1  0
 27 49  1  0
 28 50  1  0
M  END
$$$$
[H]Oc1c([H])c([H])c(C([H])([H])[C@@]([H])(C(=O)N([H])[C@]([H])(C(=O)N2C([H])([H])C([H])([H])C([H])([H])[C@@]2([H])C(=O)N([H])[C@]([H])(C(=O)N([H])[H])C([H])([H])c2c([H])n([H])c3c([H])c([H])c([H])c([H])c23)C([H])([H])[H])N([H])[H])c([H])c1[H]
     RDKit          3D

 73 76  0  0  0  0  0  0  0  0999 V2000
    1.9613    2.8381   -0.5446 C   0  0  0  0  0  0  0  0  0  0  0  0
    2.4831    1.8169    0.4563 C   0  0  2  0  0  0  0  0  0  0  0  0
    3.7009    1.2147   -0.0699 N   0  0  0  0  0  0  0  0  0  0  0  0
    4.8858    1.2671    0.6870 C   0  0  0  0  0  0  0  0  0  0  0  0
    4.8305    1.8529    1.8232 O   0  0  0  0  0  0  0  0  0  0  0  0
    6.1488    0.6870    0.2255 C   0  0  1  0  0  0  0  0  0  0  0  0
    7.1848    0.9723    1.2048 N   0  0  0  0  0  0  0  0  0  0  0  0
    6.0753   -0.8365    0.0537 C   0  0  0  0  0  0  0  0  0  0  0  0
    7.3922   -1.3604   -0.4047 C   0  0  0  0  0  0  0  0  0  0  0  0
    7.7524   -1.4942   -1.7255 C   0  0  0  0  0  0  0  0  0  0  0  0
    8.9734   -1.9792   -2.1449 C   0  0  0  0  0  0  0  0  0  0  0  0
    9.9222   -2.3660   -1.2125 C   0  0  0  0  0  0  0  0  0  0  0  0
   11.1598   -2.8583   -1.6049 O   0  0  0  0  0  0  0  0  0  0  0  0
    9.5691   -2.2351    0.1119 C   0  0  0  0  0  0  0  0  0  0  0  0
    8.3498   -1.7510    0.5381 C   0  0  0  0  0  0  0  0  0  0  0  0
    1.4276    0.7869    0.6427 C   0  0  0  0  0  0  0  0  0  0  0  0
    1.6885   -0.3824    0.2480 O   0  0  0  0  0  0  0  0  0  0  0  0
    0.2046    1.1453    1.2411 N   0  0  0  0  0  0  0  0  0  0  0  0
   -0.1617    2.4443    1.7308 C   0  0  0  0  0  0  0  0  0  0  0  0
   -1.0633    2.1129    2.9238 C   0  0  0  0  0  0  0  0  0  0  0  0
   -1.1886    0.6108    2.9596 C   0  0  0  0  0  0  0  0  0  0  0  0
   -0.9136    0.2699    1.4847 C   0  0  1  0  0  0  0  0  0  0  0  0
   -2.0875    0.5760    0.6498 C   0  0  0  0  0  0  0  0  0  0  0  0
   -2.0129    1.4697   -0.2171 O   0  0  0  0  0  0  0  0  0  0  0  0
   -3.2870   -0.1301    0.8281 N   0  0  0  0  0  0  0  0  0  0  0  0
   -4.5098    0.1179    0.0478 C   0  0  1  0  0  0  0  0  0  0  0  0
   -4.7258   -1.1424   -0.7327 C   0  0  0  0  0  0  0  0  0  0  0  0
   -5.9111   -1.1897   -1.5790 C   0  0  0  0  0  0  0  0  0  0  0  0
   -5.9883   -0.7476   -2.8922 C   0  0  0  0  0  0  0  0  0  0  0  0
   -7.2386   -0.8987   -3.3296 N   0  0  0  0  0  0  0  0  0  0  0  0
   -8.0115   -1.4348   -2.3421 C   0  0  0  0  0  0  0  0  0  0  0  0
   -9.3369   -1.7886   -2.3088 C   0  0  0  0  0  0  0  0  0  0  0  0
   -9.8840   -2.3414   -1.1806 C   0  0  0  0  0  0  0  0  0  0  0  0
   -9.0973   -2.5427   -0.0730 C   0  0  0  0  0  0  0  0  0  0  0  0
   -7.7752   -2.1817   -0.1247 C   0  0  0  0  0  0  0  0  0  0  0  0
   -7.1709   -1.6139   -1.2501 C   0  0  0  0  0  0  0  0  0  0  0  0
   -5.5926    0.6036    0.8733 C   0  0  0  0  0  0  0  0  0  0  0  0
   -6.7659    1.2188    0.4128 N   0  0  0  0  0  0  0  0  0  0  0  0
   -5.4513    0.4599    2.1446 O   0  0  0  0  0  0  0  0  0  0  0  0
    2.3153    3.8162   -0.2264 H   0  0  0  0  0  0  0  0  0  0  0  0
    2.3891    2.5375   -1.5479 H   0  0  0  0  0  0  0  0  0  0  0  0
    0.8739    2.7766   -0.6851 H   0  0  0  0  0  0  0  0  0  0  0  0
    2.7064    2.2547    1.4358 H   0  0  0  0  0  0  0  0  0  0  0  0
    3.6408    0.7633   -1.0053 H   0  0  0  0  0  0  0  0  0  0  0  0
    6.4205    1.1064   -0.7818 H   0  0  0  0  0  0  0  0  0  0  0  0
    6.8490    1.6861    1.9071 H   0  0  0  0  0  0  0  0  0  0  0  0
    8.0827    1.2690    0.7433 H   0  0  0  0  0  0  0  0  0  0  0  0
    5.3564   -0.9982   -0.7944 H   0  0  0  0  0  0  0  0  0  0  0  0
    5.7047   -1.3400    0.9572 H   0  0  0  0  0  0  0  0  0  0  0  0
    7.0118   -1.1932   -2.4649 H   0  0  0  0  0  0  0  0  0  0  0  0
    9.2233   -2.0717   -3.2072 H   0  0  0  0  0  0  0  0  0  0  0  0
   11.9848   -2.3364   -1.7669 H   0  0  0  0  0  0  0  0  0  0  0  0
   10.3359   -2.5472    0.8379 H   0  0  0  0  0  0  0  0  0  0  0  0
    8.0972   -1.6584    1.5906 H   0  0  0  0  0  0  0  0  0  0  0  0
    0.7223    3.0347    2.0685 H   0  0  0  0  0  0  0  0  0  0  0  0
   -0.7047    3.0864    1.0391 H   0  0  0  0  0  0  0  0  0  0  0  0
   -0.5403    2.4771    3.8484 H   0  0  0  0  0  0  0  0  0  0  0  0
   -2.0233    2.6165    2.7888 H   0  0  0  0  0  0  0  0  0  0  0  0
   -2.1581    0.2460    3.2936 H   0  0  0  0  0  0  0  0  0  0  0  0
   -0.3871    0.1352    3.5258 H   0  0  0  0  0  0  0  0  0  0  0  0
   -0.5967   -0.7945    1.4013 H   0  0  0  0  0  0  0  0  0  0  0  0
   -3.3436   -0.8756    1.5466 H   0  0  0  0  0  0  0  0  0  0  0  0
   -4.2041    0.9627   -0.6462 H   0  0  0  0  0  0  0  0  0  0  0  0
   -4.7486   -2.0143   -0.0152 H   0  0  0  0  0  0  0  0  0  0  0  0
   -3.8380   -1.3792   -1.3772 H   0  0  0  0  0  0  0  0  0  0  0  0
   -5.1600   -0.3507   -3.4465 H   0  0  0  0  0  0  0  0  0  0  0  0
   -7.5731   -0.6434   -4.2876 H   0  0  0  0  0  0  0  0  0  0  0  0
   -9.9401   -1.6244   -3.1809 H   0  0  0  0  0  0  0  0  0  0  0  0
  -10.9313   -2.6379   -1.1075 H   0  0  0  0  0  0  0  0  0  0  0  0
   -9.5406   -2.9814    0.8151 H   0  0  0  0  0  0  0  0  0  0  0  0
   -7.1031   -2.3199    0.7227 H   0  0  0  0  0  0  0  0  0  0  0  0
   -7.6753    1.1411    0.9320 H   0  0  0  0  0  0  0  0  0  0  0  0
   -6.7824    1.7805   -0.4637 H   0  0  0  0  0  0  0  0  0  0  0  0
  1  2  1  0
  2  3  1  0
  3  4  1  0
  4  5  2  0
  4  6  1  0
  6  7  1  0
  6  8  1  0
  8  9  1  0
  9 10  2  0
 10 11  1  0
 11 12  2  0
 12 13  1  0
 12 14  1  0
 14 15  2  0
  2 16  1  0
 16 17  2  0
 16 18  1  0
 18 19  1  0
 19 20  1  0
 20 21  1  0
 21 22  1  0
 22 23  1  0
 23 24  2  0
 23 25  1  0
 25 26  1  0
 26 27  1  0
 27 28  1  0
 28 29  2  0
 29 30  1  0
 30 31  1  0
 31 32  2  0
 32 33  1  0
 33 34  2  0
 34 35  1  0
 35 36  2  0
 26 37  1  0
 37 38  1  0
 37 39  2  0
 15  9  1  0
 22 18  1  0
 36 28  1  0
 36 31  1  0
  1 40  1  0
  1 41  1  0
  1 42  1  0
  2 43  1  1
  3 44  1  0
  6 45  1  6
  7 46  1  0
  7 47  1  0
  8 48  1  0
  8 49  1  0
 10 50  1  0
 11 51  1  0
 13 52  1  0
 14 53  1  0
 15 54  1  0
 19 55  1  0
 19 56  1  0
 20 57  1  0
 20 58  1  0
 21 59  1  0
 21 60  1  0
 22 61  1  1
 25 62  1  0
 26 63  1  6
 27 64  1  0
 27 65  1  0
 29 66  1  0
 30 67  1  0
 32 68  1  0
 33 69  1  0
 34 70  1  0
 35 71  1  0
 38 72  1  0
 38 73  1  0
M  END
$$$$
[H]OC([H])([H])C([H])([H])N([H])C(=O)c1c([H])c(OC([H])([H])[H])c([H])c(N([H])c2nc([H])c([H])c(Oc3c([H])c([H])c(N([H])C(=O)N([H])c4c([H])c(C([H])(C([H])([H])[H])C([H])([H])[H])nn4-c4c([H])c([H])c(C([H])([H])[H])c([H])c4[H])c4c([H])c([H])c([H])c([H])c34)n2)c1[H]
     RDKit          3D

 89 94  0  0  0  0  0  0  0  0999 V2000
    9.1196   -4.5597    0.6216 C   0  0  0  0  0  0  0  0  0  0  0  0
    9.9514   -3.4670    0.3433 O   0  0  0  0  0  0  0  0  0  0  0  0
    9.4967   -2.2657   -0.1238 C   0  0  0  0  0  0  0  0  0  0  0  0
    8.1204   -2.0746   -0.3393 C   0  0  0  0  0  0  0  0  0  0  0  0
    7.6243   -0.8797   -0.8117 C   0  0  0  0  0  0  0  0  0  0  0  0
    6.2844   -0.5528   -1.0065 N   0  0  0  0  0  0  0  0  0  0  0  0
    5.1640   -1.0422   -0.3065 C   0  0  0  0  0  0  0  0  0  0  0  0
    5.2302   -1.9493    0.6734 N   0  0  0  0  0  0  0  0  0  0  0  0
    4.1630   -2.3864    1.3867 C   0  0  0  0  0  0  0  0  0  0  0  0
    2.9304   -1.8255    1.0401 C   0  0  0  0  0  0  0  0  0  0  0  0
    2.7897   -0.8864    0.0410 C   0  0  0  0  0  0  0  0  0  0  0  0
    1.6927   -0.2682   -0.3878 O   0  0  0  0  0  0  0  0  0  0  0  0
    0.3890   -0.1692   -0.2378 C   0  0  0  0  0  0  0  0  0  0  0  0
   -0.1765    1.0191    0.2640 C   0  0  0  0  0  0  0  0  0  0  0  0
   -1.5244    1.1800    0.4364 C   0  0  0  0  0  0  0  0  0  0  0  0
   -2.3945    0.1775    0.1218 C   0  0  0  0  0  0  0  0  0  0  0  0
   -3.8025    0.3563    0.2157 N   0  0  0  0  0  0  0  0  0  0  0  0
   -4.5435    1.3758    0.7649 C   0  0  0  0  0  0  0  0  0  0  0  0
   -3.9472    2.3796    1.3124 O   0  0  0  0  0  0  0  0  0  0  0  0
   -5.9469    1.4558    0.7823 N   0  0  0  0  0  0  0  0  0  0  0  0
   -6.9459    0.5394    0.4308 C   0  0  0  0  0  0  0  0  0  0  0  0
   -6.9225   -0.8073    0.1974 C   0  0  0  0  0  0  0  0  0  0  0  0
   -8.1932   -1.2569   -0.2253 C   0  0  0  0  0  0  0  0  0  0  0  0
   -8.9392   -0.1599   -0.2325 N   0  0  0  0  0  0  0  0  0  0  0  0
   -8.2452    0.8855    0.1403 N   0  0  0  0  0  0  0  0  0  0  0  0
   -8.8097    2.2081    0.1967 C   0  0  0  0  0  0  0  0  0  0  0  0
   -8.2026    3.2379   -0.4846 C   0  0  0  0  0  0  0  0  0  0  0  0
   -8.7225    4.4937   -0.4573 C   0  0  0  0  0  0  0  0  0  0  0  0
   -9.8803    4.7887    0.2514 C   0  0  0  0  0  0  0  0  0  0  0  0
  -10.4434    6.1710    0.2693 C   0  0  0  0  0  0  0  0  0  0  0  0
  -10.4879    3.7594    0.9319 C   0  0  0  0  0  0  0  0  0  0  0  0
   -9.9637    2.4673    0.9142 C   0  0  0  0  0  0  0  0  0  0  0  0
   -8.6009   -2.6470   -0.5507 C   0  0  0  0  0  0  0  0  0  0  0  0
   -7.4569   -3.5182   -0.9526 C   0  0  0  0  0  0  0  0  0  0  0  0
   -9.2903   -3.2523    0.6969 C   0  0  0  0  0  0  0  0  0  0  0  0
   -1.8652   -1.0288   -0.3813 C   0  0  0  0  0  0  0  0  0  0  0  0
   -2.6929   -2.0573   -0.7133 C   0  0  0  0  0  0  0  0  0  0  0  0
   -2.1814   -3.2612   -1.2278 C   0  0  0  0  0  0  0  0  0  0  0  0
   -0.8347   -3.3853   -1.3895 C   0  0  0  0  0  0  0  0  0  0  0  0
    0.0271   -2.3666   -1.0629 C   0  0  0  0  0  0  0  0  0  0  0  0
   -0.4895   -1.1926   -0.5576 C   0  0  0  0  0  0  0  0  0  0  0  0
    3.9355   -0.5374   -0.5925 N   0  0  0  0  0  0  0  0  0  0  0  0
    8.5294    0.1552   -1.0790 C   0  0  0  0  0  0  0  0  0  0  0  0
    9.8764   -0.0284   -0.8696 C   0  0  0  0  0  0  0  0  0  0  0  0
   10.3441   -1.2119   -0.4038 C   0  0  0  0  0  0  0  0  0  0  0  0
   10.7479    1.1397   -1.2005 C   0  0  0  0  0  0  0  0  0  0  0  0
   10.5839    1.4974   -2.4201 O   0  0  0  0  0  0  0  0  0  0  0  0
   11.5510    1.6919   -0.2873 N   0  0  0  0  0  0  0  0  0  0  0  0
   12.3794    2.2622    0.6531 C   0  0  0  0  0  0  0  0  0  0  0  0
   12.0507    3.7163    1.0145 C   0  0  0  0  0  0  0  0  0  0  0  0
   12.1305    4.4741   -0.1520 O   0  0  0  0  0  0  0  0  0  0  0  0
    8.6539   -4.9995   -0.3071 H   0  0  0  0  0  0  0  0  0  0  0  0
    8.3047   -4.3381    1.2991 H   0  0  0  0  0  0  0  0  0  0  0  0
    9.7227   -5.4198    1.0303 H   0  0  0  0  0  0  0  0  0  0  0  0
    7.4481   -2.8844   -0.1328 H   0  0  0  0  0  0  0  0  0  0  0  0
    6.0719    0.1501   -1.7947 H   0  0  0  0  0  0  0  0  0  0  0  0
    4.2337   -3.1011    2.1654 H   0  0  0  0  0  0  0  0  0  0  0  0
    2.0418   -2.1152    1.5576 H   0  0  0  0  0  0  0  0  0  0  0  0
    0.4825    1.8257    0.5217 H   0  0  0  0  0  0  0  0  0  0  0  0
   -1.8915    2.1444    0.8300 H   0  0  0  0  0  0  0  0  0  0  0  0
   -4.3494   -0.4121   -0.2701 H   0  0  0  0  0  0  0  0  0  0  0  0
   -6.3804    2.3641    1.2388 H   0  0  0  0  0  0  0  0  0  0  0  0
   -6.1225   -1.5085    0.3169 H   0  0  0  0  0  0  0  0  0  0  0  0
   -7.3076    3.0875   -1.0566 H   0  0  0  0  0  0  0  0  0  0  0  0
   -8.2603    5.3242   -0.9952 H   0  0  0  0  0  0  0  0  0  0  0  0
   -9.6357    6.8954    0.0713 H   0  0  0  0  0  0  0  0  0  0  0  0
  -10.8982    6.4024    1.2668 H   0  0  0  0  0  0  0  0  0  0  0  0
  -11.2313    6.2345   -0.5425 H   0  0  0  0  0  0  0  0  0  0  0  0
  -11.3935    3.9610    1.4948 H   0  0  0  0  0  0  0  0  0  0  0  0
  -10.4483    1.6601    1.4509 H   0  0  0  0  0  0  0  0  0  0  0  0
   -9.4339   -2.5961   -1.2856 H   0  0  0  0  0  0  0  0  0  0  0  0
   -7.7674   -4.1997   -1.7835 H   0  0  0  0  0  0  0  0  0  0  0  0
   -6.5859   -2.9261   -1.2979 H   0  0  0  0  0  0  0  0  0  0  0  0
   -7.1605   -4.1761   -0.0816 H   0  0  0  0  0  0  0  0  0  0  0  0
  -10.2178   -2.6779    0.8503 H   0  0  0  0  0  0  0  0  0  0  0  0
   -9.5555   -4.2934    0.4395 H   0  0  0  0  0  0  0  0  0  0  0  0
   -8.6319   -3.2314    1.5766 H   0  0  0  0  0  0  0  0  0  0  0  0
   -3.7546   -1.9767   -0.5774 H   0  0  0  0  0  0  0  0  0  0  0  0
   -2.8968   -4.0323   -1.4685 H   0  0  0  0  0  0  0  0  0  0  0  0
   -0.4072   -4.3008   -1.7834 H   0  0  0  0  0  0  0  0  0  0  0  0
    1.1046   -2.4785   -1.2231 H   0  0  0  0  0  0  0  0  0  0  0  0
    8.1484    1.0893   -1.4546 H   0  0  0  0  0  0  0  0  0  0  0  0
   11.4074   -1.3556   -0.2414 H   0  0  0  0  0  0  0  0  0  0  0  0
   11.9535    2.6662   -1.1711 H   0  0  0  0  0  0  0  0  0  0  0  0
   12.3414    1.6952    1.6514 H   0  0  0  0  0  0  0  0  0  0  0  0
   13.4917    2.2348    0.4344 H   0  0  0  0  0  0  0  0  0  0  0  0
   12.8786    4.0527    1.6996 H   0  0  0  0  0  0  0  0  0  0  0  0
   11.1264    3.8185    1.5782 H   0  0  0  0  0  0  0  0  0  0  0  0
   11.3103    5.0231   -0.2635 H   0  0  0  0  0  0  0  0  0  0  0  0
  1  2  1  0
  2  3  1  0
  3  4  2  0
  4  5  1  0
  5  6  1  0
  6  7  1  0
  7  8  2  0
  8  9  1  0
  9 10  2  0
 10 11  1  0
 11 12  1  0
 12 13  1  0
 13 14  2  0
 14 15  1  0
 15 16  2  0
 16 17  1  0
 17 18  1  0
 18 19  2  0
 18 20  1  0
 20 21  1  0
 21 22  2  0
 22 23  1  0
 23 24  2  0
 24 25  1  0
 25 26  1  0
 26 27  2  0
 27 28  1  0
 28 29  2  0
 29 30  1  0
 29 31  1  0
 31 32  2  0
 23 33  1  0
 33 34  1  0
 33 35  1  0
 16 36  1  0
 36 37  2  0
 37 38  1  0
 38 39  2  0
 39 40  1  0
 40 41  2  0
 11 42  2  0
  5 43  2  0
 43 44  1  0
 44 45  2  0
 44 46  1  0
 46 47  2  0
 46 48  1  0
 48 49  1  0
 49 50  1  0
 50 51  1  0
 45  3  1  0
 42  7  1  0
 41 13  1  0
 25 21  1  0
 32 26  1  0
 41 36  1  0
  1 52  1  0
  1 53  1  0
  1 54  1  0
  4 55  1  0
  6 56  1  0
  9 57  1  0
 10 58  1  0
 14 59  1  0
 15 60  1  0
 17 61  1  0
 20 62  1  0
 22 63  1  0
 27 64  1  0
 28 65  1  0
 30 66  1  0
 30 67  1  0
 30 68  1  0
 31 69  1  0
 32 70  1  0
 33 71  1  0
 34 72  1  0
 34 73  1  0
 34 74  1  0
 35 75  1  0
 35 76  1  0
 35 77  1  0
 37 78  1  0
 38 79  1  0
 39 80  1  0
 40 81  1  0
 43 82  1  0
 45 83  1  0
 48 84  1  0
 49 85  1  0
 49 86  1  0
 50 87  1  0
 50 88  1  0
 51 89  1  0
M  END
$$$$
[H]c1c([H])c(S(=O)(=O)N([H])c2c([H])c(C(F)(F)F)c([H])c(C([H])(C([H])([H])[H])C([H])([H])[H])c2[H])c([H])c(OC([H])([H])[H])c1OC([H])([H])[H]
     RDKit          3D

 47 48  0  0  0  0  0  0  0  0999 V2000
    7.0076   -0.3390   -0.0048 C   0  0  0  0  0  0  0  0  0  0  0  0
    5.8296    0.4349    0.2418 O   0  0  0  0  0  0  0  0  0  0  0  0
    4.6139   -0.0348   -0.1887 C   0  0  0  0  0  0  0  0  0  0  0  0
    4.5142   -1.2291   -0.8234 C   0  0  0  0  0  0  0  0  0  0  0  0
    3.2992   -1.7201   -1.2660 C   0  0  0  0  0  0  0  0  0  0  0  0
    2.1764   -0.9336   -1.0323 C   0  0  0  0  0  0  0  0  0  0  0  0
    2.2088    0.2716   -0.4007 C   0  0  0  0  0  0  0  0  0  0  0  0
    3.4599    0.7454    0.0399 C   0  0  0  0  0  0  0  0  0  0  0  0
    3.4920    1.9042    0.6542 O   0  0  0  0  0  0  0  0  0  0  0  0
    3.3618    3.0436    1.2337 C   0  0  0  0  0  0  0  0  0  0  0  0
    0.6503   -1.5692   -1.6008 S   0  0  0  0  0  0  0  0  0  0  0  0
   -0.1194   -0.4735   -2.3119 O   0  0  0  0  0  0  0  0  0  0  0  0
    0.8312   -2.6746   -2.6160 O   0  0  0  0  0  0  0  0  0  0  0  0
   -0.3354   -2.2356   -0.3467 N   0  0  0  0  0  0  0  0  0  0  0  0
   -1.5937   -1.6206   -0.0893 C   0  0  0  0  0  0  0  0  0  0  0  0
   -1.7691   -0.2531   -0.0675 C   0  0  0  0  0  0  0  0  0  0  0  0
   -3.0111    0.3440    0.1697 C   0  0  0  0  0  0  0  0  0  0  0  0
   -4.1097   -0.4518    0.3927 C   0  0  0  0  0  0  0  0  0  0  0  0
   -3.9094   -1.8142    0.3672 C   0  0  0  0  0  0  0  0  0  0  0  0
   -2.7224   -2.4269    0.1421 C   0  0  0  0  0  0  0  0  0  0  0  0
   -5.1258   -2.6707    0.6230 C   0  0  0  0  0  0  0  0  0  0  0  0
   -4.8098   -4.0032    0.3705 F   0  0  0  0  0  0  0  0  0  0  0  0
   -5.4608   -2.6231    1.9553 F   0  0  0  0  0  0  0  0  0  0  0  0
   -6.1779   -2.2611   -0.1481 F   0  0  0  0  0  0  0  0  0  0  0  0
   -3.0623    1.8238    0.1449 C   0  0  0  0  0  0  0  0  0  0  0  0
   -3.6923    2.3078    1.4156 C   0  0  0  0  0  0  0  0  0  0  0  0
   -3.7536    2.3647   -1.0859 C   0  0  0  0  0  0  0  0  0  0  0  0
    7.0068   -1.2841    0.5397 H   0  0  0  0  0  0  0  0  0  0  0  0
    7.0979   -0.5969   -1.0854 H   0  0  0  0  0  0  0  0  0  0  0  0
    7.8530    0.3528    0.2372 H   0  0  0  0  0  0  0  0  0  0  0  0
    5.4059   -1.8353   -1.0019 H   0  0  0  0  0  0  0  0  0  0  0  0
    3.2290   -2.6688   -1.7493 H   0  0  0  0  0  0  0  0  0  0  0  0
    1.3311    0.8803   -0.2342 H   0  0  0  0  0  0  0  0  0  0  0  0
    2.3657    3.5477    1.0993 H   0  0  0  0  0  0  0  0  0  0  0  0
    4.0827    3.8820    0.9115 H   0  0  0  0  0  0  0  0  0  0  0  0
    3.5274    2.9547    2.3683 H   0  0  0  0  0  0  0  0  0  0  0  0
    0.0290   -3.0375    0.1878 H   0  0  0  0  0  0  0  0  0  0  0  0
   -0.9154    0.3855   -0.2481 H   0  0  0  0  0  0  0  0  0  0  0  0
   -5.0682    0.0222    0.5879 H   0  0  0  0  0  0  0  0  0  0  0  0
   -2.5543   -3.5153    0.1428 H   0  0  0  0  0  0  0  0  0  0  0  0
   -2.0326    2.2660    0.1018 H   0  0  0  0  0  0  0  0  0  0  0  0
   -3.4895    3.3804    1.6327 H   0  0  0  0  0  0  0  0  0  0  0  0
   -3.2520    1.7069    2.2618 H   0  0  0  0  0  0  0  0  0  0  0  0
   -4.7911    2.0719    1.3900 H   0  0  0  0  0  0  0  0  0  0  0  0
   -3.1393    2.1272   -1.9649 H   0  0  0  0  0  0  0  0  0  0  0  0
   -3.7287    3.4614   -0.9845 H   0  0  0  0  0  0  0  0  0  0  0  0
   -4.7495    1.9930   -1.2354 H   0  0  0  0  0  0  0  0  0  0  0  0
  1  2  1  0
  2  3  1  0
  3  4  2  0
  4  5  1  0
  5  6  2  0
  6  7  1  0
  7  8  2  0
  8  9  1  0
  9 10  1  0
  6 11  1  0
 11 12  2  0
 11 13  2  0
 11 14  1  0
 14 15  1  0
 15 16  2  0
 16 17  1  0
 17 18  2  0
 18 19  1  0
 19 20  2  0
 19 21  1  0
 21 22  1  0
 21 23  1  0
 21 24  1  0
 17 25  1  0
 25 26  1  0
 25 27  1  0
  8  3  1  0
 20 15  1  0
  1 28  1  0
  1 29  1  0
  1 30  1  0
  4 31  1  0
  5 32  1  0
  7 33  1  0
 10 34  1  0
 10 35  1  0
 10 36  1  0
 14 37  1  0
 16 38  1  0
 18 39  1  0
 20 40  1  0
 25 41  1  0
 26 42  1  0
 26 43  1  0
 26 44  1  0
 27 45  1  0
 27 46  1  0
 27 47  1  0
M  END
$$$$
[H]Oc1c([H])c([H])c(C([H])([H])[C@@]2([H])C(=O)N([H])[C@@]([H])(C([H])([H])C([H])(C([H])([H])[H])C([H])([H])[H])C(=O)N([H])[C@@]([H])(C([H])([H])c3c([H])c([H])c([H])c([H])c3[H])C(=O)N([H])[C@@]([H])([C@@]([H])(C([H])([H])[H])C([H])([H])C([H])([H])[H])C(=O)N([H])[C@@]([H])(C([H])(C([H])([H])[H])C([H])([H])[H])C(=O)N2[H])c([H])c1[H]
     RDKit          3D

 95 97  0  0  0  0  0  0  0  0999 V2000
   -4.4632   -4.7273   -0.8417 C   0  0  0  0  0  0  0  0  0  0  0  0
   -3.3840   -3.6375   -0.8271 C   0  0  0  0  0  0  0  0  0  0  0  0
   -3.3584   -3.0290    0.5240 C   0  0  2  0  0  0  0  0  0  0  0  0
   -4.7367   -2.4331    0.7949 C   0  0  0  0  0  0  0  0  0  0  0  0
   -2.2528   -2.0114    0.7608 C   0  0  2  0  0  0  0  0  0  0  0  0
   -2.3467   -0.9267   -0.1604 N   0  0  0  0  0  0  0  0  0  0  0  0
   -2.2406    0.4541    0.0220 C   0  0  0  0  0  0  0  0  0  0  0  0
   -2.9899    1.1726   -0.7347 O   0  0  0  0  0  0  0  0  0  0  0  0
   -1.3981    1.2039    0.9508 C   0  0  2  0  0  0  0  0  0  0  0  0
   -2.0116    1.4361    2.3150 C   0  0  0  0  0  0  0  0  0  0  0  0
   -3.2582    2.1874    2.2763 C   0  0  0  0  0  0  0  0  0  0  0  0
   -4.4692    1.5703    2.1685 C   0  0  0  0  0  0  0  0  0  0  0  0
   -5.6334    2.2968    2.1314 C   0  0  0  0  0  0  0  0  0  0  0  0
   -5.5965    3.6645    2.2029 C   0  0  0  0  0  0  0  0  0  0  0  0
   -4.3894    4.3256    2.3126 C   0  0  0  0  0  0  0  0  0  0  0  0
   -3.2269    3.5588    2.3475 C   0  0  0  0  0  0  0  0  0  0  0  0
   -1.0720    2.5501    0.4521 N   0  0  0  0  0  0  0  0  0  0  0  0
    0.1702    3.1746    0.4815 C   0  0  0  0  0  0  0  0  0  0  0  0
    0.2900    4.2786    1.1348 O   0  0  0  0  0  0  0  0  0  0  0  0
    1.4379    2.7270   -0.1639 C   0  0  2  0  0  0  0  0  0  0  0  0
    2.3556    3.8901   -0.4191 C   0  0  0  0  0  0  0  0  0  0  0  0
    1.8652    4.9775   -1.2950 C   0  0  0  0  0  0  0  0  0  0  0  0
    1.5177    4.5933   -2.7106 C   0  0  0  0  0  0  0  0  0  0  0  0
    2.9275    6.0894   -1.4416 C   0  0  0  0  0  0  0  0  0  0  0  0
    1.2330    1.9160   -1.3358 N   0  0  0  0  0  0  0  0  0  0  0  0
    1.9337    0.7805   -1.7634 C   0  0  0  0  0  0  0  0  0  0  0  0
    2.5864    0.8443   -2.8656 O   0  0  0  0  0  0  0  0  0  0  0  0
    2.0398   -0.5479   -1.1095 C   0  0  2  0  0  0  0  0  0  0  0  0
    3.4539   -0.9610   -0.7889 C   0  0  0  0  0  0  0  0  0  0  0  0
    4.1708   -0.0654    0.1273 C   0  0  0  0  0  0  0  0  0  0  0  0
    4.0743   -0.2346    1.5116 C   0  0  0  0  0  0  0  0  0  0  0  0
    4.7628    0.5938    2.3679 C   0  0  0  0  0  0  0  0  0  0  0  0
    5.5596    1.6049    1.8973 C   0  0  0  0  0  0  0  0  0  0  0  0
    6.2663    2.4559    2.7587 O   0  0  0  0  0  0  0  0  0  0  0  0
    5.6562    1.7737    0.5417 C   0  0  0  0  0  0  0  0  0  0  0  0
    4.9613    0.9371   -0.3285 C   0  0  0  0  0  0  0  0  0  0  0  0
    1.5239   -1.5794   -2.0210 N   0  0  0  0  0  0  0  0  0  0  0  0
    0.6486   -2.6359   -1.7120 C   0  0  0  0  0  0  0  0  0  0  0  0
   -0.3738   -2.6977   -2.5001 O   0  0  0  0  0  0  0  0  0  0  0  0
    0.7130   -3.6380   -0.6808 C   0  0  1  0  0  0  0  0  0  0  0  0
   -0.1281   -3.5460    0.4775 N   0  0  0  0  0  0  0  0  0  0  0  0
   -0.9328   -2.5693    1.0456 C   0  0  0  0  0  0  0  0  0  0  0  0
   -0.3762   -2.0119    2.0954 O   0  0  0  0  0  0  0  0  0  0  0  0
    0.5493   -5.0359   -1.3245 C   0  0  0  0  0  0  0  0  0  0  0  0
    0.6035   -6.1167   -0.3051 C   0  0  0  0  0  0  0  0  0  0  0  0
    1.6789   -5.2476   -2.3055 C   0  0  0  0  0  0  0  0  0  0  0  0
   -5.4519   -4.2567   -0.8874 H   0  0  0  0  0  0  0  0  0  0  0  0
   -4.3845   -5.3739    0.0752 H   0  0  0  0  0  0  0  0  0  0  0  0
   -4.2950   -5.4164   -1.7083 H   0  0  0  0  0  0  0  0  0  0  0  0
   -2.4316   -4.1770   -0.9846 H   0  0  0  0  0  0  0  0  0  0  0  0
   -3.6368   -2.9294   -1.6385 H   0  0  0  0  0  0  0  0  0  0  0  0
   -3.2505   -3.8120    1.3195 H   0  0  0  0  0  0  0  0  0  0  0  0
   -4.7400   -1.8424    1.7180 H   0  0  0  0  0  0  0  0  0  0  0  0
   -5.0198   -1.7734   -0.0418 H   0  0  0  0  0  0  0  0  0  0  0  0
   -5.4639   -3.2825    0.9101 H   0  0  0  0  0  0  0  0  0  0  0  0
   -2.6619   -1.5080    1.7363 H   0  0  0  0  0  0  0  0  0  0  0  0
   -2.5326   -1.2342   -1.1694 H   0  0  0  0  0  0  0  0  0  0  0  0
   -0.4334    0.6692    1.0309 H   0  0  0  0  0  0  0  0  0  0  0  0
   -2.1435    0.5030    2.8465 H   0  0  0  0  0  0  0  0  0  0  0  0
   -1.2162    1.9991    2.8911 H   0  0  0  0  0  0  0  0  0  0  0  0
   -4.5341    0.5000    2.1113 H   0  0  0  0  0  0  0  0  0  0  0  0
   -6.6169    1.7973    2.0439 H   0  0  0  0  0  0  0  0  0  0  0  0
   -6.4800    4.3002    2.1787 H   0  0  0  0  0  0  0  0  0  0  0  0
   -4.3597    5.4120    2.3694 H   0  0  0  0  0  0  0  0  0  0  0  0
   -2.3076    4.1346    2.4339 H   0  0  0  0  0  0  0  0  0  0  0  0
   -1.8920    3.0700    0.0500 H   0  0  0  0  0  0  0  0  0  0  0  0
    1.9450    2.1263    0.6507 H   0  0  0  0  0  0  0  0  0  0  0  0
    3.3019    3.5068   -0.8777 H   0  0  0  0  0  0  0  0  0  0  0  0
    2.6675    4.3147    0.5674 H   0  0  0  0  0  0  0  0  0  0  0  0
    1.0098    5.4923   -0.7927 H   0  0  0  0  0  0  0  0  0  0  0  0
    2.0030    3.6672   -3.0252 H   0  0  0  0  0  0  0  0  0  0  0  0
    0.4108    4.4391   -2.7791 H   0  0  0  0  0  0  0  0  0  0  0  0
    1.7390    5.4270   -3.4274 H   0  0  0  0  0  0  0  0  0  0  0  0
    3.9013    5.6323   -1.6929 H   0  0  0  0  0  0  0  0  0  0  0  0
    2.6381    6.7081   -2.3156 H   0  0  0  0  0  0  0  0  0  0  0  0
    2.9393    6.7417   -0.5628 H   0  0  0  0  0  0  0  0  0  0  0  0
    0.4228    2.2474   -1.9565 H   0  0  0  0  0  0  0  0  0  0  0  0
    1.5078   -0.5537   -0.1399 H   0  0  0  0  0  0  0  0  0  0  0  0
    3.3638   -1.9385   -0.2384 H   0  0  0  0  0  0  0  0  0  0  0  0
    4.0357   -1.2006   -1.7058 H   0  0  0  0  0  0  0  0  0  0  0  0
    3.4399   -1.0387    1.8527 H   0  0  0  0  0  0  0  0  0  0  0  0
    4.6900    0.4641    3.4395 H   0  0  0  0  0  0  0  0  0  0  0  0
    7.2169    2.1990    3.0450 H   0  0  0  0  0  0  0  0  0  0  0  0
    6.2656    2.5486    0.1274 H   0  0  0  0  0  0  0  0  0  0  0  0
    5.0464    1.0743   -1.4110 H   0  0  0  0  0  0  0  0  0  0  0  0
    1.8893   -1.4570   -3.0184 H   0  0  0  0  0  0  0  0  0  0  0  0
    1.8149   -3.7232   -0.3470 H   0  0  0  0  0  0  0  0  0  0  0  0
   -0.0724   -4.4963    1.0254 H   0  0  0  0  0  0  0  0  0  0  0  0
   -0.3939   -5.0298   -1.8552 H   0  0  0  0  0  0  0  0  0  0  0  0
   -0.4129   -6.2995    0.1215 H   0  0  0  0  0  0  0  0  0  0  0  0
    1.3586   -5.9507    0.4922 H   0  0  0  0  0  0  0  0  0  0  0  0
    0.8873   -7.0658   -0.8266 H   0  0  0  0  0  0  0  0  0  0  0  0
    1.6257   -4.6023   -3.1916 H   0  0  0  0  0  0  0  0  0  0  0  0
    2.6707   -5.1102   -1.8418 H   0  0  0  0  0  0  0  0  0  0  0  0
    1.5990   -6.3063   -2.6638 H   0  0  0  0  0  0  0  0  0  0  0  0
  1  2  1  0
  2  3  1  0
  3  4  1  0
  3  5  1  0
  5  6  1  0
  6  7  1  0
  7  8  2  0
  7  9  1  0
  9 10  1  0
 10 11  1  0
 11 12  2  0
 12 13  1  0
 13 14  2  0
 14 15  1  0
 15 16  2  0
  9 17  1  0
 17 18  1  0
 18 19  2  0
 18 20  1  0
 20 21  1  0
 21 22  1  0
 22 23  1  0
 22 24  1  0
 20 25  1  0
 25 26  1  0
 26 27  2  0
 26 28  1  0
 28 29  1  0
 29 30  1  0
 30 31  2  0
 31 32  1  0
 32 33  2  0
 33 34  1  0
 33 35  1  0
 35 36  2  0
 28 37  1  0
 37 38  1  0
 38 39  2  0
 38 40  1  0
 40 41  1  0
 41 42  1  0
 42 43  2  0
 40 44  1  0
 44 45  1  0
 44 46  1  0
 42  5  1  0
 16 11  1  0
 36 30  1  0
  1 47  1  0
  1 48  1  0
  1 49  1  0
  2 50  1  0
  2 51  1  0
  3 52  1  1
  4 53  1  0
  4 54  1  0
  4 55  1  0
  5 56  1  1
  6 57  1  0
  9 58  1  1
 10 59  1  0
 10 60  1  0
 12 61  1  0
 13 62  1  0
 14 63  1  0
 15 64  1  0
 16 65  1  0
 17 66  1  0
 20 67  1  1
 21 68  1  0
 21 69  1  0
 22 70  1  0
 23 71  1  0
 23 72  1  0
 23 73  1  0
 24 74  1  0
 24 75  1  0
 24 76  1  0
 25 77  1  0
 28 78  1  1
 29 79  1  0
 29 80  1  0
 31 81  1  0
 32 82  1  0
 34 83  1  0
 35 84  1  0
 36 85  1  0
 37 86  1  0
 40 87  1  1
 41 88  1  0
 44 89  1  0
 45 90  1  0
 45 91  1  0
 45 92  1  0
 46 93  1  0
 46 94  1  0
 46 95  1  0
M  END
$$$$
[H]Oc1c([H])c([H])c2c(c1[H])C([H])([H])C([H])([H])[C@@]1([H])[C@]2([H])C([H])([H])C([H])([H])[C@]1(O[H])C([H])([H])C([H])([H])[H]
     RDKit          3D

 37 39  0  0  0  0  0  0  0  0999 V2000
   -4.4140   -0.3127    0.0288 C   0  0  0  0  0  0  0  0  0  0  0  0
   -3.2276    0.4033   -0.5791 C   0  0  0  0  0  0  0  0  0  0  0  0
   -1.9964   -0.0717    0.1445 C   0  0  1  0  0  0  0  0  0  0  0  0
   -2.1049    0.2295    1.4929 O   0  0  0  0  0  0  0  0  0  0  0  0
   -1.7895   -1.5669    0.0252 C   0  0  0  0  0  0  0  0  0  0  0  0
   -0.2856   -1.6577    0.3167 C   0  0  0  0  0  0  0  0  0  0  0  0
    0.2369   -0.5954   -0.6212 C   0  0  1  0  0  0  0  0  0  0  0  0
   -0.7287    0.5278   -0.4597 C   0  0  2  0  0  0  0  0  0  0  0  0
   -0.2774    1.6226    0.4467 C   0  0  0  0  0  0  0  0  0  0  0  0
    1.1082    2.1301    0.1167 C   0  0  0  0  0  0  0  0  0  0  0  0
    2.0830    1.0142   -0.0133 C   0  0  0  0  0  0  0  0  0  0  0  0
    3.4195    1.2479    0.2132 C   0  0  0  0  0  0  0  0  0  0  0  0
    4.3447    0.2085    0.0945 C   0  0  0  0  0  0  0  0  0  0  0  0
    5.6633    0.4905    0.3298 O   0  0  0  0  0  0  0  0  0  0  0  0
    3.9178   -1.0551   -0.2505 C   0  0  0  0  0  0  0  0  0  0  0  0
    2.5799   -1.2488   -0.4680 C   0  0  0  0  0  0  0  0  0  0  0  0
    1.6394   -0.2282   -0.3556 C   0  0  0  0  0  0  0  0  0  0  0  0
   -4.2089   -1.3956    0.1641 H   0  0  0  0  0  0  0  0  0  0  0  0
   -5.3449   -0.1731   -0.5736 H   0  0  0  0  0  0  0  0  0  0  0  0
   -4.5971    0.1124    1.0441 H   0  0  0  0  0  0  0  0  0  0  0  0
   -3.1801    0.1658   -1.6581 H   0  0  0  0  0  0  0  0  0  0  0  0
   -3.3475    1.4734   -0.3685 H   0  0  0  0  0  0  0  0  0  0  0  0
   -2.4929   -0.5419    1.9751 H   0  0  0  0  0  0  0  0  0  0  0  0
   -1.8989   -1.9074   -1.0309 H   0  0  0  0  0  0  0  0  0  0  0  0
   -2.3854   -2.1442    0.7302 H   0  0  0  0  0  0  0  0  0  0  0  0
   -0.1391   -1.3037    1.3573 H   0  0  0  0  0  0  0  0  0  0  0  0
    0.1158   -2.6514    0.1239 H   0  0  0  0  0  0  0  0  0  0  0  0
    0.1016   -1.0045   -1.6580 H   0  0  0  0  0  0  0  0  0  0  0  0
   -1.0089    0.9785   -1.4566 H   0  0  0  0  0  0  0  0  0  0  0  0
   -0.3468    1.3391    1.5159 H   0  0  0  0  0  0  0  0  0  0  0  0
   -0.9698    2.4919    0.2880 H   0  0  0  0  0  0  0  0  0  0  0  0
    1.4162    2.7849    0.9630 H   0  0  0  0  0  0  0  0  0  0  0  0
    1.0870    2.7359   -0.8088 H   0  0  0  0  0  0  0  0  0  0  0  0
    3.7327    2.2501    0.4836 H   0  0  0  0  0  0  0  0  0  0  0  0
    6.3881   -0.2103    0.2628 H   0  0  0  0  0  0  0  0  0  0  0  0
    4.6410   -1.8802   -0.3462 H   0  0  0  0  0  0  0  0  0  0  0  0
    2.2693   -2.2577   -0.7396 H   0  0  0  0  0  0  0  0  0  0  0  0
  1  2  1  0
  2  3  1  0
  3  4  1  1
  3  5  1  0
  5  6  1  0
  6  7  1  0
  7  8  1  0
  8  9  1  0
  9 10  1  0
 10 11  1  0
 11 12  2  0
 12 13  1  0
 13 14  1  0
 13 15  2  0
 15 16  1  0
 16 17  2  0
  8  3  1  0
 17 11  1  0
 17  7  1  0
  1 18  1  0
  1 19  1  0
  1 20  1  0
  2 21  1  0
  2 22  1  0
  4 23  1  0
  5 24  1  0
  5 25  1  0
  6 26  1  0
  6 27  1  0
  7 28  1  6
  8 29  1  6
  9 30  1  0
  9 31  1  0
 10 32  1  0
 10 33  1  0
 12 34  1  0
 14 35  1  0
 15 36  1  0
 16 37  1  0
M  END
$$$$
[H]O[C@]1([H])[C@@]([H])(C([H])([H])OP(=O)(O[H])OP(=O)(O[H])OP(=O)(O[H])OP(=O)(O[H])OP(=O)(O[H])O[H])O[C@@]([H])(n2c([H])c([H])c(=O)n([H])c2=O)[C@]1([H])O[H]
     RDKit          3D

 54 55  0  0  0  0  0  0  0  0999 V2000
   -2.8736    1.2178   -3.1236 O   0  0  0  0  0  0  0  0  0  0  0  0
   -2.6343    0.9210   -1.7868 C   0  0  1  0  0  0  0  0  0  0  0  0
   -3.7842    1.5046   -0.9757 C   0  0  1  0  0  0  0  0  0  0  0  0
   -4.2612    2.6818   -1.5314 O   0  0  0  0  0  0  0  0  0  0  0  0
   -4.7855    0.3664   -1.0850 C   0  0  1  0  0  0  0  0  0  0  0  0
   -3.9672   -0.7380   -0.8430 O   0  0  0  0  0  0  0  0  0  0  0  0
   -2.8135   -0.5485   -1.5564 C   0  0  2  0  0  0  0  0  0  0  0  0
   -1.6076   -1.1418   -0.8408 C   0  0  0  0  0  0  0  0  0  0  0  0
   -1.4387   -0.5475    0.4080 O   0  0  0  0  0  0  0  0  0  0  0  0
   -0.1338   -1.1517    1.2467 P   0  0  0  0  0  0  0  0  0  0  0  0
    0.7676    0.1380    1.8768 O   0  0  0  0  0  0  0  0  0  0  0  0
   -0.6092   -1.9804    2.4166 O   0  0  0  0  0  0  0  0  0  0  0  0
    0.8856   -2.0948    0.3107 O   0  0  0  0  0  0  0  0  0  0  0  0
    2.4733   -1.8547    0.8407 P   0  0  0  0  0  0  0  0  0  0  0  0
    2.5582   -2.4344    2.4386 O   0  0  0  0  0  0  0  0  0  0  0  0
    3.4188   -2.6864    0.0060 O   0  0  0  0  0  0  0  0  0  0  0  0
    2.8485   -0.2197    0.7622 O   0  0  0  0  0  0  0  0  0  0  0  0
    4.4951    0.0570    0.5142 P   0  0  0  0  0  0  0  0  0  0  0  0
    5.3058    0.3202    1.9717 O   0  0  0  0  0  0  0  0  0  0  0  0
    4.6100    1.3391   -0.2955 O   0  0  0  0  0  0  0  0  0  0  0  0
    5.2154   -1.1725   -0.3819 O   0  0  0  0  0  0  0  0  0  0  0  0
    6.8801   -1.1520   -0.0519 P   0  0  0  0  0  0  0  0  0  0  0  0
    7.1289   -2.0715    1.3341 O   0  0  0  0  0  0  0  0  0  0  0  0
    7.6589   -1.8078   -1.1875 O   0  0  0  0  0  0  0  0  0  0  0  0
    7.4165    0.4193    0.2349 O   0  0  0  0  0  0  0  0  0  0  0  0
    8.8509    0.7393   -0.5673 P   0  0  0  0  0  0  0  0  0  0  0  0
    8.8138    0.0727   -2.1390 O   0  0  0  0  0  0  0  0  0  0  0  0
    9.0463    2.4308   -0.6585 O   0  0  0  0  0  0  0  0  0  0  0  0
   10.0460    0.1315    0.1338 O   0  0  0  0  0  0  0  0  0  0  0  0
   -5.8413    0.4850   -0.1190 N   0  0  0  0  0  0  0  0  0  0  0  0
   -5.7483    0.0695    1.1499 C   0  0  0  0  0  0  0  0  0  0  0  0
   -6.7949    0.2019    2.0578 C   0  0  0  0  0  0  0  0  0  0  0  0
   -7.9515    0.7913    1.5804 C   0  0  0  0  0  0  0  0  0  0  0  0
   -8.9449    0.9479    2.3388 O   0  0  0  0  0  0  0  0  0  0  0  0
   -8.0394    1.2072    0.3039 N   0  0  0  0  0  0  0  0  0  0  0  0
   -6.9966    1.0528   -0.5258 C   0  0  0  0  0  0  0  0  0  0  0  0
   -7.1370    1.4662   -1.7263 O   0  0  0  0  0  0  0  0  0  0  0  0
   -3.1851    0.4023   -3.6268 H   0  0  0  0  0  0  0  0  0  0  0  0
   -1.6571    1.3047   -1.4370 H   0  0  0  0  0  0  0  0  0  0  0  0
   -3.4162    1.6193    0.0520 H   0  0  0  0  0  0  0  0  0  0  0  0
   -3.9136    3.4436   -0.9939 H   0  0  0  0  0  0  0  0  0  0  0  0
   -5.1372    0.2865   -2.1181 H   0  0  0  0  0  0  0  0  0  0  0  0
   -2.9120   -1.0725   -2.5355 H   0  0  0  0  0  0  0  0  0  0  0  0
   -1.7881   -2.2233   -0.6721 H   0  0  0  0  0  0  0  0  0  0  0  0
   -0.6957   -1.0724   -1.4605 H   0  0  0  0  0  0  0  0  0  0  0  0
    0.6784    0.9418    1.2851 H   0  0  0  0  0  0  0  0  0  0  0  0
    2.6836   -3.4227    2.3877 H   0  0  0  0  0  0  0  0  0  0  0  0
    4.6929    0.0834    2.6967 H   0  0  0  0  0  0  0  0  0  0  0  0
    6.6077   -1.7693    2.1028 H   0  0  0  0  0  0  0  0  0  0  0  0
    8.0946    0.4864   -2.6877 H   0  0  0  0  0  0  0  0  0  0  0  0
    8.3507    2.9029   -0.1353 H   0  0  0  0  0  0  0  0  0  0  0  0
   -4.8205   -0.3876    1.4801 H   0  0  0  0  0  0  0  0  0  0  0  0
   -6.7053   -0.1399    3.0846 H   0  0  0  0  0  0  0  0  0  0  0  0
   -8.9339    1.6573   -0.0463 H   0  0  0  0  0  0  0  0  0  0  0  0
  1  2  1  0
  2  3  1  0
  3  4  1  0
  3  5  1  0
  5  6  1  0
  6  7  1  0
  7  8  1  0
  8  9  1  0
  9 10  1  0
 10 11  1  0
 10 12  2  0
 10 13  1  0
 13 14  1  0
 14 15  1  0
 14 16  2  0
 14 17  1  0
 17 18  1  0
 18 19  1  0
 18 20  2  0
 18 21  1  0
 21 22  1  0
 22 23  1  0
 22 24  2  0
 22 25  1  0
 25 26  1  0
 26 27  1  0
 26 28  1  0
 26 29  2  0
  5 30  1  0
 30 31  1  0
 31 32  2  0
 32 33  1  0
 33 34  2  0
 33 35  1  0
 35 36  1  0
 36 37  2  0
  7  2  1  0
 36 30  1  0
  1 38  1  0
  2 39  1  1
  3 40  1  1
  4 41  1  0
  5 42  1  6
  7 43  1  6
  8 44  1  0
  8 45  1  0
 11 46  1  0
 15 47  1  0
 19 48  1  0
 23 49  1  0
 27 50  1  0
 28 51  1  0
 31 52  1  0
 32 53  1  0
 35 54  1  0
M  END
$$$$
[H]c1c([H])c([H])c2c(C3=C(c4c([H])n([H])c5c([H])c([H])c([H])c([H])c45)C(=O)N([H])C3=O)nc(N3C([H])([H])C([H])([H])N(C([H])([H])[H])C([H])([H])C3([H])[H])nc2c1[H]
     RDKit          3D

 55 60  0  0  0  0  0  0  0  0999 V2000
    7.0044    0.0916   -1.0260 C   0  0  0  0  0  0  0  0  0  0  0  0
    5.6176    0.3391   -0.7120 N   0  0  0  0  0  0  0  0  0  0  0  0
    4.8106   -0.0126   -1.8599 C   0  0  0  0  0  0  0  0  0  0  0  0
    3.4040    0.5641   -1.7827 C   0  0  0  0  0  0  0  0  0  0  0  0
    3.0596    0.8582   -0.3850 N   0  0  0  0  0  0  0  0  0  0  0  0
    3.9878    1.6957    0.3461 C   0  0  0  0  0  0  0  0  0  0  0  0
    5.3335    1.7194   -0.3812 C   0  0  0  0  0  0  0  0  0  0  0  0
    1.8713    0.3286    0.1842 C   0  0  0  0  0  0  0  0  0  0  0  0
    1.0020   -0.3897   -0.5375 N   0  0  0  0  0  0  0  0  0  0  0  0
   -0.1456   -0.9098    0.0116 C   0  0  0  0  0  0  0  0  0  0  0  0
   -1.0470   -1.6915   -0.8277 C   0  0  0  0  0  0  0  0  0  0  0  0
   -2.2815   -1.3556   -1.2331 C   0  0  0  0  0  0  0  0  0  0  0  0
   -2.8186   -2.4390   -2.0540 C   0  0  0  0  0  0  0  0  0  0  0  0
   -3.9450   -2.4786   -2.6078 O   0  0  0  0  0  0  0  0  0  0  0  0
   -1.8249   -3.4721   -2.1261 N   0  0  0  0  0  0  0  0  0  0  0  0
   -0.7216   -3.0077   -1.3634 C   0  0  0  0  0  0  0  0  0  0  0  0
    0.3299   -3.6936   -1.2270 O   0  0  0  0  0  0  0  0  0  0  0  0
   -2.9502   -0.0889   -0.9682 C   0  0  0  0  0  0  0  0  0  0  0  0
   -2.3733    1.1401   -1.1500 C   0  0  0  0  0  0  0  0  0  0  0  0
   -3.2611    2.1153   -0.7909 N   0  0  0  0  0  0  0  0  0  0  0  0
   -4.3982    1.5389   -0.3800 C   0  0  0  0  0  0  0  0  0  0  0  0
   -5.5682    2.0823    0.0836 C   0  0  0  0  0  0  0  0  0  0  0  0
   -6.6069    1.2496    0.4619 C   0  0  0  0  0  0  0  0  0  0  0  0
   -6.4423   -0.1120    0.3645 C   0  0  0  0  0  0  0  0  0  0  0  0
   -5.2499   -0.6375   -0.1078 C   0  0  0  0  0  0  0  0  0  0  0  0
   -4.2185    0.1678   -0.4850 C   0  0  0  0  0  0  0  0  0  0  0  0
   -0.4444   -0.7122    1.3346 C   0  0  0  0  0  0  0  0  0  0  0  0
   -1.5581   -1.2230    1.9566 C   0  0  0  0  0  0  0  0  0  0  0  0
   -1.8366   -1.0289    3.3076 C   0  0  0  0  0  0  0  0  0  0  0  0
   -0.9257   -0.2778    4.0393 C   0  0  0  0  0  0  0  0  0  0  0  0
    0.1896    0.2291    3.4078 C   0  0  0  0  0  0  0  0  0  0  0  0
    0.4772    0.0453    2.0784 C   0  0  0  0  0  0  0  0  0  0  0  0
    1.5628    0.5150    1.4752 N   0  0  0  0  0  0  0  0  0  0  0  0
    7.0930   -0.0404   -2.1197 H   0  0  0  0  0  0  0  0  0  0  0  0
    7.2433   -0.9062   -0.5738 H   0  0  0  0  0  0  0  0  0  0  0  0
    7.6707    0.8976   -0.6463 H   0  0  0  0  0  0  0  0  0  0  0  0
    5.3091    0.4063   -2.7558 H   0  0  0  0  0  0  0  0  0  0  0  0
    4.7881   -1.1209   -1.9347 H   0  0  0  0  0  0  0  0  0  0  0  0
    2.7174   -0.1944   -2.1953 H   0  0  0  0  0  0  0  0  0  0  0  0
    3.2961    1.4765   -2.4084 H   0  0  0  0  0  0  0  0  0  0  0  0
    4.1895    1.3429    1.3659 H   0  0  0  0  0  0  0  0  0  0  0  0
    3.6308    2.7344    0.3928 H   0  0  0  0  0  0  0  0  0  0  0  0
    6.0896    2.2128    0.2278 H   0  0  0  0  0  0  0  0  0  0  0  0
    5.2582    2.2498   -1.3674 H   0  0  0  0  0  0  0  0  0  0  0  0
   -1.9531   -4.3702   -2.6564 H   0  0  0  0  0  0  0  0  0  0  0  0
   -1.3945    1.3731   -1.5105 H   0  0  0  0  0  0  0  0  0  0  0  0
   -3.1153    3.1436   -0.8178 H   0  0  0  0  0  0  0  0  0  0  0  0
   -5.7432    3.1593    0.1784 H   0  0  0  0  0  0  0  0  0  0  0  0
   -7.5507    1.6428    0.8349 H   0  0  0  0  0  0  0  0  0  0  0  0
   -7.2066   -0.8385    0.6413 H   0  0  0  0  0  0  0  0  0  0  0  0
   -5.1336   -1.7245   -0.1670 H   0  0  0  0  0  0  0  0  0  0  0  0
   -2.2466   -1.8309    1.3749 H   0  0  0  0  0  0  0  0  0  0  0  0
   -2.7238   -1.4567    3.7235 H   0  0  0  0  0  0  0  0  0  0  0  0
   -1.1325   -0.1160    5.1002 H   0  0  0  0  0  0  0  0  0  0  0  0
    0.8816    0.8102    4.0001 H   0  0  0  0  0  0  0  0  0  0  0  0
  1  2  1  0
  2  3  1  0
  3  4  1  0
  4  5  1  0
  5  6  1  0
  6  7  1  0
  5  8  1  0
  8  9  2  0
  9 10  1  0
 10 11  1  0
 11 12  2  0
 12 13  1  0
 13 14  2  0
 13 15  1  0
 15 16  1  0
 16 17  2  0
 12 18  1  0
 18 19  2  0
 19 20  1  0
 20 21  1  0
 21 22  2  0
 22 23  1  0
 23 24  2  0
 24 25  1  0
 25 26  2  0
 10 27  2  0
 27 28  1  0
 28 29  2  0
 29 30  1  0
 30 31  2  0
 31 32  1  0
 32 33  2  0
  7  2  1  0
 33  8  1  0
 16 11  1  0
 26 18  1  0
 32 27  1  0
 26 21  1  0
  1 34  1  0
  1 35  1  0
  1 36  1  0
  3 37  1  0
  3 38  1  0
  4 39  1  0
  4 40  1  0
  6 41  1  0
  6 42  1  0
  7 43  1  0
  7 44  1  0
 15 45  1  0
 19 46  1  0
 20 47  1  0
 22 48  1  0
 23 49  1  0
 24 50  1  0
 25 51  1  0
 28 52  1  0
 29 53  1  0
 30 54  1  0
 31 55  1  0
M  END
$$$$
[H]c1c([H])c([H])c(-c2c(-c3c([H])c([H])c([H])c([H])c3OC([H])([H])[H])nc(C3([H])C([H])([H])C([H])([H])N(C(=O)c4c([H])c(OC([H])([H])[H])c(OC([H])([H])[H])c(OC([H])([H])[H])c4[H])C([H])([H])C3([H])[H])n2[H])c([H])c1[H]
     RDKit          3D

 72 76  0  0  0  0  0  0  0  0999 V2000
    3.6881   -1.0507   -2.9350 C   0  0  0  0  0  0  0  0  0  0  0  0
    5.0363   -1.0342   -2.4856 O   0  0  0  0  0  0  0  0  0  0  0  0
    5.2722   -0.5402   -1.1907 C   0  0  0  0  0  0  0  0  0  0  0  0
    4.2252   -0.0859   -0.3929 C   0  0  0  0  0  0  0  0  0  0  0  0
    4.4190    0.3999    0.8628 C   0  0  0  0  0  0  0  0  0  0  0  0
    5.7465    0.4187    1.3218 C   0  0  0  0  0  0  0  0  0  0  0  0
    6.7727   -0.0263    0.5386 C   0  0  0  0  0  0  0  0  0  0  0  0
    8.0729    0.0032    1.0164 O   0  0  0  0  0  0  0  0  0  0  0  0
    8.3481    0.4870    2.2945 C   0  0  0  0  0  0  0  0  0  0  0  0
    6.5640   -0.5192   -0.7409 C   0  0  0  0  0  0  0  0  0  0  0  0
    7.5851   -0.9780   -1.5565 O   0  0  0  0  0  0  0  0  0  0  0  0
    8.2037   -0.0012   -2.4070 C   0  0  0  0  0  0  0  0  0  0  0  0
    3.4183    0.9360    1.7502 C   0  0  0  0  0  0  0  0  0  0  0  0
    3.8103    1.1859    2.9855 O   0  0  0  0  0  0  0  0  0  0  0  0
    2.0802    1.2484    1.5349 N   0  0  0  0  0  0  0  0  0  0  0  0
    1.3096    1.7583    2.7104 C   0  0  0  0  0  0  0  0  0  0  0  0
   -0.0522    1.1171    2.6093 C   0  0  0  0  0  0  0  0  0  0  0  0
   -0.8037    1.8011    1.4562 C   0  0  0  0  0  0  0  0  0  0  0  0
    0.1140    2.0551    0.3137 C   0  0  0  0  0  0  0  0  0  0  0  0
    1.3708    1.1711    0.3143 C   0  0  0  0  0  0  0  0  0  0  0  0
   -1.9438    0.9641    1.0289 C   0  0  0  0  0  0  0  0  0  0  0  0
   -3.2361    1.3317    0.9793 N   0  0  0  0  0  0  0  0  0  0  0  0
   -4.0140    0.3493    0.5570 C   0  0  0  0  0  0  0  0  0  0  0  0
   -3.1562   -0.7330    0.3173 C   0  0  0  0  0  0  0  0  0  0  0  0
   -1.9161   -0.3156    0.6158 N   0  0  0  0  0  0  0  0  0  0  0  0
   -3.5613   -2.0380   -0.1643 C   0  0  0  0  0  0  0  0  0  0  0  0
   -4.1159   -2.1572   -1.4215 C   0  0  0  0  0  0  0  0  0  0  0  0
   -4.5109   -3.4115   -1.8802 C   0  0  0  0  0  0  0  0  0  0  0  0
   -4.3610   -4.5427   -1.1066 C   0  0  0  0  0  0  0  0  0  0  0  0
   -3.8063   -4.4082    0.1448 C   0  0  0  0  0  0  0  0  0  0  0  0
   -3.4113   -3.1682    0.6079 C   0  0  0  0  0  0  0  0  0  0  0  0
   -5.4497    0.2720    0.3453 C   0  0  0  0  0  0  0  0  0  0  0  0
   -6.2515   -0.5765    1.1136 C   0  0  0  0  0  0  0  0  0  0  0  0
   -7.6059   -0.6347    0.8865 C   0  0  0  0  0  0  0  0  0  0  0  0
   -8.1355    0.1595   -0.1081 C   0  0  0  0  0  0  0  0  0  0  0  0
   -7.3304    1.0076   -0.8750 C   0  0  0  0  0  0  0  0  0  0  0  0
   -5.9696    1.0709   -0.6530 C   0  0  0  0  0  0  0  0  0  0  0  0
   -5.1417    1.9076   -1.4034 O   0  0  0  0  0  0  0  0  0  0  0  0
   -5.5615    2.7500   -2.4291 C   0  0  0  0  0  0  0  0  0  0  0  0
    3.0709   -1.6953   -2.2589 H   0  0  0  0  0  0  0  0  0  0  0  0
    3.2949   -0.0151   -2.9008 H   0  0  0  0  0  0  0  0  0  0  0  0
    3.5804   -1.4847   -3.9462 H   0  0  0  0  0  0  0  0  0  0  0  0
    3.2531   -0.1618   -0.8133 H   0  0  0  0  0  0  0  0  0  0  0  0
    5.9336    0.7948    2.3047 H   0  0  0  0  0  0  0  0  0  0  0  0
    7.8420    1.4761    2.4471 H   0  0  0  0  0  0  0  0  0  0  0  0
    9.4489    0.6776    2.4286 H   0  0  0  0  0  0  0  0  0  0  0  0
    8.0368   -0.1975    3.0914 H   0  0  0  0  0  0  0  0  0  0  0  0
    7.9818    1.0346   -2.0672 H   0  0  0  0  0  0  0  0  0  0  0  0
    9.2824   -0.2405   -2.4144 H   0  0  0  0  0  0  0  0  0  0  0  0
    7.8361   -0.1090   -3.4587 H   0  0  0  0  0  0  0  0  0  0  0  0
    1.7788    1.4159    3.6538 H   0  0  0  0  0  0  0  0  0  0  0  0
    1.1726    2.8521    2.6453 H   0  0  0  0  0  0  0  0  0  0  0  0
   -0.6476    1.3085    3.5274 H   0  0  0  0  0  0  0  0  0  0  0  0
   -0.0222    0.0446    2.3819 H   0  0  0  0  0  0  0  0  0  0  0  0
   -1.2268    2.7778    1.8249 H   0  0  0  0  0  0  0  0  0  0  0  0
   -0.3729    1.8584   -0.6785 H   0  0  0  0  0  0  0  0  0  0  0  0
    0.4494    3.0986    0.3190 H   0  0  0  0  0  0  0  0  0  0  0  0
    2.0108    1.6664   -0.4777 H   0  0  0  0  0  0  0  0  0  0  0  0
    1.1228    0.1662   -0.0475 H   0  0  0  0  0  0  0  0  0  0  0  0
   -1.0388   -0.8796    0.5469 H   0  0  0  0  0  0  0  0  0  0  0  0
   -4.2739   -1.3314   -2.0979 H   0  0  0  0  0  0  0  0  0  0  0  0
   -4.9507   -3.5276   -2.8644 H   0  0  0  0  0  0  0  0  0  0  0  0
   -4.6589   -5.5332   -1.4389 H   0  0  0  0  0  0  0  0  0  0  0  0
   -3.6687   -5.2588    0.7927 H   0  0  0  0  0  0  0  0  0  0  0  0
   -2.9816   -3.1135    1.5973 H   0  0  0  0  0  0  0  0  0  0  0  0
   -5.7738   -1.1852    1.8874 H   0  0  0  0  0  0  0  0  0  0  0  0
   -8.2563   -1.2868    1.4686 H   0  0  0  0  0  0  0  0  0  0  0  0
   -9.1914    0.0962   -0.2686 H   0  0  0  0  0  0  0  0  0  0  0  0
   -7.7644    1.6246   -1.6521 H   0  0  0  0  0  0  0  0  0  0  0  0
   -4.6926    2.9198   -3.1312 H   0  0  0  0  0  0  0  0  0  0  0  0
   -5.8649    3.7243   -1.9565 H   0  0  0  0  0  0  0  0  0  0  0  0
   -6.4123    2.3103   -2.9995 H   0  0  0  0  0  0  0  0  0  0  0  0
  1  2  1  0
  2  3  1  0
  3  4  2  0
  4  5  1  0
  5  6  2  0
  6  7  1  0
  7  8  1  0
  8  9  1  0
  7 10  2  0
 10 11  1  0
 11 12  1  0
  5 13  1  0
 13 14  2  0
 13 15  1  0
 15 16  1  0
 16 17  1  0
 17 18  1  0
 18 19  1  0
 19 20  1  0
 18 21  1  0
 21 22  2  0
 22 23  1  0
 23 24  2  0
 24 25  1  0
 24 26  1  0
 26 27  2  0
 27 28  1  0
 28 29  2  0
 29 30  1  0
 30 31  2  0
 23 32  1  0
 32 33  2  0
 33 34  1  0
 34 35  2  0
 35 36  1  0
 36 37  2  0
 37 38  1  0
 38 39  1  0
 10  3  1  0
 20 15  1  0
 25 21  1  0
 31 26  1  0
 37 32  1  0
  1 40  1  0
  1 41  1  0
  1 42  1  0
  4 43  1  0
  6 44  1  0
  9 45  1  0
  9 46  1  0
  9 47  1  0
 12 48  1  0
 12 49  1  0
 12 50  1  0
 16 51  1  0
 16 52  1  0
 17 53  1  0
 17 54  1  0
 18 55  1  0
 19 56  1  0
 19 57  1  0
 20 58  1  0
 20 59  1  0
 25 60  1  0
 27 61  1  0
 28 62  1  0
 29 63  1  0
 30 64  1  0
 31 65  1  0
 33 66  1  0
 34 67  1  0
 35 68  1  0
 36 69  1  0
 39 70  1  0
 39 71  1  0
 39 72  1  0
M  END
$$$$
[H]O[C@]1([H])C([H])([H])C([H])([H])C([H])([H])C([H])([H])[C@@]1([H])N1C([H])([H])C([H])([H])C([H])(c2c([H])c([H])c([H])c([H])c2[H])C([H])([H])C1([H])[H]
     RDKit          3D

 44 46  0  0  0  0  0  0  0  0999 V2000
    3.7885    1.6844   -1.4090 O   0  0  0  0  0  0  0  0  0  0  0  0
    2.8213    1.2652   -0.4640 C   0  0  2  0  0  0  0  0  0  0  0  0
    3.5305    1.1354    0.8396 C   0  0  0  0  0  0  0  0  0  0  0  0
    4.5515    0.0069    0.6627 C   0  0  0  0  0  0  0  0  0  0  0  0
    3.7369   -1.2462    0.5253 C   0  0  0  0  0  0  0  0  0  0  0  0
    2.7939   -1.2552   -0.6070 C   0  0  0  0  0  0  0  0  0  0  0  0
    2.1313    0.0314   -0.9444 C   0  0  1  0  0  0  0  0  0  0  0  0
    0.7148   -0.0049   -0.6508 N   0  0  0  0  0  0  0  0  0  0  0  0
   -0.0374    1.0430   -1.2870 C   0  0  0  0  0  0  0  0  0  0  0  0
   -1.4893    0.7022   -1.1956 C   0  0  0  0  0  0  0  0  0  0  0  0
   -1.8120   -0.5335   -0.4410 C   0  0  0  0  0  0  0  0  0  0  0  0
   -0.9896   -0.7501    0.8037 C   0  0  0  0  0  0  0  0  0  0  0  0
    0.3701   -0.0471    0.7225 C   0  0  0  0  0  0  0  0  0  0  0  0
   -3.2262   -0.4348    0.0082 C   0  0  0  0  0  0  0  0  0  0  0  0
   -3.6060    0.6015    0.8598 C   0  0  0  0  0  0  0  0  0  0  0  0
   -4.8981    0.7355    1.3044 C   0  0  0  0  0  0  0  0  0  0  0  0
   -5.8645   -0.1550    0.9206 C   0  0  0  0  0  0  0  0  0  0  0  0
   -5.5120   -1.1941    0.0745 C   0  0  0  0  0  0  0  0  0  0  0  0
   -4.2038   -1.3276   -0.3742 C   0  0  0  0  0  0  0  0  0  0  0  0
    3.9842    0.9176   -2.0282 H   0  0  0  0  0  0  0  0  0  0  0  0
    2.1139    2.1097   -0.3857 H   0  0  0  0  0  0  0  0  0  0  0  0
    4.1469    2.0552    0.9773 H   0  0  0  0  0  0  0  0  0  0  0  0
    2.8939    0.9411    1.7060 H   0  0  0  0  0  0  0  0  0  0  0  0
    5.1932   -0.0881    1.5614 H   0  0  0  0  0  0  0  0  0  0  0  0
    5.1372    0.1865   -0.2464 H   0  0  0  0  0  0  0  0  0  0  0  0
    4.4780   -2.0909    0.4079 H   0  0  0  0  0  0  0  0  0  0  0  0
    3.2795   -1.4393    1.5289 H   0  0  0  0  0  0  0  0  0  0  0  0
    3.3245   -1.7283   -1.4898 H   0  0  0  0  0  0  0  0  0  0  0  0
    1.9846   -2.0090   -0.3693 H   0  0  0  0  0  0  0  0  0  0  0  0
    2.1622    0.1073   -2.0789 H   0  0  0  0  0  0  0  0  0  0  0  0
    0.3116    1.2796   -2.3038 H   0  0  0  0  0  0  0  0  0  0  0  0
    0.1064    1.9832   -0.6867 H   0  0  0  0  0  0  0  0  0  0  0  0
   -2.1035    1.5786   -0.8327 H   0  0  0  0  0  0  0  0  0  0  0  0
   -1.8572    0.5495   -2.2536 H   0  0  0  0  0  0  0  0  0  0  0  0
   -1.7637   -1.4301   -1.1156 H   0  0  0  0  0  0  0  0  0  0  0  0
   -0.7569   -1.8338    0.8588 H   0  0  0  0  0  0  0  0  0  0  0  0
   -1.5313   -0.4882    1.7324 H   0  0  0  0  0  0  0  0  0  0  0  0
    0.1934    0.9780    1.1593 H   0  0  0  0  0  0  0  0  0  0  0  0
    1.0521   -0.5637    1.3915 H   0  0  0  0  0  0  0  0  0  0  0  0
   -2.8513    1.3329    1.1847 H   0  0  0  0  0  0  0  0  0  0  0  0
   -5.1712    1.5407    1.9599 H   0  0  0  0  0  0  0  0  0  0  0  0
   -6.9032   -0.0945    1.2416 H   0  0  0  0  0  0  0  0  0  0  0  0
   -6.2682   -1.9086   -0.2385 H   0  0  0  0  0  0  0  0  0  0  0  0
   -3.9547   -2.1425   -1.0286 H   0  0  0  0  0  0  0  0  0  0  0  0
  1  2  1  0
  2  3  1  0
  3  4  1  0
  4  5  1  0
  5  6  1  0
  6  7  1  0
  7  8  1  0
  8  9  1  0
  9 10  1  0
 10 11  1  0
 11 12  1  0
 12 13  1  0
 11 14  1  0
 14 15  2  0
 15 16  1  0
 16 17  2  0
 17 18  1  0
 18 19  2  0
  7  2  1  0
 13  8  1  0
 19 14  1  0
  1 20  1  0
  2 21  1  1
  3 22  1  0
  3 23  1  0
  4 24  1  0
  4 25  1  0
  5 26  1  0
  5 27  1  0
  6 28  1  0
  6 29  1  0
  7 30  1  6
  9 31  1  0
  9 32  1  0
 10 33  1  0
 10 34  1  0
 11 35  1  0
 12 36  1  0
 12 37  1  0
 13 38  1  0
 13 39  1  0
 15 40  1  0
 16 41  1  0
 17 42  1  0
 18 43  1  0
 19 44  1  0
M  END
$$$$
[H]O[C@@]1([H])C([H])=C(C(=O)N([H])[C@]2([H])[C@]([H])(O[H])[C@@]([H])(O[H])[C@]2([H])O[H])O[C@]([H])(O[C@@]([H])(n2c([H])c([H])c(=O)n([H])c2=O)[C@@]2([H])O[C@@]([H])(C(=O)N([H])[H])[C@]([H])(O[H])[C@]2([H])OC([H])([H])[H])[C@@]1([H])O[H]
     RDKit          3D

 67 70  0  0  0  0  0  0  0  0999 V2000
   -1.0990   -2.6278   -3.3261 C   0  0  0  0  0  0  0  0  0  0  0  0
   -2.2451   -1.9795   -2.9128 O   0  0  0  0  0  0  0  0  0  0  0  0
   -2.0879   -1.1900   -1.8013 C   0  0  1  0  0  0  0  0  0  0  0  0
   -2.4252    0.2600   -2.0362 C   0  0  1  0  0  0  0  0  0  0  0  0
   -2.2586    0.6833   -3.3271 O   0  0  0  0  0  0  0  0  0  0  0  0
   -3.8616    0.3263   -1.5625 C   0  0  1  0  0  0  0  0  0  0  0  0
   -3.8958   -0.5134   -0.4750 O   0  0  0  0  0  0  0  0  0  0  0  0
   -2.9672   -1.5266   -0.6539 C   0  0  2  0  0  0  0  0  0  0  0  0
   -2.2407   -1.8008    0.6437 C   0  0  1  0  0  0  0  0  0  0  0  0
   -1.6003   -0.6837    1.1074 O   0  0  0  0  0  0  0  0  0  0  0  0
   -0.2327   -0.7184    1.1261 C   0  0  1  0  0  0  0  0  0  0  0  0
    0.3775    0.3394    0.3953 O   0  0  0  0  0  0  0  0  0  0  0  0
    1.7313    0.6479    0.6073 C   0  0  0  0  0  0  0  0  0  0  0  0
    2.3723    0.2172    1.6690 C   0  0  0  0  0  0  0  0  0  0  0  0
    1.7283   -0.6119    2.7047 C   0  0  2  0  0  0  0  0  0  0  0  0
    2.0830   -1.9625    2.5796 O   0  0  0  0  0  0  0  0  0  0  0  0
    0.2371   -0.4991    2.5710 C   0  0  2  0  0  0  0  0  0  0  0  0
   -0.3321   -1.4122    3.4452 O   0  0  0  0  0  0  0  0  0  0  0  0
    2.4155    1.4633   -0.3850 C   0  0  0  0  0  0  0  0  0  0  0  0
    1.7733    1.8763   -1.4185 O   0  0  0  0  0  0  0  0  0  0  0  0
    3.7565    1.8457   -0.3032 N   0  0  0  0  0  0  0  0  0  0  0  0
    4.3739    2.6614   -1.3352 C   0  0  2  0  0  0  0  0  0  0  0  0
    5.6801    2.0619   -1.8561 C   0  0  2  0  0  0  0  0  0  0  0  0
    6.2511    1.2636   -0.8447 O   0  0  0  0  0  0  0  0  0  0  0  0
    6.2470    3.4663   -1.8580 C   0  0  1  0  0  0  0  0  0  0  0  0
    6.0605    4.0166   -3.1334 O   0  0  0  0  0  0  0  0  0  0  0  0
    5.1739    3.8352   -0.8438 C   0  0  2  0  0  0  0  0  0  0  0  0
    5.6937    3.6788    0.4462 O   0  0  0  0  0  0  0  0  0  0  0  0
   -3.1091   -2.4384    1.6081 N   0  0  0  0  0  0  0  0  0  0  0  0
   -3.2199   -3.7768    1.6572 C   0  0  0  0  0  0  0  0  0  0  0  0
   -4.0650   -4.3783    2.5907 C   0  0  0  0  0  0  0  0  0  0  0  0
   -4.7698   -3.5524    3.4464 C   0  0  0  0  0  0  0  0  0  0  0  0
   -5.5378   -4.1069    4.2942 O   0  0  0  0  0  0  0  0  0  0  0  0
   -4.6454   -2.2079    3.3823 N   0  0  0  0  0  0  0  0  0  0  0  0
   -3.8120   -1.6796    2.4581 C   0  0  0  0  0  0  0  0  0  0  0  0
   -3.6922   -0.4369    2.3940 O   0  0  0  0  0  0  0  0  0  0  0  0
   -4.2625    1.6934   -1.2144 C   0  0  0  0  0  0  0  0  0  0  0  0
   -4.3053    2.7326   -2.1833 N   0  0  0  0  0  0  0  0  0  0  0  0
   -4.5812    1.9805   -0.0383 O   0  0  0  0  0  0  0  0  0  0  0  0
   -1.2249   -3.2505   -4.2070 H   0  0  0  0  0  0  0  0  0  0  0  0
   -0.3739   -1.8112   -3.6224 H   0  0  0  0  0  0  0  0  0  0  0  0
   -0.5722   -3.1901   -2.5230 H   0  0  0  0  0  0  0  0  0  0  0  0
   -1.0337   -1.2708   -1.4887 H   0  0  0  0  0  0  0  0  0  0  0  0
   -1.8391    0.9232   -1.3684 H   0  0  0  0  0  0  0  0  0  0  0  0
   -1.6785    1.4735   -3.4088 H   0  0  0  0  0  0  0  0  0  0  0  0
   -4.5785   -0.0587   -2.3148 H   0  0  0  0  0  0  0  0  0  0  0  0
   -3.5644   -2.4252   -0.9467 H   0  0  0  0  0  0  0  0  0  0  0  0
   -1.4166   -2.5286    0.3633 H   0  0  0  0  0  0  0  0  0  0  0  0
    0.2061   -1.6644    0.7369 H   0  0  0  0  0  0  0  0  0  0  0  0
    3.4069    0.4673    1.8082 H   0  0  0  0  0  0  0  0  0  0  0  0
    1.9985   -0.2918    3.7149 H   0  0  0  0  0  0  0  0  0  0  0  0
    3.0203   -2.1109    2.8579 H   0  0  0  0  0  0  0  0  0  0  0  0
   -0.0416    0.5406    2.8248 H   0  0  0  0  0  0  0  0  0  0  0  0
   -0.0812   -1.1156    4.3552 H   0  0  0  0  0  0  0  0  0  0  0  0
    4.3783    1.5746    0.4852 H   0  0  0  0  0  0  0  0  0  0  0  0
    3.7408    2.9531   -2.1722 H   0  0  0  0  0  0  0  0  0  0  0  0
    5.6251    1.5810   -2.8323 H   0  0  0  0  0  0  0  0  0  0  0  0
    7.2000    1.5590   -0.7297 H   0  0  0  0  0  0  0  0  0  0  0  0
    7.2628    3.5788   -1.4739 H   0  0  0  0  0  0  0  0  0  0  0  0
    5.1343    3.9840   -3.4231 H   0  0  0  0  0  0  0  0  0  0  0  0
    4.7745    4.8328   -1.0623 H   0  0  0  0  0  0  0  0  0  0  0  0
    5.6445    4.5238    0.9458 H   0  0  0  0  0  0  0  0  0  0  0  0
   -2.6724   -4.4366    0.9914 H   0  0  0  0  0  0  0  0  0  0  0  0
   -4.1432   -5.4566    2.6170 H   0  0  0  0  0  0  0  0  0  0  0  0
   -5.1847   -1.6005    4.0361 H   0  0  0  0  0  0  0  0  0  0  0  0
   -3.6138    2.8333   -2.9558 H   0  0  0  0  0  0  0  0  0  0  0  0
   -5.0820    3.4399   -2.1140 H   0  0  0  0  0  0  0  0  0  0  0  0
  1  2  1  0
  2  3  1  0
  3  4  1  0
  4  5  1  0
  4  6  1  0
  6  7  1  0
  7  8  1  0
  8  9  1  0
  9 10  1  0
 10 11  1  0
 11 12  1  0
 12 13  1  0
 13 14  2  0
 14 15  1  0
 15 16  1  0
 15 17  1  0
 17 18  1  0
 13 19  1  0
 19 20  2  0
 19 21  1  0
 21 22  1  0
 22 23  1  0
 23 24  1  0
 23 25  1  0
 25 26  1  0
 25 27  1  0
 27 28  1  0
  9 29  1  0
 29 30  1  0
 30 31  2  0
 31 32  1  0
 32 33  2  0
 32 34  1  0
 34 35  1  0
 35 36  2  0
  6 37  1  0
 37 38  1  0
 37 39  2  0
  8  3  1  0
 17 11  1  0
 27 22  1  0
 35 29  1  0
  1 40  1  0
  1 41  1  0
  1 42  1  0
  3 43  1  1
  4 44  1  1
  5 45  1  0
  6 46  1  6
  8 47  1  6
  9 48  1  6
 11 49  1  6
 14 50  1  0
 15 51  1  1
 16 52  1  0
 17 53  1  1
 18 54  1  0
 21 55  1  0
 22 56  1  6
 23 57  1  6
 24 58  1  0
 25 59  1  1
 26 60  1  0
 27 61  1  6
 28 62  1  0
 30 63  1  0
 31 64  1  0
 34 65  1  0
 38 66  1  0
 38 67  1  0
M  END
$$$$
[H]c1nc2c([H])c(OC([H])([H])C([H])([H])C([H])([H])N3C([H])([H])C([H])([H])C([H])([H])C([H])([H])C3([H])[H])c(OC([H])([H])[H])c([H])c2c(Oc2c([H])c([H])c(N([H])C(=O)C3(C(=O)N([H])c4c([H])c([H])c(F)c([H])c4[H])C([H])([H])C3([H])[H])c([H])c2F)c1[H]
     RDKit          3D

 82 87  0  0  0  0  0  0  0  0999 V2000
   -1.9209   -1.3333    3.0451 C   0  0  0  0  0  0  0  0  0  0  0  0
   -2.9832   -1.7818    2.2281 O   0  0  0  0  0  0  0  0  0  0  0  0
   -2.8786   -1.6448    0.8580 C   0  0  0  0  0  0  0  0  0  0  0  0
   -1.7316   -1.0680    0.2922 C   0  0  0  0  0  0  0  0  0  0  0  0
   -1.6665   -0.9491   -1.0819 C   0  0  0  0  0  0  0  0  0  0  0  0
   -0.4802   -0.3771   -1.6175 C   0  0  0  0  0  0  0  0  0  0  0  0
    0.4285   -0.0147   -0.7289 O   0  0  0  0  0  0  0  0  0  0  0  0
    1.6944    0.3930   -0.6360 C   0  0  0  0  0  0  0  0  0  0  0  0
    2.6188    0.4301   -1.6541 C   0  0  0  0  0  0  0  0  0  0  0  0
    3.9313    0.8745   -1.4820 C   0  0  0  0  0  0  0  0  0  0  0  0
    4.3763    1.3085   -0.2501 C   0  0  0  0  0  0  0  0  0  0  0  0
    5.7351    1.7029   -0.0852 N   0  0  0  0  0  0  0  0  0  0  0  0
    6.2268    2.6374    0.8165 C   0  0  0  0  0  0  0  0  0  0  0  0
    5.4560    3.2770    1.5746 O   0  0  0  0  0  0  0  0  0  0  0  0
    7.6644    2.9391    0.9238 C   0  0  0  0  0  0  0  0  0  0  0  0
    8.1038    4.3298    0.5798 C   0  0  0  0  0  0  0  0  0  0  0  0
    8.0915    3.9269    1.9833 C   0  0  0  0  0  0  0  0  0  0  0  0
    8.6209    1.8678    0.5623 C   0  0  0  0  0  0  0  0  0  0  0  0
    9.7692    2.2424    0.1832 O   0  0  0  0  0  0  0  0  0  0  0  0
    8.2825    0.5106    0.6434 N   0  0  0  0  0  0  0  0  0  0  0  0
    9.0724   -0.5986    0.3022 C   0  0  0  0  0  0  0  0  0  0  0  0
   10.2084   -0.5630   -0.4349 C   0  0  0  0  0  0  0  0  0  0  0  0
   10.9465   -1.7016   -0.7351 C   0  0  0  0  0  0  0  0  0  0  0  0
   10.4906   -2.9056   -0.2570 C   0  0  0  0  0  0  0  0  0  0  0  0
   11.1446   -4.0908   -0.4983 F   0  0  0  0  0  0  0  0  0  0  0  0
    9.3451   -2.9715    0.4910 C   0  0  0  0  0  0  0  0  0  0  0  0
    8.6479   -1.8328    0.7652 C   0  0  0  0  0  0  0  0  0  0  0  0
    3.4672    1.2778    0.7745 C   0  0  0  0  0  0  0  0  0  0  0  0
    2.1764    0.8442    0.6174 C   0  0  0  0  0  0  0  0  0  0  0  0
    1.3271    0.8450    1.6680 F   0  0  0  0  0  0  0  0  0  0  0  0
   -0.4426   -0.2893   -2.9832 C   0  0  0  0  0  0  0  0  0  0  0  0
   -1.5048   -0.7395   -3.7466 C   0  0  0  0  0  0  0  0  0  0  0  0
   -2.6043   -1.2729   -3.2053 N   0  0  0  0  0  0  0  0  0  0  0  0
   -2.6929   -1.3815   -1.8816 C   0  0  0  0  0  0  0  0  0  0  0  0
   -3.8279   -1.9550   -1.2977 C   0  0  0  0  0  0  0  0  0  0  0  0
   -3.9356   -2.0931    0.0657 C   0  0  0  0  0  0  0  0  0  0  0  0
   -4.9932   -2.6329    0.7070 O   0  0  0  0  0  0  0  0  0  0  0  0
   -6.1911   -3.1449    0.2709 C   0  0  0  0  0  0  0  0  0  0  0  0
   -7.1260   -2.1894   -0.4224 C   0  0  0  0  0  0  0  0  0  0  0  0
   -7.4688   -1.0934    0.5689 C   0  0  0  0  0  0  0  0  0  0  0  0
   -8.3291   -0.1089    0.0669 N   0  0  0  0  0  0  0  0  0  0  0  0
   -9.6473   -0.4624   -0.2620 C   0  0  0  0  0  0  0  0  0  0  0  0
  -10.5141    0.6511   -0.7176 C   0  0  0  0  0  0  0  0  0  0  0  0
  -10.0079    2.0229   -0.4173 C   0  0  0  0  0  0  0  0  0  0  0  0
   -8.5212    2.1759   -0.4928 C   0  0  0  0  0  0  0  0  0  0  0  0
   -7.8145    0.8762   -0.8225 C   0  0  0  0  0  0  0  0  0  0  0  0
   -0.9571   -1.8306    2.8366 H   0  0  0  0  0  0  0  0  0  0  0  0
   -2.2135   -1.4052    4.1324 H   0  0  0  0  0  0  0  0  0  0  0  0
   -1.7526   -0.2336    2.8951 H   0  0  0  0  0  0  0  0  0  0  0  0
   -0.9452   -0.7395    0.9402 H   0  0  0  0  0  0  0  0  0  0  0  0
    2.3175    0.0736   -2.6345 H   0  0  0  0  0  0  0  0  0  0  0  0
    4.6112    0.8751   -2.3332 H   0  0  0  0  0  0  0  0  0  0  0  0
    6.4199    1.2451   -0.7758 H   0  0  0  0  0  0  0  0  0  0  0  0
    9.0682    4.4257    0.0505 H   0  0  0  0  0  0  0  0  0  0  0  0
    7.3407    5.0399    0.2003 H   0  0  0  0  0  0  0  0  0  0  0  0
    7.3090    4.4067    2.6322 H   0  0  0  0  0  0  0  0  0  0  0  0
    8.9944    3.6337    2.5414 H   0  0  0  0  0  0  0  0  0  0  0  0
    7.3081    0.3234    1.0716 H   0  0  0  0  0  0  0  0  0  0  0  0
   10.5935    0.3593   -0.8357 H   0  0  0  0  0  0  0  0  0  0  0  0
   11.8477   -1.6521   -1.3218 H   0  0  0  0  0  0  0  0  0  0  0  0
    8.9858   -3.9396    0.8697 H   0  0  0  0  0  0  0  0  0  0  0  0
    7.7562   -1.9196    1.3508 H   0  0  0  0  0  0  0  0  0  0  0  0
    3.8168    1.6119    1.7731 H   0  0  0  0  0  0  0  0  0  0  0  0
    0.4064    0.1533   -3.4882 H   0  0  0  0  0  0  0  0  0  0  0  0
   -1.4365   -0.6527   -4.8218 H   0  0  0  0  0  0  0  0  0  0  0  0
   -4.5800   -2.2798   -1.9924 H   0  0  0  0  0  0  0  0  0  0  0  0
   -6.7356   -3.7231    1.0795 H   0  0  0  0  0  0  0  0  0  0  0  0
   -5.9359   -3.9712   -0.4667 H   0  0  0  0  0  0  0  0  0  0  0  0
   -8.0475   -2.8031   -0.6508 H   0  0  0  0  0  0  0  0  0  0  0  0
   -6.6975   -1.7771   -1.3246 H   0  0  0  0  0  0  0  0  0  0  0  0
   -6.4817   -0.5989    0.7986 H   0  0  0  0  0  0  0  0  0  0  0  0
   -7.8063   -1.5547    1.4933 H   0  0  0  0  0  0  0  0  0  0  0  0
   -9.6087   -1.2635   -1.0545 H   0  0  0  0  0  0  0  0  0  0  0  0
  -10.1067   -0.9890    0.6209 H   0  0  0  0  0  0  0  0  0  0  0  0
  -10.6583    0.5452   -1.8287 H   0  0  0  0  0  0  0  0  0  0  0  0
  -11.5245    0.5130   -0.2789 H   0  0  0  0  0  0  0  0  0  0  0  0
  -10.4700    2.7394   -1.1272 H   0  0  0  0  0  0  0  0  0  0  0  0
  -10.3387    2.3502    0.5933 H   0  0  0  0  0  0  0  0  0  0  0  0
   -8.2030    2.9114   -1.2614 H   0  0  0  0  0  0  0  0  0  0  0  0
   -8.0896    2.5269    0.4664 H   0  0  0  0  0  0  0  0  0  0  0  0
   -6.7254    1.0838   -0.6488 H   0  0  0  0  0  0  0  0  0  0  0  0
   -8.0046    0.5785   -1.8753 H   0  0  0  0  0  0  0  0  0  0  0  0
  1  2  1  0
  2  3  1  0
  3  4  2  0
  4  5  1  0
  5  6  2  0
  6  7  1  0
  7  8  1  0
  8  9  2  0
  9 10  1  0
 10 11  2  0
 11 12  1  0
 12 13  1  0
 13 14  2  0
 13 15  1  0
 15 16  1  0
 16 17  1  0
 15 18  1  0
 18 19  2  0
 18 20  1  0
 20 21  1  0
 21 22  2  0
 22 23  1  0
 23 24  2  0
 24 25  1  0
 24 26  1  0
 26 27  2  0
 11 28  1  0
 28 29  2  0
 29 30  1  0
  6 31  1  0
 31 32  2  0
 32 33  1  0
 33 34  2  0
 34 35  1  0
 35 36  2  0
 36 37  1  0
 37 38  1  0
 38 39  1  0
 39 40  1  0
 40 41  1  0
 41 42  1  0
 42 43  1  0
 43 44  1  0
 44 45  1  0
 45 46  1  0
 36  3  1  0
 46 41  1  0
 34  5  1  0
 29  8  1  0
 17 15  1  0
 27 21  1  0
  1 47  1  0
  1 48  1  0
  1 49  1  0
  4 50  1  0
  9 51  1  0
 10 52  1  0
 12 53  1  0
 16 54  1  0
 16 55  1  0
 17 56  1  0
 17 57  1  0
 20 58  1  0
 22 59  1  0
 23 60  1  0
 26 61  1  0
 27 62  1  0
 28 63  1  0
 31 64  1  0
 32 65  1  0
 35 66  1  0
 38 67  1  0
 38 68  1  0
 39 69  1  0
 39 70  1  0
 40 71  1  0
 40 72  1  0
 42 73  1  0
 42 74  1  0
 43 75  1  0
 43 76  1  0
 44 77  1  0
 44 78  1  0
 45 79  1  0
 45 80  1  0
 46 81  1  0
 46 82  1  0
M  END
$$$$
[H]c1c([H])c([H])c(N2C([H])([H])C([H])([H])N(c3nc4c(c([H])nn4-c4c([H])c([H])c(F)c([H])c4[H])c(=O)n3[H])C([H])([H])C2([H])[H])c(OC([H])([H])[H])c1[H]
     RDKit          3D

 52 56  0  0  0  0  0  0  0  0999 V2000
   -4.9129    3.4875   -1.8368 C   0  0  0  0  0  0  0  0  0  0  0  0
   -4.3070    2.3973   -1.2255 O   0  0  0  0  0  0  0  0  0  0  0  0
   -4.9099    1.3013   -0.6774 C   0  0  0  0  0  0  0  0  0  0  0  0
   -6.2882    1.2080   -0.7153 C   0  0  0  0  0  0  0  0  0  0  0  0
   -6.9296    0.1045   -0.1689 C   0  0  0  0  0  0  0  0  0  0  0  0
   -6.1918   -0.8841    0.4033 C   0  0  0  0  0  0  0  0  0  0  0  0
   -4.8164   -0.7782    0.4345 C   0  0  0  0  0  0  0  0  0  0  0  0
   -4.1485    0.3038   -0.0979 C   0  0  0  0  0  0  0  0  0  0  0  0
   -2.6981    0.3911   -0.0234 N   0  0  0  0  0  0  0  0  0  0  0  0
   -1.9159    0.5610   -1.2162 C   0  0  0  0  0  0  0  0  0  0  0  0
   -0.7338   -0.3862   -1.3082 C   0  0  0  0  0  0  0  0  0  0  0  0
   -0.0891   -0.4935   -0.0100 N   0  0  0  0  0  0  0  0  0  0  0  0
   -0.5869    0.2148    1.1395 C   0  0  0  0  0  0  0  0  0  0  0  0
   -2.0524    0.3037    1.2648 C   0  0  0  0  0  0  0  0  0  0  0  0
    1.0565   -1.3040    0.1166 C   0  0  0  0  0  0  0  0  0  0  0  0
    2.3176   -0.7859    0.0860 N   0  0  0  0  0  0  0  0  0  0  0  0
    3.3436   -1.6522    0.2106 C   0  0  0  0  0  0  0  0  0  0  0  0
    4.6988   -1.4672    0.2243 N   0  0  0  0  0  0  0  0  0  0  0  0
    5.2994   -2.6350    0.3741 N   0  0  0  0  0  0  0  0  0  0  0  0
    4.3960   -3.6029    0.4623 C   0  0  0  0  0  0  0  0  0  0  0  0
    3.1554   -3.0093    0.3629 C   0  0  0  0  0  0  0  0  0  0  0  0
    1.8588   -3.5068    0.3901 C   0  0  0  0  0  0  0  0  0  0  0  0
    1.7145   -4.7467    0.5306 O   0  0  0  0  0  0  0  0  0  0  0  0
    0.8574   -2.6250    0.2647 N   0  0  0  0  0  0  0  0  0  0  0  0
    5.4013   -0.2385    0.1106 C   0  0  0  0  0  0  0  0  0  0  0  0
    5.2664    0.6236   -0.9553 C   0  0  0  0  0  0  0  0  0  0  0  0
    5.9867    1.8198   -1.0080 C   0  0  0  0  0  0  0  0  0  0  0  0
    6.8448    2.1473    0.0166 C   0  0  0  0  0  0  0  0  0  0  0  0
    7.5563    3.3025   -0.0092 F   0  0  0  0  0  0  0  0  0  0  0  0
    6.9922    1.2943    1.0937 C   0  0  0  0  0  0  0  0  0  0  0  0
    6.2641    0.0953    1.1363 C   0  0  0  0  0  0  0  0  0  0  0  0
   -4.3049    4.4181   -1.7416 H   0  0  0  0  0  0  0  0  0  0  0  0
   -5.9164    3.7027   -1.4268 H   0  0  0  0  0  0  0  0  0  0  0  0
   -5.0381    3.3052   -2.9457 H   0  0  0  0  0  0  0  0  0  0  0  0
   -6.9228    1.9602   -1.1583 H   0  0  0  0  0  0  0  0  0  0  0  0
   -8.0226   -0.0006   -0.1819 H   0  0  0  0  0  0  0  0  0  0  0  0
   -6.6997   -1.7310    0.8220 H   0  0  0  0  0  0  0  0  0  0  0  0
   -4.2550   -1.5575    0.8855 H   0  0  0  0  0  0  0  0  0  0  0  0
   -1.4931    1.5997   -1.1893 H   0  0  0  0  0  0  0  0  0  0  0  0
   -2.5956    0.4350   -2.0942 H   0  0  0  0  0  0  0  0  0  0  0  0
   -1.1216   -1.3685   -1.6345 H   0  0  0  0  0  0  0  0  0  0  0  0
    0.0208   -0.0490   -2.0301 H   0  0  0  0  0  0  0  0  0  0  0  0
   -0.1483    1.2416    1.1124 H   0  0  0  0  0  0  0  0  0  0  0  0
   -0.1887   -0.2774    2.0752 H   0  0  0  0  0  0  0  0  0  0  0  0
   -2.4389   -0.5631    1.8555 H   0  0  0  0  0  0  0  0  0  0  0  0
   -2.2865    1.2697    1.8091 H   0  0  0  0  0  0  0  0  0  0  0  0
    4.5452   -4.6854    0.5892 H   0  0  0  0  0  0  0  0  0  0  0  0
   -0.1214   -3.0192    0.2884 H   0  0  0  0  0  0  0  0  0  0  0  0
    4.5947    0.3615   -1.7504 H   0  0  0  0  0  0  0  0  0  0  0  0
    5.8795    2.4917   -1.8423 H   0  0  0  0  0  0  0  0  0  0  0  0
    7.6672    1.5604    1.8923 H   0  0  0  0  0  0  0  0  0  0  0  0
    6.4171   -0.5345    2.0010 H   0  0  0  0  0  0  0  0  0  0  0  0
  1  2  1  0
  2  3  1  0
  3  4  2  0
  4  5  1  0
  5  6  2  0
  6  7  1  0
  7  8  2  0
  8  9  1  0
  9 10  1  0
 10 11  1  0
 11 12  1  0
 12 13  1  0
 13 14  1  0
 12 15  1  0
 15 16  2  0
 16 17  1  0
 17 18  1  0
 18 19  1  0
 19 20  2  0
 20 21  1  0
 21 22  1  0
 22 23  2  0
 22 24  1  0
 18 25  1  0
 25 26  2  0
 26 27  1  0
 27 28  2  0
 28 29  1  0
 28 30  1  0
 30 31  2  0
  8  3  1  0
 14  9  1  0
 24 15  1  0
 31 25  1  0
 21 17  2  0
  1 32  1  0
  1 33  1  0
  1 34  1  0
  4 35  1  0
  5 36  1  0
  6 37  1  0
  7 38  1  0
 10 39  1  0
 10 40  1  0
 11 41  1  0
 11 42  1  0
 13 43  1  0
 13 44  1  0
 14 45  1  0
 14 46  1  0
 20 47  1  0
 24 48  1  0
 26 49  1  0
 27 50  1  0
 30 51  1  0
 31 52  1  0
M  END
$$$$
[H]c1c([H])c([H])c2c(c1[H])c1c3c(c4c5c([H])c([H])c([H])c([H])c5n5c4c1n2[C@]1([H])O[C@]5(C([H])([H])[H])[C@]([H])(OC([H])([H])[H])[C@]([H])(N([H])C([H])([H])[H])C1([H])[H])C([H])([H])N([H])C3=O
     RDKit          3D

 61 68  0  0  0  0  0  0  0  0999 V2000
   -4.9647    2.0893   -0.5001 C   0  0  0  0  0  0  0  0  0  0  0  0
   -4.1485    0.9173   -0.6110 N   0  0  0  0  0  0  0  0  0  0  0  0
   -3.1547    0.8915    0.4018 C   0  0  2  0  0  0  0  0  0  0  0  0
   -2.1599    2.0934    0.2761 C   0  0  0  0  0  0  0  0  0  0  0  0
   -0.9701    1.4278    0.0810 C   0  0  1  0  0  0  0  0  0  0  0  0
   -1.1699    0.6674   -1.0620 O   0  0  0  0  0  0  0  0  0  0  0  0
   -1.4214   -0.6660   -0.6075 C   0  0  2  0  0  0  0  0  0  0  0  0
   -2.0298   -1.2882   -1.8881 C   0  0  0  0  0  0  0  0  0  0  0  0
   -2.4117   -0.4705    0.4331 C   0  0  2  0  0  0  0  0  0  0  0  0
   -3.4958   -1.3570    0.1476 O   0  0  0  0  0  0  0  0  0  0  0  0
   -3.7832   -2.1888    1.2017 C   0  0  0  0  0  0  0  0  0  0  0  0
   -0.1106   -1.2246   -0.3667 N   0  0  0  0  0  0  0  0  0  0  0  0
    0.2372   -2.5334   -0.4695 C   0  0  0  0  0  0  0  0  0  0  0  0
   -0.4939   -3.6621   -0.6643 C   0  0  0  0  0  0  0  0  0  0  0  0
    0.1052   -4.9347   -0.7248 C   0  0  0  0  0  0  0  0  0  0  0  0
    1.4707   -5.0525   -0.5831 C   0  0  0  0  0  0  0  0  0  0  0  0
    2.2474   -3.9187   -0.3817 C   0  0  0  0  0  0  0  0  0  0  0  0
    1.6031   -2.7007   -0.3318 C   0  0  0  0  0  0  0  0  0  0  0  0
    2.1212   -1.4634   -0.1322 C   0  0  0  0  0  0  0  0  0  0  0  0
    3.3946   -0.9214    0.0464 C   0  0  0  0  0  0  0  0  0  0  0  0
    4.6791   -1.6664    0.0956 C   0  0  0  0  0  0  0  0  0  0  0  0
    5.6758   -0.6431    0.2981 N   0  0  0  0  0  0  0  0  0  0  0  0
    5.0506    0.6576    0.3682 C   0  0  0  0  0  0  0  0  0  0  0  0
    5.7414    1.6773    0.5390 O   0  0  0  0  0  0  0  0  0  0  0  0
    3.6321    0.4301    0.2061 C   0  0  0  0  0  0  0  0  0  0  0  0
    2.5663    1.3151    0.1965 C   0  0  0  0  0  0  0  0  0  0  0  0
    2.4087    2.6598    0.3747 C   0  0  0  0  0  0  0  0  0  0  0  0
    3.2570    3.6970    0.5815 C   0  0  0  0  0  0  0  0  0  0  0  0
    2.7223    4.9826    0.7263 C   0  0  0  0  0  0  0  0  0  0  0  0
    1.3653    5.1987    0.6613 C   0  0  0  0  0  0  0  0  0  0  0  0
    0.4944    4.1468    0.4506 C   0  0  0  0  0  0  0  0  0  0  0  0
    1.0459    2.8793    0.3097 C   0  0  0  0  0  0  0  0  0  0  0  0
    0.3923    1.7530    0.1032 N   0  0  0  0  0  0  0  0  0  0  0  0
    1.3220    0.7641    0.0201 C   0  0  0  0  0  0  0  0  0  0  0  0
    1.0881   -0.6098   -0.1512 C   0  0  0  0  0  0  0  0  0  0  0  0
   -4.5050    2.7874    0.2181 H   0  0  0  0  0  0  0  0  0  0  0  0
   -5.0152    2.5954   -1.4846 H   0  0  0  0  0  0  0  0  0  0  0  0
   -5.9865    1.8736   -0.1140 H   0  0  0  0  0  0  0  0  0  0  0  0
   -4.6708    0.0501   -0.7072 H   0  0  0  0  0  0  0  0  0  0  0  0
   -3.6459    0.9609    1.3922 H   0  0  0  0  0  0  0  0  0  0  0  0
   -2.2247    2.7003    1.2119 H   0  0  0  0  0  0  0  0  0  0  0  0
   -2.6189    2.7330   -0.5135 H   0  0  0  0  0  0  0  0  0  0  0  0
   -0.9798    0.7663    1.0620 H   0  0  0  0  0  0  0  0  0  0  0  0
   -1.2319   -1.8497   -2.3960 H   0  0  0  0  0  0  0  0  0  0  0  0
   -2.8636   -1.9495   -1.6828 H   0  0  0  0  0  0  0  0  0  0  0  0
   -2.2916   -0.4677   -2.5918 H   0  0  0  0  0  0  0  0  0  0  0  0
   -2.1277   -0.7486    1.4625 H   0  0  0  0  0  0  0  0  0  0  0  0
   -2.9558   -2.8425    1.5144 H   0  0  0  0  0  0  0  0  0  0  0  0
   -4.6392   -2.8240    0.9086 H   0  0  0  0  0  0  0  0  0  0  0  0
   -4.1482   -1.5632    2.0435 H   0  0  0  0  0  0  0  0  0  0  0  0
   -1.5512   -3.6189   -0.7668 H   0  0  0  0  0  0  0  0  0  0  0  0
   -0.5187   -5.8172   -0.8832 H   0  0  0  0  0  0  0  0  0  0  0  0
    1.9167   -6.0362   -0.6324 H   0  0  0  0  0  0  0  0  0  0  0  0
    3.3134   -4.0211   -0.2722 H   0  0  0  0  0  0  0  0  0  0  0  0
    4.7040   -2.3997    0.9357 H   0  0  0  0  0  0  0  0  0  0  0  0
    4.8766   -2.2502   -0.8219 H   0  0  0  0  0  0  0  0  0  0  0  0
    6.6886   -0.8471    0.3779 H   0  0  0  0  0  0  0  0  0  0  0  0
    4.3051    3.5494    0.6320 H   0  0  0  0  0  0  0  0  0  0  0  0
    3.4425    5.7718    0.8891 H   0  0  0  0  0  0  0  0  0  0  0  0
    0.9862    6.2225    0.7794 H   0  0  0  0  0  0  0  0  0  0  0  0
   -0.5649    4.2785    0.3948 H   0  0  0  0  0  0  0  0  0  0  0  0
  1  2  1  0
  2  3  1  0
  3  4  1  0
  4  5  1  0
  5  6  1  0
  6  7  1  0
  7  8  1  6
  7  9  1  0
  9 10  1  0
 10 11  1  0
  7 12  1  0
 12 13  1  0
 13 14  2  0
 14 15  1  0
 15 16  2  0
 16 17  1  0
 17 18  2  0
 18 19  1  0
 19 20  2  0
 20 21  1  0
 21 22  1  0
 22 23  1  0
 23 24  2  0
 23 25  1  0
 25 26  2  0
 26 27  1  0
 27 28  2  0
 28 29  1  0
 29 30  2  0
 30 31  1  0
 31 32  2  0
 32 33  1  0
 33 34  1  0
 34 35  2  0
  9  3  1  0
 35 12  1  0
 33  5  1  0
 18 13  1  0
 35 19  1  0
 25 20  1  0
 34 26  1  0
 32 27  1  0
  1 36  1  0
  1 37  1  0
  1 38  1  0
  2 39  1  0
  3 40  1  1
  4 41  1  0
  4 42  1  0
  5 43  1  1
  8 44  1  0
  8 45  1  0
  8 46  1  0
  9 47  1  1
 11 48  1  0
 11 49  1  0
 11 50  1  0
 14 51  1  0
 15 52  1  0
 16 53  1  0
 17 54  1  0
 21 55  1  0
 21 56  1  0
 22 57  1  0
 28 58  1  0
 29 59  1  0
 30 60  1  0
 31 61  1  0
M  END
$$$$
[H]c1c([H])c(N([H])C(=O)c2c(C([H])([H])[H])c(C(=O)C(=O)N([H])C3(C#N)C([H])([H])C3([H])[H])c3n2C([H])([H])C([H])([H])C3([H])[H])c([H])c(F)c1F
     RDKit          3D

 48 51  0  0  0  0  0  0  0  0999 V2000
   -0.3416    1.3629   -1.8174 C   0  0  0  0  0  0  0  0  0  0  0  0
   -0.1652    0.1589   -0.9948 C   0  0  0  0  0  0  0  0  0  0  0  0
   -1.1365   -0.7771   -0.7482 C   0  0  0  0  0  0  0  0  0  0  0  0
   -2.5238   -0.8023   -1.2239 C   0  0  0  0  0  0  0  0  0  0  0  0
   -2.7449   -1.3845   -2.3164 O   0  0  0  0  0  0  0  0  0  0  0  0
   -3.6094   -0.1902   -0.4849 C   0  0  0  0  0  0  0  0  0  0  0  0
   -3.3650    0.3838    0.6006 O   0  0  0  0  0  0  0  0  0  0  0  0
   -4.9363   -0.2273   -0.9626 N   0  0  0  0  0  0  0  0  0  0  0  0
   -5.9822    0.3967   -0.1905 C   0  0  0  0  0  0  0  0  0  0  0  0
   -5.7551    1.8923    0.0165 C   0  0  0  0  0  0  0  0  0  0  0  0
   -6.9309    1.3454   -0.7807 C   0  0  0  0  0  0  0  0  0  0  0  0
   -6.4060   -0.3867    0.9703 C   0  0  0  0  0  0  0  0  0  0  0  0
   -6.7320   -1.0152    1.8783 N   0  0  0  0  0  0  0  0  0  0  0  0
   -0.5693   -1.7350    0.0577 C   0  0  0  0  0  0  0  0  0  0  0  0
   -0.9004   -3.0271    0.7638 C   0  0  0  0  0  0  0  0  0  0  0  0
    0.4807   -3.6364    0.8125 C   0  0  0  0  0  0  0  0  0  0  0  0
    1.3213   -2.4200    1.1413 C   0  0  0  0  0  0  0  0  0  0  0  0
    0.7138   -1.3917    0.2948 N   0  0  0  0  0  0  0  0  0  0  0  0
    1.0058   -0.2378   -0.3287 C   0  0  0  0  0  0  0  0  0  0  0  0
    2.2383    0.5547   -0.4006 C   0  0  0  0  0  0  0  0  0  0  0  0
    2.3155    1.5143   -1.2141 O   0  0  0  0  0  0  0  0  0  0  0  0
    3.3515    0.2810    0.4175 N   0  0  0  0  0  0  0  0  0  0  0  0
    4.5868    0.9361    0.4701 C   0  0  0  0  0  0  0  0  0  0  0  0
    4.8705    2.1310   -0.0842 C   0  0  0  0  0  0  0  0  0  0  0  0
    6.1580    2.7042    0.0070 C   0  0  0  0  0  0  0  0  0  0  0  0
    7.1475    2.0504    0.6658 C   0  0  0  0  0  0  0  0  0  0  0  0
    8.3793    2.6355    0.7332 F   0  0  0  0  0  0  0  0  0  0  0  0
    6.8863    0.8311    1.2408 C   0  0  0  0  0  0  0  0  0  0  0  0
    7.9030    0.1971    1.8977 F   0  0  0  0  0  0  0  0  0  0  0  0
    5.6342    0.2911    1.1425 C   0  0  0  0  0  0  0  0  0  0  0  0
   -1.3686    1.3937   -2.2289 H   0  0  0  0  0  0  0  0  0  0  0  0
   -0.1923    2.2575   -1.1719 H   0  0  0  0  0  0  0  0  0  0  0  0
    0.3421    1.4127   -2.6869 H   0  0  0  0  0  0  0  0  0  0  0  0
   -5.1372   -0.7090   -1.8723 H   0  0  0  0  0  0  0  0  0  0  0  0
   -5.0073    2.4038   -0.6120 H   0  0  0  0  0  0  0  0  0  0  0  0
   -5.9158    2.2287    1.0498 H   0  0  0  0  0  0  0  0  0  0  0  0
   -7.9005    1.4841   -0.2534 H   0  0  0  0  0  0  0  0  0  0  0  0
   -6.9869    1.5293   -1.8600 H   0  0  0  0  0  0  0  0  0  0  0  0
   -1.2025   -2.7721    1.7975 H   0  0  0  0  0  0  0  0  0  0  0  0
   -1.6298   -3.6209    0.2100 H   0  0  0  0  0  0  0  0  0  0  0  0
    0.8004   -3.9750   -0.1959 H   0  0  0  0  0  0  0  0  0  0  0  0
    0.5724   -4.4265    1.5799 H   0  0  0  0  0  0  0  0  0  0  0  0
    2.3650   -2.6625    0.8348 H   0  0  0  0  0  0  0  0  0  0  0  0
    1.2429   -2.1091    2.1852 H   0  0  0  0  0  0  0  0  0  0  0  0
    3.1877   -0.5529    1.1058 H   0  0  0  0  0  0  0  0  0  0  0  0
    4.1270    2.7003   -0.6070 H   0  0  0  0  0  0  0  0  0  0  0  0
    6.3361    3.6588   -0.4513 H   0  0  0  0  0  0  0  0  0  0  0  0
    5.4733   -0.6761    1.6129 H   0  0  0  0  0  0  0  0  0  0  0  0
  1  2  1  0
  2  3  1  0
  3  4  1  0
  4  5  2  0
  4  6  1  0
  6  7  2  0
  6  8  1  0
  8  9  1  0
  9 10  1  0
 10 11  1  0
  9 12  1  0
 12 13  3  0
  3 14  2  0
 14 15  1  0
 15 16  1  0
 16 17  1  0
 17 18  1  0
 18 19  1  0
 19 20  1  0
 20 21  2  0
 20 22  1  0
 22 23  1  0
 23 24  2  0
 24 25  1  0
 25 26  2  0
 26 27  1  0
 26 28  1  0
 28 29  1  0
 28 30  2  0
 19  2  2  0
 30 23  1  0
 11  9  1  0
 18 14  1  0
  1 31  1  0
  1 32  1  0
  1 33  1  0
  8 34  1  0
 10 35  1  0
 10 36  1  0
 11 37  1  0
 11 38  1  0
 15 39  1  0
 15 40  1  0
 16 41  1  0
 16 42  1  0
 17 43  1  0
 17 44  1  0
 22 45  1  0
 24 46  1  0
 25 47  1  0
 30 48  1  0
M  END
$$$$
[H]c1nc([H])c(-c2nc(-c3c([H])nn(C([H])([H])[H])c3[H])c([H])c3nc(N4C([H])([H])[C@]([H])(C([H])([H])[H])N(C([H])([H])[H])C([H])([H])[C@@]4([H])C([H])([H])[H])n(C([H])([H])[C@]4([H])C([H])([H])C([H])([H])[C@@]([H])(C([H])([H])[H])C([H])([H])C4([H])[H])c23)c([H])c1Cl
     RDKit          3D

 78 83  0  0  0  0  0  0  0  0999 V2000
   -4.3466   -2.4952   -3.3214 C   0  0  0  0  0  0  0  0  0  0  0  0
   -3.6734   -2.6910   -1.9546 C   0  0  1  0  0  0  0  0  0  0  0  0
   -2.5198   -1.7203   -1.9282 C   0  0  0  0  0  0  0  0  0  0  0  0
   -1.9923   -1.5074   -0.6057 N   0  0  0  0  0  0  0  0  0  0  0  0
   -2.9253   -1.4726    0.4903 C   0  0  2  0  0  0  0  0  0  0  0  0
   -2.7827   -2.6363    1.4342 C   0  0  0  0  0  0  0  0  0  0  0  0
   -4.3612   -1.4145   -0.0085 C   0  0  0  0  0  0  0  0  0  0  0  0
   -4.6731   -2.4111   -0.9725 N   0  0  0  0  0  0  0  0  0  0  0  0
   -5.2352   -3.6104   -0.4307 C   0  0  0  0  0  0  0  0  0  0  0  0
   -0.6213   -1.3673   -0.3821 C   0  0  0  0  0  0  0  0  0  0  0  0
    0.1421   -2.3725    0.0101 N   0  0  0  0  0  0  0  0  0  0  0  0
    1.3710   -1.8815    0.1119 C   0  0  0  0  0  0  0  0  0  0  0  0
    2.5171   -2.5449    0.4970 C   0  0  0  0  0  0  0  0  0  0  0  0
    3.7359   -1.9030    0.5611 C   0  0  0  0  0  0  0  0  0  0  0  0
    3.7333   -0.6183    0.2279 N   0  0  0  0  0  0  0  0  0  0  0  0
    2.5930    0.0723   -0.1642 C   0  0  0  0  0  0  0  0  0  0  0  0
    2.8366    1.4435   -0.5390 C   0  0  0  0  0  0  0  0  0  0  0  0
    3.2757    2.3135    0.4175 C   0  0  0  0  0  0  0  0  0  0  0  0
    3.6649    3.5440    0.0892 N   0  0  0  0  0  0  0  0  0  0  0  0
    3.6319    3.9500   -1.1886 C   0  0  0  0  0  0  0  0  0  0  0  0
    3.1948    3.1036   -2.1908 C   0  0  0  0  0  0  0  0  0  0  0  0
    3.1770    3.6981   -3.8357 Cl  0  0  0  0  0  0  0  0  0  0  0  0
    2.7991    1.8419   -1.8303 C   0  0  0  0  0  0  0  0  0  0  0  0
    1.3624   -0.5380   -0.2300 C   0  0  0  0  0  0  0  0  0  0  0  0
    0.1079   -0.2081   -0.5377 N   0  0  0  0  0  0  0  0  0  0  0  0
   -0.4229    1.0135   -0.9418 C   0  0  0  0  0  0  0  0  0  0  0  0
   -1.1856    1.8724   -0.0386 C   0  0  1  0  0  0  0  0  0  0  0  0
   -0.4496    2.3123    1.1818 C   0  0  0  0  0  0  0  0  0  0  0  0
   -1.3928    3.1704    2.0633 C   0  0  0  0  0  0  0  0  0  0  0  0
   -1.6035    4.4478    1.2803 C   0  0  2  0  0  0  0  0  0  0  0  0
   -2.3653    5.4788    2.0809 C   0  0  0  0  0  0  0  0  0  0  0  0
   -2.3472    4.0835    0.0148 C   0  0  0  0  0  0  0  0  0  0  0  0
   -1.4362    3.1971   -0.8084 C   0  0  0  0  0  0  0  0  0  0  0  0
    4.9116   -2.6412    0.9733 C   0  0  0  0  0  0  0  0  0  0  0  0
    4.9828   -3.9639    1.3358 C   0  0  0  0  0  0  0  0  0  0  0  0
    6.2717   -4.2213    1.6397 N   0  0  0  0  0  0  0  0  0  0  0  0
    7.0276   -3.1435    1.4932 N   0  0  0  0  0  0  0  0  0  0  0  0
    8.4693   -3.0157    1.7223 C   0  0  0  0  0  0  0  0  0  0  0  0
    6.1933   -2.1597    1.0808 C   0  0  0  0  0  0  0  0  0  0  0  0
   -4.3713   -1.4050   -3.5474 H   0  0  0  0  0  0  0  0  0  0  0  0
   -5.3674   -2.9181   -3.3393 H   0  0  0  0  0  0  0  0  0  0  0  0
   -3.6879   -2.9546   -4.0751 H   0  0  0  0  0  0  0  0  0  0  0  0
   -3.3411   -3.7492   -1.9473 H   0  0  0  0  0  0  0  0  0  0  0  0
   -2.9645   -0.7360   -2.2615 H   0  0  0  0  0  0  0  0  0  0  0  0
   -1.7846   -2.0247   -2.6663 H   0  0  0  0  0  0  0  0  0  0  0  0
   -2.7726   -0.5660    1.1042 H   0  0  0  0  0  0  0  0  0  0  0  0
   -2.0268   -2.4291    2.2417 H   0  0  0  0  0  0  0  0  0  0  0  0
   -2.5309   -3.5777    0.9613 H   0  0  0  0  0  0  0  0  0  0  0  0
   -3.7539   -2.7587    1.9572 H   0  0  0  0  0  0  0  0  0  0  0  0
   -4.9993   -1.5673    0.8859 H   0  0  0  0  0  0  0  0  0  0  0  0
   -4.5631   -0.3684   -0.3791 H   0  0  0  0  0  0  0  0  0  0  0  0
   -6.0917   -3.9577   -1.0528 H   0  0  0  0  0  0  0  0  0  0  0  0
   -4.4652   -4.3951   -0.3496 H   0  0  0  0  0  0  0  0  0  0  0  0
   -5.6144   -3.4186    0.5977 H   0  0  0  0  0  0  0  0  0  0  0  0
    2.4889   -3.5948    0.7610 H   0  0  0  0  0  0  0  0  0  0  0  0
    3.3124    2.0130    1.4518 H   0  0  0  0  0  0  0  0  0  0  0  0
    3.9458    4.9429   -1.4527 H   0  0  0  0  0  0  0  0  0  0  0  0
    2.4480    1.1529   -2.6072 H   0  0  0  0  0  0  0  0  0  0  0  0
    0.2629    1.6508   -1.4768 H   0  0  0  0  0  0  0  0  0  0  0  0
   -1.1829    0.7273   -1.7772 H   0  0  0  0  0  0  0  0  0  0  0  0
   -2.2296    1.5604    0.1711 H   0  0  0  0  0  0  0  0  0  0  0  0
    0.0310    1.5216    1.7562 H   0  0  0  0  0  0  0  0  0  0  0  0
    0.3239    3.0682    0.8584 H   0  0  0  0  0  0  0  0  0  0  0  0
   -0.9153    3.3128    3.0298 H   0  0  0  0  0  0  0  0  0  0  0  0
   -2.3841    2.6578    2.1219 H   0  0  0  0  0  0  0  0  0  0  0  0
   -0.6042    4.8375    1.0287 H   0  0  0  0  0  0  0  0  0  0  0  0
   -2.6983    6.2648    1.3513 H   0  0  0  0  0  0  0  0  0  0  0  0
   -1.6736    5.9621    2.7776 H   0  0  0  0  0  0  0  0  0  0  0  0
   -3.2804    5.0631    2.5381 H   0  0  0  0  0  0  0  0  0  0  0  0
   -3.2914    3.5586    0.2674 H   0  0  0  0  0  0  0  0  0  0  0  0
   -2.5239    4.9972   -0.5587 H   0  0  0  0  0  0  0  0  0  0  0  0
   -0.4915    3.7153   -0.9737 H   0  0  0  0  0  0  0  0  0  0  0  0
   -1.9214    2.9896   -1.7825 H   0  0  0  0  0  0  0  0  0  0  0  0
    4.1531   -4.6800    1.3734 H   0  0  0  0  0  0  0  0  0  0  0  0
    8.9593   -2.8817    0.7499 H   0  0  0  0  0  0  0  0  0  0  0  0
    8.5991   -2.0455    2.2770 H   0  0  0  0  0  0  0  0  0  0  0  0
    8.8558   -3.8338    2.3247 H   0  0  0  0  0  0  0  0  0  0  0  0
    6.4860   -1.1388    0.8645 H   0  0  0  0  0  0  0  0  0  0  0  0
  1  2  1  0
  2  3  1  0
  3  4  1  0
  4  5  1  0
  5  6  1  0
  5  7  1  0
  7  8  1  0
  8  9  1  0
  4 10  1  0
 10 11  2  0
 11 12  1  0
 12 13  2  0
 13 14  1  0
 14 15  2  0
 15 16  1  0
 16 17  1  0
 17 18  2  0
 18 19  1  0
 19 20  2  0
 20 21  1  0
 21 22  1  0
 21 23  2  0
 16 24  2  0
 24 25  1  0
 25 26  1  0
 26 27  1  0
 27 28  1  0
 28 29  1  0
 29 30  1  0
 30 31  1  0
 30 32  1  0
 32 33  1  0
 14 34  1  0
 34 35  1  0
 35 36  2  0
 36 37  1  0
 37 38  1  0
 37 39  1  0
  8  2  1  0
 25 10  1  0
 33 27  1  0
 39 34  2  0
 24 12  1  0
 23 17  1  0
  1 40  1  0
  1 41  1  0
  1 42  1  0
  2 43  1  6
  3 44  1  0
  3 45  1  0
  5 46  1  1
  6 47  1  0
  6 48  1  0
  6 49  1  0
  7 50  1  0
  7 51  1  0
  9 52  1  0
  9 53  1  0
  9 54  1  0
 13 55  1  0
 18 56  1  0
 20 57  1  0
 23 58  1  0
 26 59  1  0
 26 60  1  0
 27 61  1  1
 28 62  1  0
 28 63  1  0
 29 64  1  0
 29 65  1  0
 30 66  1  6
 31 67  1  0
 31 68  1  0
 31 69  1  0
 32 70  1  0
 32 71  1  0
 33 72  1  0
 33 73  1  0
 35 74  1  0
 38 75  1  0
 38 76  1  0
 38 77  1  0
 39 78  1  0
M  END
$$$$
[H]c1nc(N([H])c2c([H])c([H])c(N3C([H])([H])C([H])([H])C([H])(N4C([H])([H])C([H])([H])N(C([H])([H])[H])C([H])([H])C4([H])[H])C([H])([H])C3([H])[H])c([H])c2OC([H])([H])[H])nc(N([H])c2c([H])c([H])c([H])c([H])c2S(=O)(=O)C([H])(C([H])([H])[H])C([H])([H])[H])c1Cl
     RDKit          3D

 82 86  0  0  0  0  0  0  0  0999 V2000
   -0.1870    3.7228   -1.2569 C   0  0  0  0  0  0  0  0  0  0  0  0
    0.4390    2.5297   -0.8437 O   0  0  0  0  0  0  0  0  0  0  0  0
   -0.3483    1.4775   -0.4024 C   0  0  0  0  0  0  0  0  0  0  0  0
   -1.7220    1.6350   -0.3827 C   0  0  0  0  0  0  0  0  0  0  0  0
   -2.5624    0.6308    0.0436 C   0  0  0  0  0  0  0  0  0  0  0  0
   -1.9599   -0.5357    0.4478 C   0  0  0  0  0  0  0  0  0  0  0  0
   -0.5748   -0.7280    0.4408 C   0  0  0  0  0  0  0  0  0  0  0  0
    0.2576    0.2764    0.0150 C   0  0  0  0  0  0  0  0  0  0  0  0
    1.6540    0.2011   -0.0367 N   0  0  0  0  0  0  0  0  0  0  0  0
    2.4984   -0.8842    0.3177 C   0  0  0  0  0  0  0  0  0  0  0  0
    2.1033   -2.0726    0.7812 N   0  0  0  0  0  0  0  0  0  0  0  0
    2.9559   -3.0558    1.0957 C   0  0  0  0  0  0  0  0  0  0  0  0
    4.3092   -2.8632    0.9451 C   0  0  0  0  0  0  0  0  0  0  0  0
    5.4455   -4.1449    1.3534 Cl  0  0  0  0  0  0  0  0  0  0  0  0
    4.7527   -1.6166    0.4572 C   0  0  0  0  0  0  0  0  0  0  0  0
    6.1380   -1.4466    0.3110 N   0  0  0  0  0  0  0  0  0  0  0  0
    6.9009   -0.3576   -0.1368 C   0  0  0  0  0  0  0  0  0  0  0  0
    6.2766    0.8084   -0.5266 C   0  0  0  0  0  0  0  0  0  0  0  0
    7.0240    1.9039   -0.9778 C   0  0  0  0  0  0  0  0  0  0  0  0
    8.3820    1.8034   -1.0274 C   0  0  0  0  0  0  0  0  0  0  0  0
    9.0024    0.6381   -0.6374 C   0  0  0  0  0  0  0  0  0  0  0  0
    8.2961   -0.4485   -0.1920 C   0  0  0  0  0  0  0  0  0  0  0  0
    9.0842   -1.8926    0.2913 S   0  0  0  0  0  0  0  0  0  0  0  0
    8.6633   -3.0312   -0.6035 O   0  0  0  0  0  0  0  0  0  0  0  0
    8.8235   -2.3045    1.7132 O   0  0  0  0  0  0  0  0  0  0  0  0
   10.8572   -1.7881    0.1370 C   0  0  0  0  0  0  0  0  0  0  0  0
   11.2609   -1.6791   -1.2975 C   0  0  0  0  0  0  0  0  0  0  0  0
   11.4760   -0.7869    1.0544 C   0  0  0  0  0  0  0  0  0  0  0  0
    3.8248   -0.7008    0.1721 N   0  0  0  0  0  0  0  0  0  0  0  0
   -3.9818    0.8060    0.0512 N   0  0  0  0  0  0  0  0  0  0  0  0
   -4.5241    1.9609   -0.5784 C   0  0  0  0  0  0  0  0  0  0  0  0
   -6.0011    1.9283   -0.8544 C   0  0  0  0  0  0  0  0  0  0  0  0
   -6.8245    1.3726    0.2584 C   0  0  0  0  0  0  0  0  0  0  0  0
   -6.0036    0.6088    1.2781 C   0  0  0  0  0  0  0  0  0  0  0  0
   -4.8657   -0.1463    0.6796 C   0  0  0  0  0  0  0  0  0  0  0  0
   -7.9560    0.6086   -0.0875 N   0  0  0  0  0  0  0  0  0  0  0  0
   -7.7905   -0.5856   -0.8057 C   0  0  0  0  0  0  0  0  0  0  0  0
   -9.1362   -1.0235   -1.3907 C   0  0  0  0  0  0  0  0  0  0  0  0
  -10.1390   -0.8718   -0.3544 N   0  0  0  0  0  0  0  0  0  0  0  0
  -10.0361   -1.8235    0.7053 C   0  0  0  0  0  0  0  0  0  0  0  0
  -10.3349    0.4834    0.0484 C   0  0  0  0  0  0  0  0  0  0  0  0
   -9.1475    1.3193   -0.4248 C   0  0  0  0  0  0  0  0  0  0  0  0
    0.5375    4.4499   -1.6799 H   0  0  0  0  0  0  0  0  0  0  0  0
   -0.9481    3.5330   -2.0530 H   0  0  0  0  0  0  0  0  0  0  0  0
   -0.6880    4.2523   -0.4156 H   0  0  0  0  0  0  0  0  0  0  0  0
   -2.1476    2.5764   -0.7105 H   0  0  0  0  0  0  0  0  0  0  0  0
   -2.6020   -1.3517    0.7883 H   0  0  0  0  0  0  0  0  0  0  0  0
   -0.2121   -1.6859    0.7807 H   0  0  0  0  0  0  0  0  0  0  0  0
    2.1500    1.0935   -0.3956 H   0  0  0  0  0  0  0  0  0  0  0  0
    2.6174   -4.0222    1.4737 H   0  0  0  0  0  0  0  0  0  0  0  0
    6.7215   -2.3022    0.5911 H   0  0  0  0  0  0  0  0  0  0  0  0
    5.2202    0.9989   -0.5296 H   0  0  0  0  0  0  0  0  0  0  0  0
    6.5603    2.8305   -1.2896 H   0  0  0  0  0  0  0  0  0  0  0  0
    9.0220    2.6252   -1.3712 H   0  0  0  0  0  0  0  0  0  0  0  0
   10.0936    0.6299   -0.7052 H   0  0  0  0  0  0  0  0  0  0  0  0
   11.2252   -2.8031    0.4806 H   0  0  0  0  0  0  0  0  0  0  0  0
   11.9033   -0.7785   -1.4926 H   0  0  0  0  0  0  0  0  0  0  0  0
   10.3307   -1.5514   -1.9199 H   0  0  0  0  0  0  0  0  0  0  0  0
   11.7765   -2.5763   -1.6995 H   0  0  0  0  0  0  0  0  0  0  0  0
   12.0225   -1.2557    1.8769 H   0  0  0  0  0  0  0  0  0  0  0  0
   12.1781   -0.1622    0.4319 H   0  0  0  0  0  0  0  0  0  0  0  0
   10.7434   -0.0899    1.5079 H   0  0  0  0  0  0  0  0  0  0  0  0
   -4.2803    2.8410    0.0525 H   0  0  0  0  0  0  0  0  0  0  0  0
   -3.9354    2.1199   -1.5269 H   0  0  0  0  0  0  0  0  0  0  0  0
   -6.3084    2.9635   -1.1164 H   0  0  0  0  0  0  0  0  0  0  0  0
   -6.1470    1.3325   -1.7818 H   0  0  0  0  0  0  0  0  0  0  0  0
   -7.2139    2.2642    0.8421 H   0  0  0  0  0  0  0  0  0  0  0  0
   -6.6586   -0.1075    1.8153 H   0  0  0  0  0  0  0  0  0  0  0  0
   -5.5929    1.2907    2.0626 H   0  0  0  0  0  0  0  0  0  0  0  0
   -5.1731   -0.8869   -0.0780 H   0  0  0  0  0  0  0  0  0  0  0  0
   -4.3121   -0.6097    1.5260 H   0  0  0  0  0  0  0  0  0  0  0  0
   -7.5080   -1.4012   -0.0997 H   0  0  0  0  0  0  0  0  0  0  0  0
   -7.0082   -0.5774   -1.5870 H   0  0  0  0  0  0  0  0  0  0  0  0
   -9.4445   -0.3742   -2.2343 H   0  0  0  0  0  0  0  0  0  0  0  0
   -9.0261   -2.0597   -1.7202 H   0  0  0  0  0  0  0  0  0  0  0  0
   -9.1822   -2.5377    0.5321 H   0  0  0  0  0  0  0  0  0  0  0  0
   -9.9814   -1.3564    1.7041 H   0  0  0  0  0  0  0  0  0  0  0  0
  -10.9456   -2.4645    0.6802 H   0  0  0  0  0  0  0  0  0  0  0  0
  -11.2261    0.8855   -0.4545 H   0  0  0  0  0  0  0  0  0  0  0  0
  -10.4517    0.5517    1.1515 H   0  0  0  0  0  0  0  0  0  0  0  0
   -9.2778    1.5186   -1.4917 H   0  0  0  0  0  0  0  0  0  0  0  0
   -9.1611    2.2698    0.1783 H   0  0  0  0  0  0  0  0  0  0  0  0
  1  2  1  0
  2  3  1  0
  3  4  2  0
  4  5  1  0
  5  6  2  0
  6  7  1  0
  7  8  2  0
  8  9  1  0
  9 10  1  0
 10 11  2  0
 11 12  1  0
 12 13  2  0
 13 14  1  0
 13 15  1  0
 15 16  1  0
 16 17  1  0
 17 18  2  0
 18 19  1  0
 19 20  2  0
 20 21  1  0
 21 22  2  0
 22 23  1  0
 23 24  2  0
 23 25  2  0
 23 26  1  0
 26 27  1  0
 26 28  1  0
 15 29  2  0
  5 30  1  0
 30 31  1  0
 31 32  1  0
 32 33  1  0
 33 34  1  0
 34 35  1  0
 33 36  1  0
 36 37  1  0
 37 38  1  0
 38 39  1  0
 39 40  1  0
 39 41  1  0
 41 42  1  0
  8  3  1  0
 29 10  1  0
 35 30  1  0
 42 36  1  0
 22 17  1  0
  1 43  1  0
  1 44  1  0
  1 45  1  0
  4 46  1  0
  6 47  1  0
  7 48  1  0
  9 49  1  0
 12 50  1  0
 16 51  1  0
 18 52  1  0
 19 53  1  0
 20 54  1  0
 21 55  1  0
 26 56  1  0
 27 57  1  0
 27 58  1  0
 27 59  1  0
 28 60  1  0
 28 61  1  0
 28 62  1  0
 31 63  1  0
 31 64  1  0
 32 65  1  0
 32 66  1  0
 33 67  1  0
 34 68  1  0
 34 69  1  0
 35 70  1  0
 35 71  1  0
 37 72  1  0
 37 73  1  0
 38 74  1  0
 38 75  1  0
 40 76  1  0
 40 77  1  0
 40 78  1  0
 41 79  1  0
 41 80  1  0
 42 81  1  0
 42 82  1  0
M  END
$$$$
[H]ON([H])C(=O)C([H])([H])N(C([H])([H])c1c([H])c([H])c([N+](=O)[O-])c([H])c1[H])S(=O)(=O)c1c([H])c([H])c(-c2c([H])c([H])c([H])c([H])c2[H])c([H])c1[H]
     RDKit          3D

 50 52  0  0  0  0  0  0  0  0999 V2000
   -3.3880    4.8280   -0.3137 O   0  0  0  0  0  0  0  0  0  0  0  0
   -2.8571    3.5654   -0.3783 N   0  0  0  0  0  0  0  0  0  0  0  0
   -1.9417    3.2517   -1.3986 C   0  0  0  0  0  0  0  0  0  0  0  0
   -1.6343    4.1383   -2.2318 O   0  0  0  0  0  0  0  0  0  0  0  0
   -1.3360    1.9185   -1.5205 C   0  0  0  0  0  0  0  0  0  0  0  0
   -1.8142    1.0597   -0.4286 N   0  0  0  0  0  0  0  0  0  0  0  0
   -2.1852   -0.2315   -0.9279 C   0  0  0  0  0  0  0  0  0  0  0  0
   -3.3292   -0.8704   -0.2425 C   0  0  0  0  0  0  0  0  0  0  0  0
   -4.1033   -0.2664    0.7094 C   0  0  0  0  0  0  0  0  0  0  0  0
   -5.1557   -0.8898    1.3263 C   0  0  0  0  0  0  0  0  0  0  0  0
   -5.4660   -2.1819    0.9884 C   0  0  0  0  0  0  0  0  0  0  0  0
   -4.7124   -2.8335    0.0317 C   0  0  0  0  0  0  0  0  0  0  0  0
   -3.6595   -2.1800   -0.5715 C   0  0  0  0  0  0  0  0  0  0  0  0
   -6.5732   -2.8559    1.6284 N   0  0  0  0  0  0  0  0  0  0  0  0
   -7.3198   -2.2128    2.5752 O   0  0  0  0  0  0  0  0  0  0  0  0
   -6.8488   -4.0187    1.3206 O   0  0  0  0  0  0  0  0  0  0  0  0
   -0.6726    1.1120    0.7883 S   0  0  0  0  0  0  0  0  0  0  0  0
   -0.5686    2.5123    1.3235 O   0  0  0  0  0  0  0  0  0  0  0  0
   -1.2071    0.2785    1.9528 O   0  0  0  0  0  0  0  0  0  0  0  0
    0.9181    0.5546    0.4892 C   0  0  0  0  0  0  0  0  0  0  0  0
    1.8545    1.4802    0.0813 C   0  0  0  0  0  0  0  0  0  0  0  0
    3.1706    1.1199   -0.1857 C   0  0  0  0  0  0  0  0  0  0  0  0
    3.5686   -0.1939   -0.0442 C   0  0  0  0  0  0  0  0  0  0  0  0
    2.6129   -1.0986    0.3648 C   0  0  0  0  0  0  0  0  0  0  0  0
    1.3290   -0.7537    0.6265 C   0  0  0  0  0  0  0  0  0  0  0  0
    4.9434   -0.6116   -0.3153 C   0  0  0  0  0  0  0  0  0  0  0  0
    5.2835   -1.8396   -0.7855 C   0  0  0  0  0  0  0  0  0  0  0  0
    6.6161   -2.1253   -1.0052 C   0  0  0  0  0  0  0  0  0  0  0  0
    7.6219   -1.2148   -0.7673 C   0  0  0  0  0  0  0  0  0  0  0  0
    7.2743    0.0401   -0.2868 C   0  0  0  0  0  0  0  0  0  0  0  0
    5.9411    0.3236   -0.0678 C   0  0  0  0  0  0  0  0  0  0  0  0
   -2.7088    5.3794    0.1530 H   0  0  0  0  0  0  0  0  0  0  0  0
   -3.2038    2.9297    0.3639 H   0  0  0  0  0  0  0  0  0  0  0  0
   -1.6717    1.5205   -2.5054 H   0  0  0  0  0  0  0  0  0  0  0  0
   -0.2337    1.9501   -1.4568 H   0  0  0  0  0  0  0  0  0  0  0  0
   -1.3093   -0.9150   -0.7159 H   0  0  0  0  0  0  0  0  0  0  0  0
   -2.3792   -0.1530   -2.0098 H   0  0  0  0  0  0  0  0  0  0  0  0
   -3.8723    0.7568    0.9874 H   0  0  0  0  0  0  0  0  0  0  0  0
   -5.7403   -0.3551    2.0822 H   0  0  0  0  0  0  0  0  0  0  0  0
   -4.9838   -3.8701   -0.2200 H   0  0  0  0  0  0  0  0  0  0  0  0
   -3.0997   -2.7307   -1.3134 H   0  0  0  0  0  0  0  0  0  0  0  0
    1.6150    2.5459   -0.0538 H   0  0  0  0  0  0  0  0  0  0  0  0
    3.9126    1.8388   -0.5065 H   0  0  0  0  0  0  0  0  0  0  0  0
    2.8745   -2.1545    0.4932 H   0  0  0  0  0  0  0  0  0  0  0  0
    0.5522   -1.4370    0.9494 H   0  0  0  0  0  0  0  0  0  0  0  0
    4.5189   -2.5678   -0.9791 H   0  0  0  0  0  0  0  0  0  0  0  0
    6.9321   -3.0977   -1.3817 H   0  0  0  0  0  0  0  0  0  0  0  0
    8.6544   -1.4793   -0.9530 H   0  0  0  0  0  0  0  0  0  0  0  0
    8.0765    0.7320   -0.1094 H   0  0  0  0  0  0  0  0  0  0  0  0
    5.7051    1.3026    0.3041 H   0  0  0  0  0  0  0  0  0  0  0  0
  1  2  1  0
  2  3  1  0
  3  4  2  0
  3  5  1  0
  5  6  1  0
  6  7  1  0
  7  8  1  0
  8  9  2  0
  9 10  1  0
 10 11  2  0
 11 12  1  0
 12 13  2  0
 11 14  1  0
 14 15  1  0
 14 16  2  0
  6 17  1  0
 17 18  2  0
 17 19  2  0
 17 20  1  0
 20 21  2  0
 21 22  1  0
 22 23  2  0
 23 24  1  0
 24 25  2  0
 23 26  1  0
 26 27  2  0
 27 28  1  0
 28 29  2  0
 29 30  1  0
 30 31  2  0
 13  8  1  0
 25 20  1  0
 31 26  1  0
  1 32  1  0
  2 33  1  0
  5 34  1  0
  5 35  1  0
  7 36  1  0
  7 37  1  0
  9 38  1  0
 10 39  1  0
 12 40  1  0
 13 41  1  0
 21 42  1  0
 22 43  1  0
 24 44  1  0
 25 45  1  0
 27 46  1  0
 28 47  1  0
 29 48  1  0
 30 49  1  0
 31 50  1  0
M  CHG  2  14   1  15  -1
M  END
$$$$
[H]OC(=O)[C@@]([H])(N([H])C(=O)[C@@]([H])(N([H])C(=O)OC([H])([H])c1c([H])c([H])c([H])c([H])c1[H])C([H])(c1c([H])c([H])c([H])c([H])c1[H])c1c([H])c([H])c([H])c([H])c1[H])C([H])([H])[H]
     RDKit          3D

 59 61  0  0  0  0  0  0  0  0999 V2000
   -3.2938   -4.1818   -0.5540 C   0  0  0  0  0  0  0  0  0  0  0  0
   -2.9478   -3.1234   -1.6109 C   0  0  2  0  0  0  0  0  0  0  0  0
   -2.5842   -1.9277   -0.8388 N   0  0  0  0  0  0  0  0  0  0  0  0
   -1.2728   -1.4451   -0.8019 C   0  0  0  0  0  0  0  0  0  0  0  0
   -0.4172   -2.1169   -1.4891 O   0  0  0  0  0  0  0  0  0  0  0  0
   -0.7772   -0.2860   -0.0779 C   0  0  1  0  0  0  0  0  0  0  0  0
    0.6974   -0.2153   -0.2389 N   0  0  0  0  0  0  0  0  0  0  0  0
    1.6009   -0.6596    0.7374 C   0  0  0  0  0  0  0  0  0  0  0  0
    1.1940   -1.1513    1.8055 O   0  0  0  0  0  0  0  0  0  0  0  0
    2.9568   -0.5525    0.5168 O   0  0  0  0  0  0  0  0  0  0  0  0
    3.9157   -0.9712    1.4397 C   0  0  0  0  0  0  0  0  0  0  0  0
    5.2899   -0.7159    0.8969 C   0  0  0  0  0  0  0  0  0  0  0  0
    6.3534   -1.0526    1.6948 C   0  0  0  0  0  0  0  0  0  0  0  0
    7.6388   -0.8379    1.2421 C   0  0  0  0  0  0  0  0  0  0  0  0
    7.8114   -0.2874   -0.0074 C   0  0  0  0  0  0  0  0  0  0  0  0
    6.7422    0.0469   -0.7999 C   0  0  0  0  0  0  0  0  0  0  0  0
    5.4662   -0.1668   -0.3495 C   0  0  0  0  0  0  0  0  0  0  0  0
   -1.2802    1.0477   -0.4443 C   0  0  0  0  0  0  0  0  0  0  0  0
   -0.6077    2.1001    0.3899 C   0  0  0  0  0  0  0  0  0  0  0  0
   -0.1031    3.2550   -0.2218 C   0  0  0  0  0  0  0  0  0  0  0  0
    0.5061    4.2370    0.5242 C   0  0  0  0  0  0  0  0  0  0  0  0
    0.6317    4.1014    1.8948 C   0  0  0  0  0  0  0  0  0  0  0  0
    0.1487    2.9808    2.5334 C   0  0  0  0  0  0  0  0  0  0  0  0
   -0.4587    2.0144    1.7438 C   0  0  0  0  0  0  0  0  0  0  0  0
   -2.7158    1.2849   -0.5194 C   0  0  0  0  0  0  0  0  0  0  0  0
   -3.5134    1.3316    0.5947 C   0  0  0  0  0  0  0  0  0  0  0  0
   -4.8923    1.5792    0.5235 C   0  0  0  0  0  0  0  0  0  0  0  0
   -5.4892    1.7859   -0.7004 C   0  0  0  0  0  0  0  0  0  0  0  0
   -4.6985    1.7417   -1.8328 C   0  0  0  0  0  0  0  0  0  0  0  0
   -3.3499    1.4983   -1.7487 C   0  0  0  0  0  0  0  0  0  0  0  0
   -4.0429   -2.9124   -2.5456 C   0  0  0  0  0  0  0  0  0  0  0  0
   -4.5021   -3.9386   -3.3522 O   0  0  0  0  0  0  0  0  0  0  0  0
   -4.5946   -1.7952   -2.6407 O   0  0  0  0  0  0  0  0  0  0  0  0
   -2.6362   -4.0153    0.3044 H   0  0  0  0  0  0  0  0  0  0  0  0
   -4.3559   -4.0357   -0.2696 H   0  0  0  0  0  0  0  0  0  0  0  0
   -3.0785   -5.1706   -0.9858 H   0  0  0  0  0  0  0  0  0  0  0  0
   -2.0243   -3.4725   -2.1058 H   0  0  0  0  0  0  0  0  0  0  0  0
   -3.4015   -1.5165   -0.3405 H   0  0  0  0  0  0  0  0  0  0  0  0
   -0.9001   -0.4504    1.0312 H   0  0  0  0  0  0  0  0  0  0  0  0
    1.0622    0.1862   -1.1262 H   0  0  0  0  0  0  0  0  0  0  0  0
    3.8321   -0.3716    2.3788 H   0  0  0  0  0  0  0  0  0  0  0  0
    3.7709   -2.0270    1.6705 H   0  0  0  0  0  0  0  0  0  0  0  0
    6.1878   -1.4806    2.6660 H   0  0  0  0  0  0  0  0  0  0  0  0
    8.4696   -1.1075    1.8807 H   0  0  0  0  0  0  0  0  0  0  0  0
    8.8344   -0.1326   -0.3309 H   0  0  0  0  0  0  0  0  0  0  0  0
    6.8868    0.4788   -1.7802 H   0  0  0  0  0  0  0  0  0  0  0  0
    4.6030    0.0816   -0.9401 H   0  0  0  0  0  0  0  0  0  0  0  0
   -0.8527    1.2508   -1.4940 H   0  0  0  0  0  0  0  0  0  0  0  0
   -0.2124    3.3436   -1.3081 H   0  0  0  0  0  0  0  0  0  0  0  0
    0.8899    5.1210    0.0390 H   0  0  0  0  0  0  0  0  0  0  0  0
    1.1116    4.8783    2.4706 H   0  0  0  0  0  0  0  0  0  0  0  0
    0.2283    2.8364    3.6147 H   0  0  0  0  0  0  0  0  0  0  0  0
   -0.8362    1.1199    2.2651 H   0  0  0  0  0  0  0  0  0  0  0  0
   -3.0780    1.1723    1.5678 H   0  0  0  0  0  0  0  0  0  0  0  0
   -5.4834    1.6058    1.4457 H   0  0  0  0  0  0  0  0  0  0  0  0
   -6.5439    1.9783   -0.7904 H   0  0  0  0  0  0  0  0  0  0  0  0
   -5.1761    1.9055   -2.7925 H   0  0  0  0  0  0  0  0  0  0  0  0
   -2.7201    1.4620   -2.6414 H   0  0  0  0  0  0  0  0  0  0  0  0
   -3.9893   -4.3074   -4.1411 H   0  0  0  0  0  0  0  0  0  0  0  0
  1  2  1  0
  2  3  1  0
  3  4  1  0
  4  5  2  0
  4  6  1  0
  6  7  1  0
  7  8  1  0
  8  9  2  0
  8 10  1  0
 10 11  1  0
 11 12  1  0
 12 13  2  0
 13 14  1  0
 14 15  2  0
 15 16  1  0
 16 17  2  0
  6 18  1  0
 18 19  1  0
 19 20  2  0
 20 21  1  0
 21 22  2  0
 22 23  1  0
 23 24  2  0
 18 25  1  0
 25 26  2  0
 26 27  1  0
 27 28  2  0
 28 29  1  0
 29 30  2  0
  2 31  1  0
 31 32  1  0
 31 33  2  0
 17 12  1  0
 24 19  1  0
 30 25  1  0
  1 34  1  0
  1 35  1  0
  1 36  1  0
  2 37  1  6
  3 38  1  0
  6 39  1  1
  7 40  1  0
 11 41  1  0
 11 42  1  0
 13 43  1  0
 14 44  1  0
 15 45  1  0
 16 46  1  0
 17 47  1  0
 18 48  1  0
 20 49  1  0
 21 50  1  0
 22 51  1  0
 23 52  1  0
 24 53  1  0
 26 54  1  0
 27 55  1  0
 28 56  1  0
 29 57  1  0
 30 58  1  0
 32 59  1  0
M  END
$$$$
[H]c1c([H])c([H])c(C2=NC([H])([H])c3nnc(C([H])([H])[H])n3-c3sc(C#CC([H])([H])N4C(=O)C([H])([H])C([H])([H])c5c([H])c([H])c([H])c([H])c54)c([H])c32)c(Cl)c1[H]
     RDKit          3D

 55 60  0  0  0  0  0  0  0  0999 V2000
    1.9133   -4.2293   -1.0653 C   0  0  0  0  0  0  0  0  0  0  0  0
    3.3115   -3.6975   -1.1990 C   0  0  0  0  0  0  0  0  0  0  0  0
    4.4798   -4.3215   -1.4060 N   0  0  0  0  0  0  0  0  0  0  0  0
    5.4826   -3.4214   -1.4751 N   0  0  0  0  0  0  0  0  0  0  0  0
    4.9829   -2.2161   -1.3157 C   0  0  0  0  0  0  0  0  0  0  0  0
    5.6262   -0.8654   -1.3280 C   0  0  0  0  0  0  0  0  0  0  0  0
    5.2440   -0.0647   -0.1864 N   0  0  0  0  0  0  0  0  0  0  0  0
    4.0520    0.2762    0.2834 C   0  0  0  0  0  0  0  0  0  0  0  0
    2.7897   -0.1401   -0.3561 C   0  0  0  0  0  0  0  0  0  0  0  0
    1.7082    0.6524   -0.4215 C   0  0  0  0  0  0  0  0  0  0  0  0
    0.5856    0.1778   -1.0405 C   0  0  0  0  0  0  0  0  0  0  0  0
    1.0603   -1.3970   -1.5374 S   0  0  0  0  0  0  0  0  0  0  0  0
    2.6574   -1.3870   -0.9457 C   0  0  0  0  0  0  0  0  0  0  0  0
    3.6415   -2.4051   -1.1452 N   0  0  0  0  0  0  0  0  0  0  0  0
   -0.6867    0.8205   -1.2357 C   0  0  0  0  0  0  0  0  0  0  0  0
   -1.7631    1.3401   -1.4014 C   0  0  0  0  0  0  0  0  0  0  0  0
   -3.0793    1.9973   -1.5882 C   0  0  0  0  0  0  0  0  0  0  0  0
   -4.1674    1.0701   -1.3969 N   0  0  0  0  0  0  0  0  0  0  0  0
   -4.7166    0.3098   -2.4754 C   0  0  0  0  0  0  0  0  0  0  0  0
   -4.5040    0.6696   -3.6554 O   0  0  0  0  0  0  0  0  0  0  0  0
   -5.5373   -0.9022   -2.2356 C   0  0  0  0  0  0  0  0  0  0  0  0
   -6.3751   -0.7927   -1.0091 C   0  0  0  0  0  0  0  0  0  0  0  0
   -5.7491    0.0187    0.0815 C   0  0  0  0  0  0  0  0  0  0  0  0
   -6.2781   -0.1586    1.3307 C   0  0  0  0  0  0  0  0  0  0  0  0
   -5.8058    0.5228    2.4256 C   0  0  0  0  0  0  0  0  0  0  0  0
   -4.7719    1.4049    2.2480 C   0  0  0  0  0  0  0  0  0  0  0  0
   -4.2192    1.6000    0.9854 C   0  0  0  0  0  0  0  0  0  0  0  0
   -4.7191    0.8953   -0.1043 C   0  0  0  0  0  0  0  0  0  0  0  0
    4.1169    1.1887    1.3957 C   0  0  0  0  0  0  0  0  0  0  0  0
    5.3588    1.8418    1.5489 C   0  0  0  0  0  0  0  0  0  0  0  0
    5.6497    2.6227    2.6001 C   0  0  0  0  0  0  0  0  0  0  0  0
    4.7325    2.8232    3.5913 C   0  0  0  0  0  0  0  0  0  0  0  0
    3.5185    2.2036    3.4809 C   0  0  0  0  0  0  0  0  0  0  0  0
    3.2162    1.3875    2.3898 C   0  0  0  0  0  0  0  0  0  0  0  0
    1.7520    0.4260    2.5325 Cl  0  0  0  0  0  0  0  0  0  0  0  0
    1.3410   -4.0555   -2.0163 H   0  0  0  0  0  0  0  0  0  0  0  0
    1.4077   -3.8253   -0.1819 H   0  0  0  0  0  0  0  0  0  0  0  0
    1.9546   -5.3263   -0.9571 H   0  0  0  0  0  0  0  0  0  0  0  0
    6.7107   -1.0083   -1.2655 H   0  0  0  0  0  0  0  0  0  0  0  0
    5.3089   -0.3207   -2.2366 H   0  0  0  0  0  0  0  0  0  0  0  0
    1.6840    1.7049   -0.0362 H   0  0  0  0  0  0  0  0  0  0  0  0
   -3.1753    2.3589   -2.6432 H   0  0  0  0  0  0  0  0  0  0  0  0
   -3.1029    2.8863   -0.9691 H   0  0  0  0  0  0  0  0  0  0  0  0
   -6.2136   -1.0592   -3.1097 H   0  0  0  0  0  0  0  0  0  0  0  0
   -4.9075   -1.8221   -2.1664 H   0  0  0  0  0  0  0  0  0  0  0  0
   -7.3733   -0.3430   -1.1921 H   0  0  0  0  0  0  0  0  0  0  0  0
   -6.5555   -1.8187   -0.5854 H   0  0  0  0  0  0  0  0  0  0  0  0
   -7.0944   -0.8469    1.5059 H   0  0  0  0  0  0  0  0  0  0  0  0
   -6.2555    0.3527    3.4051 H   0  0  0  0  0  0  0  0  0  0  0  0
   -4.3893    1.9462    3.0893 H   0  0  0  0  0  0  0  0  0  0  0  0
   -3.4050    2.3059    0.9093 H   0  0  0  0  0  0  0  0  0  0  0  0
    6.1084    1.7029    0.7640 H   0  0  0  0  0  0  0  0  0  0  0  0
    6.6455    3.0967    2.6427 H   0  0  0  0  0  0  0  0  0  0  0  0
    5.0243    3.4677    4.4139 H   0  0  0  0  0  0  0  0  0  0  0  0
    2.7802    2.3535    4.2598 H   0  0  0  0  0  0  0  0  0  0  0  0
  1  2  1  0
  2  3  2  0
  3  4  1  0
  4  5  2  0
  5  6  1  0
  6  7  1  0
  7  8  2  0
  8  9  1  0
  9 10  1  0
 10 11  2  0
 11 12  1  0
 12 13  1  0
 13 14  1  0
 11 15  1  0
 15 16  3  0
 16 17  1  0
 17 18  1  0
 18 19  1  0
 19 20  2  0
 19 21  1  0
 21 22  1  0
 22 23  1  0
 23 24  2  0
 24 25  1  0
 25 26  2  0
 26 27  1  0
 27 28  2  0
  8 29  1  0
 29 30  2  0
 30 31  1  0
 31 32  2  0
 32 33  1  0
 33 34  2  0
 34 35  1  0
 14  2  1  0
 28 18  1  0
 34 29  1  0
 14  5  1  0
 28 23  1  0
 13  9  2  0
  1 36  1  0
  1 37  1  0
  1 38  1  0
  6 39  1  0
  6 40  1  0
 10 41  1  0
 17 42  1  0
 17 43  1  0
 21 44  1  0
 21 45  1  0
 22 46  1  0
 22 47  1  0
 24 48  1  0
 25 49  1  0
 26 50  1  0
 27 51  1  0
 30 52  1  0
 31 53  1  0
 32 54  1  0
 33 55  1  0
M  END
$$$$
[H]OC(=O)[C@@]([H])(N([H])C(=O)[C@@]([H])(N([H])C(=O)[C@@]([H])(N([H])C(=O)[C@@]([H])(N([H])C(=O)[C@@]([H])(N([H])C(=O)[C@@]([H])(N([H])C(=O)[C@@]([H])(N([H])C(=O)C([H])([H])[H])C([H])([H])O[H])C([H])(C([H])([H])[H])C([H])([H])[H])C([H])([H])C([H])([H])C([H])([H])N=C(N([H])[H])N([H])[H])C([H])([H])O[H])C([H])(C([H])([H])[H])C([H])([H])[H])C([H])([H])O[H])C([H])([H])O[H]
     RDKit          3D

107106  0  0  0  0  0  0  0  0999 V2000
   -7.3527   -4.9796    5.2070 C   0  0  0  0  0  0  0  0  0  0  0  0
   -6.8229   -5.0331    3.8226 C   0  0  0  0  0  0  0  0  0  0  0  0
   -5.9070   -5.8508    3.5629 O   0  0  0  0  0  0  0  0  0  0  0  0
   -7.2990   -4.2036    2.7814 N   0  0  0  0  0  0  0  0  0  0  0  0
   -6.7834   -4.2443    1.4337 C   0  0  1  0  0  0  0  0  0  0  0  0
   -7.8648   -4.4004    0.4360 C   0  0  0  0  0  0  0  0  0  0  0  0
   -8.5926   -5.5961    0.6274 O   0  0  0  0  0  0  0  0  0  0  0  0
   -5.9732   -3.0027    1.1757 C   0  0  0  0  0  0  0  0  0  0  0  0
   -5.4103   -2.6004    2.2820 O   0  0  0  0  0  0  0  0  0  0  0  0
   -5.8059   -2.3523    0.0055 N   0  0  0  0  0  0  0  0  0  0  0  0
   -5.6142   -1.6634   -1.1776 C   0  0  1  0  0  0  0  0  0  0  0  0
   -6.2618   -0.3002   -1.2574 C   0  0  0  0  0  0  0  0  0  0  0  0
   -7.7802   -0.5987   -1.0992 C   0  0  0  0  0  0  0  0  0  0  0  0
   -5.9313    0.6171   -0.1317 C   0  0  0  0  0  0  0  0  0  0  0  0
   -4.2592   -1.6043   -1.7413 C   0  0  0  0  0  0  0  0  0  0  0  0
   -3.5426   -2.6784   -1.8026 O   0  0  0  0  0  0  0  0  0  0  0  0
   -3.7282   -0.3925   -2.2140 N   0  0  0  0  0  0  0  0  0  0  0  0
   -2.4014   -0.2307   -2.8122 C   0  0  1  0  0  0  0  0  0  0  0  0
   -2.2736    0.9965   -3.6170 C   0  0  0  0  0  0  0  0  0  0  0  0
   -2.5296    2.3028   -2.9691 C   0  0  0  0  0  0  0  0  0  0  0  0
   -1.6722    2.7384   -1.8483 C   0  0  0  0  0  0  0  0  0  0  0  0
   -2.1210    4.0526   -1.3604 N   0  0  0  0  0  0  0  0  0  0  0  0
   -1.9028    5.1524   -1.9242 C   0  0  0  0  0  0  0  0  0  0  0  0
   -1.1808    5.3367   -3.1361 N   0  0  0  0  0  0  0  0  0  0  0  0
   -2.4342    6.3394   -1.3031 N   0  0  0  0  0  0  0  0  0  0  0  0
   -1.4043   -0.3481   -1.7390 C   0  0  0  0  0  0  0  0  0  0  0  0
   -1.8204   -0.5910   -0.5545 O   0  0  0  0  0  0  0  0  0  0  0  0
   -0.0059   -0.2096   -1.9523 N   0  0  0  0  0  0  0  0  0  0  0  0
    0.8147   -0.3710   -0.7481 C   0  0  1  0  0  0  0  0  0  0  0  0
    1.4838   -1.7595   -0.8445 C   0  0  0  0  0  0  0  0  0  0  0  0
    0.4474   -2.6877   -0.9360 O   0  0  0  0  0  0  0  0  0  0  0  0
    1.8116    0.6925   -0.6864 C   0  0  0  0  0  0  0  0  0  0  0  0
    1.9890    1.4979   -1.6164 O   0  0  0  0  0  0  0  0  0  0  0  0
    2.5857    0.7922    0.4861 N   0  0  0  0  0  0  0  0  0  0  0  0
    3.6052    1.8730    0.5909 C   0  0  1  0  0  0  0  0  0  0  0  0
    3.1017    2.7727    1.6825 C   0  0  0  0  0  0  0  0  0  0  0  0
    1.7457    3.3426    1.2648 C   0  0  0  0  0  0  0  0  0  0  0  0
    4.0063    3.7760    2.2589 C   0  0  0  0  0  0  0  0  0  0  0  0
    4.9172    1.2190    0.9280 C   0  0  0  0  0  0  0  0  0  0  0  0
    4.8184    0.0011    1.2732 O   0  0  0  0  0  0  0  0  0  0  0  0
    6.1093    1.8952    0.8562 N   0  0  0  0  0  0  0  0  0  0  0  0
    7.4413    1.5220    1.1035 C   0  0  1  0  0  0  0  0  0  0  0  0
    7.8253    2.0526    2.4838 C   0  0  0  0  0  0  0  0  0  0  0  0
    7.0031    1.5466    3.4871 O   0  0  0  0  0  0  0  0  0  0  0  0
    7.8379    0.1298    0.9635 C   0  0  0  0  0  0  0  0  0  0  0  0
    7.2202   -0.8616    1.3238 O   0  0  0  0  0  0  0  0  0  0  0  0
    9.1177   -0.1446    0.3168 N   0  0  0  0  0  0  0  0  0  0  0  0
    9.5592   -1.5012    0.1419 C   0  0  1  0  0  0  0  0  0  0  0  0
    9.2260   -1.9621   -1.2953 C   0  0  0  0  0  0  0  0  0  0  0  0
    7.8253   -1.8494   -1.4551 O   0  0  0  0  0  0  0  0  0  0  0  0
   10.9903   -1.6340    0.3344 C   0  0  0  0  0  0  0  0  0  0  0  0
   11.5818   -2.8706    0.2466 O   0  0  0  0  0  0  0  0  0  0  0  0
   11.6852   -0.6345    0.5769 O   0  0  0  0  0  0  0  0  0  0  0  0
   -7.3008   -3.9384    5.6235 H   0  0  0  0  0  0  0  0  0  0  0  0
   -6.8780   -5.7238    5.8643 H   0  0  0  0  0  0  0  0  0  0  0  0
   -8.4239   -5.2403    5.1691 H   0  0  0  0  0  0  0  0  0  0  0  0
   -8.0825   -3.5175    3.0217 H   0  0  0  0  0  0  0  0  0  0  0  0
   -6.0940   -5.1368    1.3758 H   0  0  0  0  0  0  0  0  0  0  0  0
   -8.5856   -3.5382    0.3987 H   0  0  0  0  0  0  0  0  0  0  0  0
   -7.4348   -4.4255   -0.6126 H   0  0  0  0  0  0  0  0  0  0  0  0
   -7.9534   -6.3591    0.5948 H   0  0  0  0  0  0  0  0  0  0  0  0
   -4.9963   -1.4413    0.6116 H   0  0  0  0  0  0  0  0  0  0  0  0
   -6.2013   -2.2726   -1.9913 H   0  0  0  0  0  0  0  0  0  0  0  0
   -6.1550    0.1263   -2.2548 H   0  0  0  0  0  0  0  0  0  0  0  0
   -8.1126   -1.3345   -1.8476 H   0  0  0  0  0  0  0  0  0  0  0  0
   -8.3693    0.3346   -1.2447 H   0  0  0  0  0  0  0  0  0  0  0  0
   -7.9632   -0.9213   -0.0635 H   0  0  0  0  0  0  0  0  0  0  0  0
   -6.6187    0.4835    0.7405 H   0  0  0  0  0  0  0  0  0  0  0  0
   -4.8710    0.5651    0.1842 H   0  0  0  0  0  0  0  0  0  0  0  0
   -6.0995    1.6703   -0.4708 H   0  0  0  0  0  0  0  0  0  0  0  0
   -4.2741    0.4791   -2.1553 H   0  0  0  0  0  0  0  0  0  0  0  0
   -2.1900   -1.1461   -3.4583 H   0  0  0  0  0  0  0  0  0  0  0  0
   -2.8307    0.9214   -4.6042 H   0  0  0  0  0  0  0  0  0  0  0  0
   -1.1858    1.0236   -3.9749 H   0  0  0  0  0  0  0  0  0  0  0  0
   -3.6004    2.3487   -2.5648 H   0  0  0  0  0  0  0  0  0  0  0  0
   -2.5213    3.0920   -3.7559 H   0  0  0  0  0  0  0  0  0  0  0  0
   -0.6254    2.8297   -2.1938 H   0  0  0  0  0  0  0  0  0  0  0  0
   -1.6969    2.1207   -0.9338 H   0  0  0  0  0  0  0  0  0  0  0  0
   -1.6954    5.3913   -4.0529 H   0  0  0  0  0  0  0  0  0  0  0  0
   -0.1490    5.4180   -3.1190 H   0  0  0  0  0  0  0  0  0  0  0  0
   -1.9196    7.2280   -1.3198 H   0  0  0  0  0  0  0  0  0  0  0  0
   -3.3531    6.3039   -0.8186 H   0  0  0  0  0  0  0  0  0  0  0  0
    0.4678   -0.0160   -2.8438 H   0  0  0  0  0  0  0  0  0  0  0  0
    0.1858   -0.4422    0.1592 H   0  0  0  0  0  0  0  0  0  0  0  0
    1.9925   -1.9648    0.1200 H   0  0  0  0  0  0  0  0  0  0  0  0
    2.1414   -1.7892   -1.7162 H   0  0  0  0  0  0  0  0  0  0  0  0
    0.0607   -2.8345   -0.0404 H   0  0  0  0  0  0  0  0  0  0  0  0
    2.5009    0.1639    1.3097 H   0  0  0  0  0  0  0  0  0  0  0  0
    3.6201    2.4009   -0.3461 H   0  0  0  0  0  0  0  0  0  0  0  0
    2.8334    2.0619    2.5462 H   0  0  0  0  0  0  0  0  0  0  0  0
    1.5991    4.2406    1.9036 H   0  0  0  0  0  0  0  0  0  0  0  0
    0.9339    2.6181    1.3474 H   0  0  0  0  0  0  0  0  0  0  0  0
    1.8875    3.7236    0.2403 H   0  0  0  0  0  0  0  0  0  0  0  0
    4.5287    4.3480    1.4868 H   0  0  0  0  0  0  0  0  0  0  0  0
    4.7463    3.3505    2.9774 H   0  0  0  0  0  0  0  0  0  0  0  0
    3.3788    4.5558    2.7898 H   0  0  0  0  0  0  0  0  0  0  0  0
    5.9793    2.9447    0.4931 H   0  0  0  0  0  0  0  0  0  0  0  0
    8.0709    2.0963    0.3047 H   0  0  0  0  0  0  0  0  0  0  0  0
    8.8709    1.7866    2.7034 H   0  0  0  0  0  0  0  0  0  0  0  0
    7.7239    3.1578    2.4241 H   0  0  0  0  0  0  0  0  0  0  0  0
    6.7339    2.3272    4.0473 H   0  0  0  0  0  0  0  0  0  0  0  0
    9.6690    0.6774   -0.0022 H   0  0  0  0  0  0  0  0  0  0  0  0
    9.0011   -2.2245    0.7785 H   0  0  0  0  0  0  0  0  0  0  0  0
    9.7444   -1.3511   -2.0314 H   0  0  0  0  0  0  0  0  0  0  0  0
    9.4993   -3.0153   -1.3558 H   0  0  0  0  0  0  0  0  0  0  0  0
    7.3688   -2.6253   -1.0908 H   0  0  0  0  0  0  0  0  0  0  0  0
   12.5693   -3.0235    0.2160 H   0  0  0  0  0  0  0  0  0  0  0  0
  1  2  1  0
  2  3  2  0
  2  4  1  0
  4  5  1  0
  5  6  1  0
  6  7  1  0
  5  8  1  0
  8  9  2  0
  8 10  1  0
 10 11  1  0
 11 12  1  0
 12 13  1  0
 12 14  1  0
 11 15  1  0
 15 16  2  0
 15 17  1  0
 17 18  1  0
 18 19  1  0
 19 20  1  0
 20 21  1  0
 21 22  1  0
 22 23  2  3
 23 24  1  0
 23 25  1  0
 18 26  1  0
 26 27  2  0
 26 28  1  0
 28 29  1  0
 29 30  1  0
 30 31  1  0
 29 32  1  0
 32 33  2  0
 32 34  1  0
 34 35  1  0
 35 36  1  0
 36 37  1  0
 36 38  1  0
 35 39  1  0
 39 40  2  0
 39 41  1  0
 41 42  1  0
 42 43  1  0
 43 44  1  0
 42 45  1  0
 45 46  2  0
 45 47  1  0
 47 48  1  0
 48 49  1  0
 49 50  1  0
 48 51  1  0
 51 52  1  0
 51 53  2  0
  1 54  1  0
  1 55  1  0
  1 56  1  0
  4 57  1  0
  5 58  1  1
  6 59  1  0
  6 60  1  0
  7 61  1  0
 10 62  1  0
 11 63  1  6
 12 64  1  0
 13 65  1  0
 13 66  1  0
 13 67  1  0
 14 68  1  0
 14 69  1  0
 14 70  1  0
 17 71  1  0
 18 72  1  6
 19 73  1  0
 19 74  1  0
 20 75  1  0
 20 76  1  0
 21 77  1  0
 21 78  1  0
 24 79  1  0
 24 80  1  0
 25 81  1  0
 25 82  1  0
 28 83  1  0
 29 84  1  1
 30 85  1  0
 30 86  1  0
 31 87  1  0
 34 88  1  0
 35 89  1  6
 36 90  1  0
 37 91  1  0
 37 92  1  0
 37 93  1  0
 38 94  1  0
 38 95  1  0
 38 96  1  0
 41 97  1  0
 42 98  1  6
 43 99  1  0
 43100  1  0
 44101  1  0
 47102  1  0
 48103  1  1
 49104  1  0
 49105  1  0
 50106  1  0
 52107  1  0
M  END
$$$$
[H]OC([H])([H])[C@@]1([H])[C@@]([H])(C([H])([H])OP(=O)(O[H])O[H])N([H])C([H])([H])[C@]([H])(O[H])[C@@]([H])(O[H])[C@]1([H])O[H]
     RDKit          3D

 36 36  0  0  0  0  0  0  0  0999 V2000
    1.8418    2.4219    0.5204 O   0  0  0  0  0  0  0  0  0  0  0  0
    0.5715    2.1271    0.9853 C   0  0  0  0  0  0  0  0  0  0  0  0
   -0.2159    1.3262   -0.0060 C   0  0  2  0  0  0  0  0  0  0  0  0
   -1.5853    1.0266    0.5328 C   0  0  1  0  0  0  0  0  0  0  0  0
   -2.1570    2.1934    0.9991 O   0  0  0  0  0  0  0  0  0  0  0  0
   -2.3719    0.4157   -0.6210 C   0  0  2  0  0  0  0  0  0  0  0  0
   -3.6181    1.0045   -0.6320 O   0  0  0  0  0  0  0  0  0  0  0  0
   -2.3917   -1.0658   -0.3878 C   0  0  1  0  0  0  0  0  0  0  0  0
   -3.5211   -1.6968   -0.8671 O   0  0  0  0  0  0  0  0  0  0  0  0
   -1.1073   -1.6437   -0.9527 C   0  0  0  0  0  0  0  0  0  0  0  0
   -0.1742   -0.6905   -1.3952 N   0  0  0  0  0  0  0  0  0  0  0  0
    0.5202    0.0867   -0.4516 C   0  0  2  0  0  0  0  0  0  0  0  0
    1.0088   -0.7360    0.7338 C   0  0  0  0  0  0  0  0  0  0  0  0
    1.9610   -1.6214    0.2271 O   0  0  0  0  0  0  0  0  0  0  0  0
    3.5003   -1.0135    0.5355 P   0  0  0  0  0  0  0  0  0  0  0  0
    4.6781   -2.1791    0.1647 O   0  0  0  0  0  0  0  0  0  0  0  0
    3.8530    0.3389   -0.4307 O   0  0  0  0  0  0  0  0  0  0  0  0
    3.5767   -0.5670    1.9679 O   0  0  0  0  0  0  0  0  0  0  0  0
    1.7512    2.8358   -0.3725 H   0  0  0  0  0  0  0  0  0  0  0  0
    0.0283    3.0963    1.1193 H   0  0  0  0  0  0  0  0  0  0  0  0
    0.6142    1.6703    1.9916 H   0  0  0  0  0  0  0  0  0  0  0  0
   -0.3505    1.9628   -0.9106 H   0  0  0  0  0  0  0  0  0  0  0  0
   -1.4823    0.3253    1.3834 H   0  0  0  0  0  0  0  0  0  0  0  0
   -2.2098    2.2266    1.9969 H   0  0  0  0  0  0  0  0  0  0  0  0
   -1.8809    0.5923   -1.5991 H   0  0  0  0  0  0  0  0  0  0  0  0
   -4.3698    0.3761   -0.6505 H   0  0  0  0  0  0  0  0  0  0  0  0
   -2.3543   -1.2665    0.7127 H   0  0  0  0  0  0  0  0  0  0  0  0
   -3.2675   -2.6111   -1.1761 H   0  0  0  0  0  0  0  0  0  0  0  0
   -1.4233   -2.2497   -1.8410 H   0  0  0  0  0  0  0  0  0  0  0  0
   -0.6606   -2.3956   -0.2542 H   0  0  0  0  0  0  0  0  0  0  0  0
   -0.1786   -0.4005   -2.3705 H   0  0  0  0  0  0  0  0  0  0  0  0
    1.4545    0.4602   -0.9451 H   0  0  0  0  0  0  0  0  0  0  0  0
    0.1856   -1.2751    1.2217 H   0  0  0  0  0  0  0  0  0  0  0  0
    1.5008   -0.0945    1.4809 H   0  0  0  0  0  0  0  0  0  0  0  0
    4.4834   -3.0093    0.6701 H   0  0  0  0  0  0  0  0  0  0  0  0
    3.7905    0.0299   -1.3797 H   0  0  0  0  0  0  0  0  0  0  0  0
  1  2  1  0
  2  3  1  0
  3  4  1  0
  4  5  1  0
  4  6  1  0
  6  7  1  0
  6  8  1  0
  8  9  1  0
  8 10  1  0
 10 11  1  0
 11 12  1  0
 12 13  1  0
 13 14  1  0
 14 15  1  0
 15 16  1  0
 15 17  1  0
 15 18  2  0
 12  3  1  0
  1 19  1  0
  2 20  1  0
  2 21  1  0
  3 22  1  6
  4 23  1  1
  5 24  1  0
  6 25  1  6
  7 26  1  0
  8 27  1  1
  9 28  1  0
 10 29  1  0
 10 30  1  0
 11 31  1  0
 12 32  1  6
 13 33  1  0
 13 34  1  0
 16 35  1  0
 17 36  1  0
M  END
$$$$
[H]c1c([H])c([H])c2c(c1[H])c1c3c(c4c5c([H])c([H])c([H])c([H])c5n5c4c1n2[C@@]1(C([H])([H])[H])O[C@]5([H])C([H])([H])[C@]([H])(N([H])C([H])([H])[H])[C@@]1([H])OC([H])([H])[H])C(=O)N([H])C3([H])[H]
     RDKit          3D

 61 68  0  0  0  0  0  0  0  0999 V2000
   -4.1558   -1.9431    1.1588 C   0  0  0  0  0  0  0  0  0  0  0  0
   -2.9510   -1.2988    1.5181 N   0  0  0  0  0  0  0  0  0  0  0  0
   -2.0807   -0.8600    0.4920 C   0  0  1  0  0  0  0  0  0  0  0  0
   -1.6342   -2.0226   -0.3955 C   0  0  0  0  0  0  0  0  0  0  0  0
   -0.7617   -1.5377   -1.5088 C   0  0  1  0  0  0  0  0  0  0  0  0
   -0.9681   -0.3443   -1.9998 O   0  0  0  0  0  0  0  0  0  0  0  0
   -1.4493    0.7203   -1.2530 C   0  0  1  0  0  0  0  0  0  0  0  0
   -1.8886    1.6949   -2.3320 C   0  0  0  0  0  0  0  0  0  0  0  0
   -2.5793    0.2007   -0.4212 C   0  0  2  0  0  0  0  0  0  0  0  0
   -3.2483    1.1396    0.3092 O   0  0  0  0  0  0  0  0  0  0  0  0
   -4.5606    1.3976    0.0437 C   0  0  0  0  0  0  0  0  0  0  0  0
   -0.3147    1.2600   -0.4993 N   0  0  0  0  0  0  0  0  0  0  0  0
   -0.1830    2.5167   -0.0369 C   0  0  0  0  0  0  0  0  0  0  0  0
   -0.9889    3.6063   -0.0588 C   0  0  0  0  0  0  0  0  0  0  0  0
   -0.6121    4.8097    0.5000 C   0  0  0  0  0  0  0  0  0  0  0  0
    0.6187    4.9759    1.1199 C   0  0  0  0  0  0  0  0  0  0  0  0
    1.4479    3.8772    1.1500 C   0  0  0  0  0  0  0  0  0  0  0  0
    1.0593    2.6881    0.5903 C   0  0  0  0  0  0  0  0  0  0  0  0
    1.6976    1.4894    0.5031 C   0  0  0  0  0  0  0  0  0  0  0  0
    2.9401    1.0641    0.9343 C   0  0  0  0  0  0  0  0  0  0  0  0
    4.0147    1.7914    1.6605 C   0  0  0  0  0  0  0  0  0  0  0  0
    5.0836    0.8687    1.8446 N   0  0  0  0  0  0  0  0  0  0  0  0
    4.7142   -0.3865    1.2763 C   0  0  0  0  0  0  0  0  0  0  0  0
    5.4696   -1.3577    1.3091 O   0  0  0  0  0  0  0  0  0  0  0  0
    3.3871   -0.2475    0.7186 C   0  0  0  0  0  0  0  0  0  0  0  0
    2.5135   -1.0867    0.0529 C   0  0  0  0  0  0  0  0  0  0  0  0
    2.5652   -2.4180   -0.3313 C   0  0  0  0  0  0  0  0  0  0  0  0
    3.5101   -3.3771   -0.2018 C   0  0  0  0  0  0  0  0  0  0  0  0
    3.2584   -4.6635   -0.7091 C   0  0  0  0  0  0  0  0  0  0  0  0
    2.0695   -4.9340   -1.3251 C   0  0  0  0  0  0  0  0  0  0  0  0
    1.0884   -3.9802   -1.4726 C   0  0  0  0  0  0  0  0  0  0  0  0
    1.3575   -2.7294   -0.9683 C   0  0  0  0  0  0  0  0  0  0  0  0
    0.6082   -1.6368   -0.9706 N   0  0  0  0  0  0  0  0  0  0  0  0
    1.2675   -0.6351   -0.3712 C   0  0  0  0  0  0  0  0  0  0  0  0
    0.8452    0.6650   -0.1514 C   0  0  0  0  0  0  0  0  0  0  0  0
   -4.9798   -1.5161    1.7909 H   0  0  0  0  0  0  0  0  0  0  0  0
   -4.1702   -3.0438    1.4002 H   0  0  0  0  0  0  0  0  0  0  0  0
   -4.4563   -1.7550    0.1088 H   0  0  0  0  0  0  0  0  0  0  0  0
   -2.5027   -1.7423    2.3291 H   0  0  0  0  0  0  0  0  0  0  0  0
   -1.1574   -0.4745    1.0562 H   0  0  0  0  0  0  0  0  0  0  0  0
   -1.1276   -2.7482    0.2625 H   0  0  0  0  0  0  0  0  0  0  0  0
   -2.5365   -2.4864   -0.8252 H   0  0  0  0  0  0  0  0  0  0  0  0
   -0.8051   -2.2939   -2.3191 H   0  0  0  0  0  0  0  0  0  0  0  0
   -2.8708    2.1485   -2.1755 H   0  0  0  0  0  0  0  0  0  0  0  0
   -1.0891    2.4862   -2.4855 H   0  0  0  0  0  0  0  0  0  0  0  0
   -1.9558    1.2339   -3.3525 H   0  0  0  0  0  0  0  0  0  0  0  0
   -3.2952   -0.2451   -1.1383 H   0  0  0  0  0  0  0  0  0  0  0  0
   -4.8579    2.1968    0.8179 H   0  0  0  0  0  0  0  0  0  0  0  0
   -4.7134    1.9913   -0.9141 H   0  0  0  0  0  0  0  0  0  0  0  0
   -5.2774    0.5845    0.0931 H   0  0  0  0  0  0  0  0  0  0  0  0
   -1.9377    3.5500   -0.5099 H   0  0  0  0  0  0  0  0  0  0  0  0
   -1.2582    5.6788    0.4803 H   0  0  0  0  0  0  0  0  0  0  0  0
    0.9168    5.9220    1.5600 H   0  0  0  0  0  0  0  0  0  0  0  0
    2.4244    3.9900    1.6355 H   0  0  0  0  0  0  0  0  0  0  0  0
    4.3906    2.6434    1.0489 H   0  0  0  0  0  0  0  0  0  0  0  0
    3.6444    2.1852    2.6335 H   0  0  0  0  0  0  0  0  0  0  0  0
    5.9851    1.1013    2.3240 H   0  0  0  0  0  0  0  0  0  0  0  0
    4.4514   -3.2125    0.2699 H   0  0  0  0  0  0  0  0  0  0  0  0
    4.0299   -5.4241   -0.5965 H   0  0  0  0  0  0  0  0  0  0  0  0
    1.8571   -5.9210   -1.7227 H   0  0  0  0  0  0  0  0  0  0  0  0
    0.1517   -4.1556   -1.9466 H   0  0  0  0  0  0  0  0  0  0  0  0
  1  2  1  0
  2  3  1  0
  3  4  1  0
  4  5  1  0
  5  6  1  0
  6  7  1  0
  7  8  1  6
  7  9  1  0
  9 10  1  0
 10 11  1  0
  7 12  1  0
 12 13  1  0
 13 14  2  0
 14 15  1  0
 15 16  2  0
 16 17  1  0
 17 18  2  0
 18 19  1  0
 19 20  2  0
 20 21  1  0
 21 22  1  0
 22 23  1  0
 23 24  2  0
 23 25  1  0
 25 26  2  0
 26 27  1  0
 27 28  2  0
 28 29  1  0
 29 30  2  0
 30 31  1  0
 31 32  2  0
 32 33  1  0
 33 34  1  0
 34 35  2  0
  9  3  1  0
 35 12  1  0
 33  5  1  0
 18 13  1  0
 35 19  1  0
 25 20  1  0
 34 26  1  0
 32 27  1  0
  1 36  1  0
  1 37  1  0
  1 38  1  0
  2 39  1  0
  3 40  1  1
  4 41  1  0
  4 42  1  0
  5 43  1  6
  8 44  1  0
  8 45  1  0
  8 46  1  0
  9 47  1  6
 11 48  1  0
 11 49  1  0
 11 50  1  0
 14 51  1  0
 15 52  1  0
 16 53  1  0
 17 54  1  0
 21 55  1  0
 21 56  1  0
 22 57  1  0
 28 58  1  0
 29 59  1  0
 30 60  1  0
 31 61  1  0
M  END
$$$$
[H]N=C(N([H])[H])N([H])C([H])([H])C([H])([H])C([H])([H])[C@@]1([H])C(=O)N([H])[C@@]([H])(C([H])([H])c2c([H])c([H])c([H])c([H])c2[H])C(=O)N2C([H])([H])C([H])([H])C([H])([H])[C@@]2([H])C(=O)N([H])[C@@]([H])(C([H])([H])c2c([H])c([H])c([H])c([H])c2[H])C(=O)N([H])[C@@]([H])(C([H])([H])c2c([H])c([H])c([H])c([H])c2[H])C(=O)N2C([H])([H])C([H])([H])C([H])([H])[C@@]2([H])C(=O)N1[H]
     RDKit          3D

111116  0  0  0  0  0  0  0  0999 V2000
    6.8972   -4.2766   -0.4867 N   0  0  0  0  0  0  0  0  0  0  0  0
    6.0109   -4.5269   -1.5664 C   0  0  0  0  0  0  0  0  0  0  0  0
    6.3315   -5.3679   -2.4847 N   0  0  0  0  0  0  0  0  0  0  0  0
    4.7376   -3.8205   -1.6182 N   0  0  0  0  0  0  0  0  0  0  0  0
    3.5147   -4.5147   -1.6349 C   0  0  0  0  0  0  0  0  0  0  0  0
    2.2686   -3.7143   -1.5239 C   0  0  0  0  0  0  0  0  0  0  0  0
    2.0105   -2.9593   -0.2781 C   0  0  0  0  0  0  0  0  0  0  0  0
    2.8901   -1.8657    0.1519 C   0  0  2  0  0  0  0  0  0  0  0  0
    2.5139   -1.3175    1.4705 N   0  0  0  0  0  0  0  0  0  0  0  0
    1.5359   -1.6336    2.3750 C   0  0  0  0  0  0  0  0  0  0  0  0
    1.9649   -2.2612    3.4379 O   0  0  0  0  0  0  0  0  0  0  0  0
    0.0863   -1.4065    2.4051 C   0  0  2  0  0  0  0  0  0  0  0  0
   -0.2391   -0.9828    3.8394 C   0  0  0  0  0  0  0  0  0  0  0  0
   -0.3454   -2.3232    4.5349 C   0  0  0  0  0  0  0  0  0  0  0  0
   -0.4478   -3.3931    3.4801 C   0  0  0  0  0  0  0  0  0  0  0  0
   -0.7409   -2.6034    2.2694 N   0  0  0  0  0  0  0  0  0  0  0  0
   -1.5943   -2.7593    1.1506 C   0  0  0  0  0  0  0  0  0  0  0  0
   -1.5273   -3.8772    0.5741 O   0  0  0  0  0  0  0  0  0  0  0  0
   -2.5352   -1.7461    0.6107 C   0  0  2  0  0  0  0  0  0  0  0  0
   -3.9737   -2.1704    0.7715 C   0  0  0  0  0  0  0  0  0  0  0  0
   -4.3719   -3.4087    0.1148 C   0  0  0  0  0  0  0  0  0  0  0  0
   -4.7524   -3.4073   -1.2065 C   0  0  0  0  0  0  0  0  0  0  0  0
   -5.1757   -4.5915   -1.8298 C   0  0  0  0  0  0  0  0  0  0  0  0
   -5.2145   -5.7669   -1.1265 C   0  0  0  0  0  0  0  0  0  0  0  0
   -4.8347   -5.7787    0.1983 C   0  0  0  0  0  0  0  0  0  0  0  0
   -4.4151   -4.5934    0.8088 C   0  0  0  0  0  0  0  0  0  0  0  0
   -2.1663   -1.2406   -0.6601 N   0  0  0  0  0  0  0  0  0  0  0  0
   -2.0451    0.1060   -1.0933 C   0  0  0  0  0  0  0  0  0  0  0  0
   -1.0789    0.4190   -1.8831 O   0  0  0  0  0  0  0  0  0  0  0  0
   -2.9546    1.1682   -0.7010 C   0  0  2  0  0  0  0  0  0  0  0  0
   -3.6245    1.8197   -1.9320 C   0  0  0  0  0  0  0  0  0  0  0  0
   -4.5701    2.8720   -1.4368 C   0  0  0  0  0  0  0  0  0  0  0  0
   -4.2445    4.1879   -1.2705 C   0  0  0  0  0  0  0  0  0  0  0  0
   -5.1419    5.1186   -0.8125 C   0  0  0  0  0  0  0  0  0  0  0  0
   -6.4317    4.7573   -0.4961 C   0  0  0  0  0  0  0  0  0  0  0  0
   -6.7806    3.4300   -0.6578 C   0  0  0  0  0  0  0  0  0  0  0  0
   -5.8810    2.5022   -1.1158 C   0  0  0  0  0  0  0  0  0  0  0  0
   -2.5301    2.1227    0.2769 N   0  0  0  0  0  0  0  0  0  0  0  0
   -1.3484    2.5822    0.8340 C   0  0  0  0  0  0  0  0  0  0  0  0
   -1.1313    2.0524    2.0343 O   0  0  0  0  0  0  0  0  0  0  0  0
   -0.2837    3.4937    0.4640 C   0  0  2  0  0  0  0  0  0  0  0  0
   -0.7470    4.9478    0.3447 C   0  0  0  0  0  0  0  0  0  0  0  0
   -0.2939    5.4031   -1.0192 C   0  0  0  0  0  0  0  0  0  0  0  0
   -0.1001    4.0942   -1.7360 C   0  0  0  0  0  0  0  0  0  0  0  0
    0.5380    3.2572   -0.6795 N   0  0  0  0  0  0  0  0  0  0  0  0
    1.6790    2.4799   -0.8118 C   0  0  0  0  0  0  0  0  0  0  0  0
    2.2434    2.4917   -1.9831 O   0  0  0  0  0  0  0  0  0  0  0  0
    2.3835    1.6193    0.1706 C   0  0  2  0  0  0  0  0  0  0  0  0
    3.2596    2.4936    1.0216 C   0  0  0  0  0  0  0  0  0  0  0  0
    4.2850    3.2663    0.3197 C   0  0  0  0  0  0  0  0  0  0  0  0
    3.9911    4.5197   -0.1968 C   0  0  0  0  0  0  0  0  0  0  0  0
    4.9436    5.2755   -0.8454 C   0  0  0  0  0  0  0  0  0  0  0  0
    6.2228    4.7823   -0.9894 C   0  0  0  0  0  0  0  0  0  0  0  0
    6.5605    3.5540   -0.4979 C   0  0  0  0  0  0  0  0  0  0  0  0
    5.5763    2.8228    0.1484 C   0  0  0  0  0  0  0  0  0  0  0  0
    3.1695    0.6341   -0.5436 N   0  0  0  0  0  0  0  0  0  0  0  0
    2.9003   -0.7064   -0.8156 C   0  0  0  0  0  0  0  0  0  0  0  0
    2.6284   -1.0144   -2.0275 O   0  0  0  0  0  0  0  0  0  0  0  0
    7.9145   -4.4772   -0.5367 H   0  0  0  0  0  0  0  0  0  0  0  0
    6.5165   -3.8763    0.3912 H   0  0  0  0  0  0  0  0  0  0  0  0
    7.2384   -5.8707   -2.4460 H   0  0  0  0  0  0  0  0  0  0  0  0
    4.8611   -2.7959   -1.6696 H   0  0  0  0  0  0  0  0  0  0  0  0
    3.5102   -5.1205   -2.6061 H   0  0  0  0  0  0  0  0  0  0  0  0
    3.4989   -5.3670   -0.8672 H   0  0  0  0  0  0  0  0  0  0  0  0
    2.0139   -3.1838   -2.4782 H   0  0  0  0  0  0  0  0  0  0  0  0
    1.4210   -4.5266   -1.5300 H   0  0  0  0  0  0  0  0  0  0  0  0
    1.8693   -3.7459    0.5263 H   0  0  0  0  0  0  0  0  0  0  0  0
    0.9356   -2.5844   -0.4014 H   0  0  0  0  0  0  0  0  0  0  0  0
    3.9116   -2.2547    0.3229 H   0  0  0  0  0  0  0  0  0  0  0  0
    3.2127   -0.5273    1.7195 H   0  0  0  0  0  0  0  0  0  0  0  0
   -0.2670   -0.6067    1.7265 H   0  0  0  0  0  0  0  0  0  0  0  0
   -1.1960   -0.4423    3.7900 H   0  0  0  0  0  0  0  0  0  0  0  0
    0.5524   -0.3422    4.2521 H   0  0  0  0  0  0  0  0  0  0  0  0
   -1.3017   -2.2530    5.1373 H   0  0  0  0  0  0  0  0  0  0  0  0
    0.4300   -2.5030    5.2973 H   0  0  0  0  0  0  0  0  0  0  0  0
    0.3884   -4.0658    3.3803 H   0  0  0  0  0  0  0  0  0  0  0  0
   -1.3187   -4.0374    3.7767 H   0  0  0  0  0  0  0  0  0  0  0  0
   -2.4457   -0.8579    1.3195 H   0  0  0  0  0  0  0  0  0  0  0  0
   -4.0831   -2.2717    1.9159 H   0  0  0  0  0  0  0  0  0  0  0  0
   -4.6917   -1.3329    0.5712 H   0  0  0  0  0  0  0  0  0  0  0  0
   -4.7492   -2.5233   -1.8283 H   0  0  0  0  0  0  0  0  0  0  0  0
   -5.4771   -4.6064   -2.8655 H   0  0  0  0  0  0  0  0  0  0  0  0
   -5.5422   -6.6921   -1.6018 H   0  0  0  0  0  0  0  0  0  0  0  0
   -4.8774   -6.7189    0.7229 H   0  0  0  0  0  0  0  0  0  0  0  0
   -4.1334   -4.6831    1.8493 H   0  0  0  0  0  0  0  0  0  0  0  0
   -1.9333   -1.9807   -1.4065 H   0  0  0  0  0  0  0  0  0  0  0  0
   -3.8897    0.6117   -0.3011 H   0  0  0  0  0  0  0  0  0  0  0  0
   -4.1530    0.9987   -2.4528 H   0  0  0  0  0  0  0  0  0  0  0  0
   -2.8987    2.2821   -2.6034 H   0  0  0  0  0  0  0  0  0  0  0  0
   -3.2506    4.5147   -1.5094 H   0  0  0  0  0  0  0  0  0  0  0  0
   -4.8703    6.1770   -0.6815 H   0  0  0  0  0  0  0  0  0  0  0  0
   -7.1271    5.5045   -0.1363 H   0  0  0  0  0  0  0  0  0  0  0  0
   -7.8095    3.1278   -0.4088 H   0  0  0  0  0  0  0  0  0  0  0  0
   -6.1363    1.4468   -1.2521 H   0  0  0  0  0  0  0  0  0  0  0  0
   -3.4426    2.6024    0.7161 H   0  0  0  0  0  0  0  0  0  0  0  0
    0.4818    3.5915    1.3145 H   0  0  0  0  0  0  0  0  0  0  0  0
   -1.8279    5.0501    0.5261 H   0  0  0  0  0  0  0  0  0  0  0  0
   -0.2574    5.6231    1.0722 H   0  0  0  0  0  0  0  0  0  0  0  0
   -1.0752    5.9876   -1.5410 H   0  0  0  0  0  0  0  0  0  0  0  0
    0.6565    5.9613   -0.9641 H   0  0  0  0  0  0  0  0  0  0  0  0
   -1.0874    3.6308   -1.8851 H   0  0  0  0  0  0  0  0  0  0  0  0
    0.4644    4.1611   -2.6488 H   0  0  0  0  0  0  0  0  0  0  0  0
    1.6846    1.0986    0.8513 H   0  0  0  0  0  0  0  0  0  0  0  0
    2.7199    3.2117    1.6650 H   0  0  0  0  0  0  0  0  0  0  0  0
    3.7808    1.8205    1.7885 H   0  0  0  0  0  0  0  0  0  0  0  0
    2.9957    4.9465   -0.1027 H   0  0  0  0  0  0  0  0  0  0  0  0
    4.6465    6.2418   -1.2231 H   0  0  0  0  0  0  0  0  0  0  0  0
    6.9474    5.4069   -1.5074 H   0  0  0  0  0  0  0  0  0  0  0  0
    7.5709    3.1498   -0.6050 H   0  0  0  0  0  0  0  0  0  0  0  0
    5.8992    1.8411    0.5257 H   0  0  0  0  0  0  0  0  0  0  0  0
    4.0984    1.0144   -0.9455 H   0  0  0  0  0  0  0  0  0  0  0  0
  1  2  1  0
  2  3  2  3
  2  4  1  0
  4  5  1  0
  5  6  1  0
  6  7  1  0
  7  8  1  0
  8  9  1  0
  9 10  1  0
 10 11  2  0
 10 12  1  0
 12 13  1  0
 13 14  1  0
 14 15  1  0
 15 16  1  0
 16 17  1  0
 17 18  2  0
 17 19  1  0
 19 20  1  0
 20 21  1  0
 21 22  2  0
 22 23  1  0
 23 24  2  0
 24 25  1  0
 25 26  2  0
 19 27  1  0
 27 28  1  0
 28 29  2  0
 28 30  1  0
 30 31  1  0
 31 32  1  0
 32 33  2  0
 33 34  1  0
 34 35  2  0
 35 36  1  0
 36 37  2  0
 30 38  1  0
 38 39  1  0
 39 40  2  0
 39 41  1  0
 41 42  1  0
 42 43  1  0
 43 44  1  0
 44 45  1  0
 45 46  1  0
 46 47  2  0
 46 48  1  0
 48 49  1  0
 49 50  1  0
 50 51  2  0
 51 52  1  0
 52 53  2  0
 53 54  1  0
 54 55  2  0
 48 56  1  0
 56 57  1  0
 57 58  2  0
 57  8  1  0
 16 12  1  0
 26 21  1  0
 37 32  1  0
 45 41  1  0
 55 50  1  0
  1 59  1  0
  1 60  1  0
  3 61  1  0
  4 62  1  0
  5 63  1  0
  5 64  1  0
  6 65  1  0
  6 66  1  0
  7 67  1  0
  7 68  1  0
  8 69  1  1
  9 70  1  0
 12 71  1  6
 13 72  1  0
 13 73  1  0
 14 74  1  0
 14 75  1  0
 15 76  1  0
 15 77  1  0
 19 78  1  1
 20 79  1  0
 20 80  1  0
 22 81  1  0
 23 82  1  0
 24 83  1  0
 25 84  1  0
 26 85  1  0
 27 86  1  0
 30 87  1  1
 31 88  1  0
 31 89  1  0
 33 90  1  0
 34 91  1  0
 35 92  1  0
 36 93  1  0
 37 94  1  0
 38 95  1  0
 41 96  1  1
 42 97  1  0
 42 98  1  0
 43 99  1  0
 43100  1  0
 44101  1  0
 44102  1  0
 48103  1  1
 49104  1  0
 49105  1  0
 51106  1  0
 52107  1  0
 53108  1  0
 54109  1  0
 55110  1  0
 56111  1  0
M  END
$$$$
[H]c1nc([C@]2(c3c([H])c([H])c([H])c([H])c3[H])C([H])([H])[C@@]2([H])C([H])([H])N([H])[H])c([H])c([H])c1[H]
     RDKit          3D

 33 35  0  0  0  0  0  0  0  0999 V2000
   -3.0995   -2.3631   -0.9811 N   0  0  0  0  0  0  0  0  0  0  0  0
   -2.2347   -1.8727    0.1039 C   0  0  0  0  0  0  0  0  0  0  0  0
   -1.7619   -0.5149   -0.3073 C   0  0  2  0  0  0  0  0  0  0  0  0
   -0.9601   -0.4079   -1.5977 C   0  0  0  0  0  0  0  0  0  0  0  0
   -0.4193   -0.0059   -0.1937 C   0  0  2  0  0  0  0  0  0  0  0  0
    0.7695   -0.7759    0.1738 C   0  0  0  0  0  0  0  0  0  0  0  0
    1.8846   -0.6201   -0.6604 C   0  0  0  0  0  0  0  0  0  0  0  0
    3.0440   -1.2850   -0.4154 C   0  0  0  0  0  0  0  0  0  0  0  0
    3.1375   -2.1309    0.6701 C   0  0  0  0  0  0  0  0  0  0  0  0
    2.0529   -2.2842    1.4839 C   0  0  0  0  0  0  0  0  0  0  0  0
    0.8708   -1.6165    1.2479 C   0  0  0  0  0  0  0  0  0  0  0  0
   -0.2250    1.4803   -0.0273 C   0  0  0  0  0  0  0  0  0  0  0  0
   -0.0203    1.9782    1.2353 C   0  0  0  0  0  0  0  0  0  0  0  0
    0.1618    3.3224    1.4401 C   0  0  0  0  0  0  0  0  0  0  0  0
    0.1341    4.1719    0.3351 C   0  0  0  0  0  0  0  0  0  0  0  0
   -0.0768    3.5927   -0.8983 C   0  0  0  0  0  0  0  0  0  0  0  0
   -0.2535    2.2812   -1.0897 N   0  0  0  0  0  0  0  0  0  0  0  0
   -2.6426   -2.1460   -1.8991 H   0  0  0  0  0  0  0  0  0  0  0  0
   -4.0396   -1.8961   -0.9161 H   0  0  0  0  0  0  0  0  0  0  0  0
   -1.4404   -2.6226    0.2010 H   0  0  0  0  0  0  0  0  0  0  0  0
   -2.8785   -1.7711    1.0014 H   0  0  0  0  0  0  0  0  0  0  0  0
   -2.5880    0.2546   -0.2649 H   0  0  0  0  0  0  0  0  0  0  0  0
   -1.1598    0.4221   -2.2918 H   0  0  0  0  0  0  0  0  0  0  0  0
   -0.6489   -1.3747   -2.0049 H   0  0  0  0  0  0  0  0  0  0  0  0
    1.8390    0.0469   -1.5321 H   0  0  0  0  0  0  0  0  0  0  0  0
    3.8829   -1.1324   -1.0905 H   0  0  0  0  0  0  0  0  0  0  0  0
    4.0699   -2.6397    0.8323 H   0  0  0  0  0  0  0  0  0  0  0  0
    2.0900   -2.9393    2.3444 H   0  0  0  0  0  0  0  0  0  0  0  0
    0.0071   -1.7311    1.8875 H   0  0  0  0  0  0  0  0  0  0  0  0
   -0.0006    1.3146    2.0821 H   0  0  0  0  0  0  0  0  0  0  0  0
    0.3250    3.7399    2.4261 H   0  0  0  0  0  0  0  0  0  0  0  0
    0.2747    5.2479    0.4541 H   0  0  0  0  0  0  0  0  0  0  0  0
   -0.0944    4.2772   -1.7488 H   0  0  0  0  0  0  0  0  0  0  0  0
  1  2  1  0
  2  3  1  0
  3  4  1  0
  4  5  1  0
  5  6  1  1
  6  7  2  0
  7  8  1  0
  8  9  2  0
  9 10  1  0
 10 11  2  0
  5 12  1  0
 12 13  2  0
 13 14  1  0
 14 15  2  0
 15 16  1  0
 16 17  2  0
  5  3  1  0
 11  6  1  0
 17 12  1  0
  1 18  1  0
  1 19  1  0
  2 20  1  0
  2 21  1  0
  3 22  1  6
  4 23  1  0
  4 24  1  0
  7 25  1  0
  8 26  1  0
  9 27  1  0
 10 28  1  0
 11 29  1  0
 13 30  1  0
 14 31  1  0
 15 32  1  0
 16 33  1  0
M  END
$$$$
[H]OC(C([H])([H])[H])(C([H])([H])[H])C([H])([H])C([H])([H])N([H])S(=O)(=O)c1c([H])c([H])c(C([H])([H])[H])c(-c2c([H])nc(N([H])[H])c(-c3onc(C([H])([H])[H])c3[H])c2[H])c1[H]
     RDKit          3D

 56 58  0  0  0  0  0  0  0  0999 V2000
    7.6863    2.8651   -0.2842 C   0  0  0  0  0  0  0  0  0  0  0  0
    6.4310    2.1101   -0.4146 C   0  0  0  0  0  0  0  0  0  0  0  0
    5.8107    1.3618    0.5951 C   0  0  0  0  0  0  0  0  0  0  0  0
    4.6792    0.8061    0.1207 C   0  0  0  0  0  0  0  0  0  0  0  0
    4.6145    1.2126   -1.1608 O   0  0  0  0  0  0  0  0  0  0  0  0
    5.6207    1.9595   -1.4624 N   0  0  0  0  0  0  0  0  0  0  0  0
    3.6790   -0.0462    0.7345 C   0  0  0  0  0  0  0  0  0  0  0  0
    2.5843   -0.4825   -0.0175 C   0  0  0  0  0  0  0  0  0  0  0  0
    1.5941   -1.2936    0.4966 C   0  0  0  0  0  0  0  0  0  0  0  0
    1.6836   -1.6931    1.8073 C   0  0  0  0  0  0  0  0  0  0  0  0
    2.7231   -1.2833    2.5341 N   0  0  0  0  0  0  0  0  0  0  0  0
    3.7010   -0.4824    2.0261 C   0  0  0  0  0  0  0  0  0  0  0  0
    4.7718   -0.0919    2.8671 N   0  0  0  0  0  0  0  0  0  0  0  0
    0.4807   -1.6911   -0.3463 C   0  0  0  0  0  0  0  0  0  0  0  0
   -0.2475   -0.7275   -1.0625 C   0  0  0  0  0  0  0  0  0  0  0  0
   -1.3088   -1.0598   -1.8560 C   0  0  0  0  0  0  0  0  0  0  0  0
   -1.6422   -2.3928   -1.9285 C   0  0  0  0  0  0  0  0  0  0  0  0
   -0.9540   -3.3704   -1.2424 C   0  0  0  0  0  0  0  0  0  0  0  0
    0.1351   -3.0203   -0.4297 C   0  0  0  0  0  0  0  0  0  0  0  0
    0.8709   -4.1030    0.2920 C   0  0  0  0  0  0  0  0  0  0  0  0
   -2.1869    0.1808   -2.7299 S   0  0  0  0  0  0  0  0  0  0  0  0
   -2.8132   -0.3501   -3.9777 O   0  0  0  0  0  0  0  0  0  0  0  0
   -1.3099    1.3704   -3.0144 O   0  0  0  0  0  0  0  0  0  0  0  0
   -3.5091    0.7820   -1.7376 N   0  0  0  0  0  0  0  0  0  0  0  0
   -3.0060    1.3703   -0.5430 C   0  0  0  0  0  0  0  0  0  0  0  0
   -3.9773    1.9444    0.4144 C   0  0  0  0  0  0  0  0  0  0  0  0
   -5.0042    1.0430    0.9973 C   0  0  0  0  0  0  0  0  0  0  0  0
   -5.8362    1.9241    1.9677 C   0  0  0  0  0  0  0  0  0  0  0  0
   -6.0261    0.5021    0.0402 C   0  0  0  0  0  0  0  0  0  0  0  0
   -4.3609    0.0511    1.7356 O   0  0  0  0  0  0  0  0  0  0  0  0
    8.5668    2.2479   -0.6202 H   0  0  0  0  0  0  0  0  0  0  0  0
    7.6965    3.7547   -0.9520 H   0  0  0  0  0  0  0  0  0  0  0  0
    7.8838    3.1225    0.7670 H   0  0  0  0  0  0  0  0  0  0  0  0
    6.2258    1.2838    1.5756 H   0  0  0  0  0  0  0  0  0  0  0  0
    2.5611   -0.1368   -1.0519 H   0  0  0  0  0  0  0  0  0  0  0  0
    0.9016   -2.3418    2.2612 H   0  0  0  0  0  0  0  0  0  0  0  0
    4.6991    0.7745    3.4090 H   0  0  0  0  0  0  0  0  0  0  0  0
    5.6074   -0.6827    2.9224 H   0  0  0  0  0  0  0  0  0  0  0  0
    0.0720    0.3105   -0.9585 H   0  0  0  0  0  0  0  0  0  0  0  0
   -2.4741   -2.6861   -2.5455 H   0  0  0  0  0  0  0  0  0  0  0  0
   -1.2390   -4.4133   -1.3183 H   0  0  0  0  0  0  0  0  0  0  0  0
    0.7904   -5.0080   -0.3845 H   0  0  0  0  0  0  0  0  0  0  0  0
    1.9430   -3.9267    0.3815 H   0  0  0  0  0  0  0  0  0  0  0  0
    0.3579   -4.4223    1.2181 H   0  0  0  0  0  0  0  0  0  0  0  0
   -3.9910   -0.1207   -1.4481 H   0  0  0  0  0  0  0  0  0  0  0  0
   -2.3307    0.6373   -0.0134 H   0  0  0  0  0  0  0  0  0  0  0  0
   -2.2812    2.1782   -0.8754 H   0  0  0  0  0  0  0  0  0  0  0  0
   -3.3594    2.3104    1.2966 H   0  0  0  0  0  0  0  0  0  0  0  0
   -4.4100    2.8950    0.0118 H   0  0  0  0  0  0  0  0  0  0  0  0
   -6.1756    2.7810    1.3725 H   0  0  0  0  0  0  0  0  0  0  0  0
   -5.2455    2.1775    2.8494 H   0  0  0  0  0  0  0  0  0  0  0  0
   -6.7230    1.3082    2.2225 H   0  0  0  0  0  0  0  0  0  0  0  0
   -7.0757    0.6085    0.4441 H   0  0  0  0  0  0  0  0  0  0  0  0
   -5.8447   -0.6100   -0.0483 H   0  0  0  0  0  0  0  0  0  0  0  0
   -6.0508    0.9651   -0.9409 H   0  0  0  0  0  0  0  0  0  0  0  0
   -4.9884   -0.4020    2.3310 H   0  0  0  0  0  0  0  0  0  0  0  0
  1  2  1  0
  2  3  1  0
  3  4  2  0
  4  5  1  0
  5  6  1  0
  4  7  1  0
  7  8  2  0
  8  9  1  0
  9 10  2  0
 10 11  1  0
 11 12  2  0
 12 13  1  0
  9 14  1  0
 14 15  2  0
 15 16  1  0
 16 17  2  0
 17 18  1  0
 18 19  2  0
 19 20  1  0
 16 21  1  0
 21 22  2  0
 21 23  2  0
 21 24  1  0
 24 25  1  0
 25 26  1  0
 26 27  1  0
 27 28  1  0
 27 29  1  0
 27 30  1  0
  6  2  2  0
 12  7  1  0
 19 14  1  0
  1 31  1  0
  1 32  1  0
  1 33  1  0
  3 34  1  0
  8 35  1  0
 10 36  1  0
 13 37  1  0
 13 38  1  0
 15 39  1  0
 17 40  1  0
 18 41  1  0
 20 42  1  0
 20 43  1  0
 20 44  1  0
 24 45  1  0
 25 46  1  0
 25 47  1  0
 26 48  1  0
 26 49  1  0
 28 50  1  0
 28 51  1  0
 28 52  1  0
 29 53  1  0
 29 54  1  0
 29 55  1  0
 30 56  1  0
M  END
$$$$
[H]OC(=O)[C@@]([H])(N([H])C(=O)[C@@]([H])(N([H])C(=O)[C@@]([H])(N([H])C(=O)[C@@]([H])(N([H])C(=O)[C@@]([H])(N([H])C(=O)c1c([H])c([H])c(S(=O)(=O)N([H])[H])c([H])c1[H])C([H])([H])c1c([H])c([H])c([H])c([H])c1[H])C([H])([H])c1c([H])c([H])c([H])c([H])c1[H])C([H])([H])c1c([H])c([H])c([H])c([H])c1[H])C([H])([H])c1c([H])c([H])c([H])c([H])c1[H])C([H])([H])c1c([H])c([H])c([H])c([H])c1[H]
     RDKit          3D

120125  0  0  0  0  0  0  0  0999 V2000
   13.3892    3.2167    0.9847 N   0  0  0  0  0  0  0  0  0  0  0  0
   13.3183    1.5253    0.6676 S   0  0  0  0  0  0  0  0  0  0  0  0
   14.2701    1.1349   -0.4318 O   0  0  0  0  0  0  0  0  0  0  0  0
   13.6338    0.7804    1.9414 O   0  0  0  0  0  0  0  0  0  0  0  0
   11.6719    1.1174    0.2411 C   0  0  0  0  0  0  0  0  0  0  0  0
   10.7329    0.7931    1.1992 C   0  0  0  0  0  0  0  0  0  0  0  0
    9.4312    0.4563    0.8412 C   0  0  0  0  0  0  0  0  0  0  0  0
    9.0310    0.4335   -0.4750 C   0  0  0  0  0  0  0  0  0  0  0  0
    9.9761    0.7600   -1.4321 C   0  0  0  0  0  0  0  0  0  0  0  0
   11.2706    1.0962   -1.0923 C   0  0  0  0  0  0  0  0  0  0  0  0
    7.6849    0.0718   -0.8178 C   0  0  0  0  0  0  0  0  0  0  0  0
    7.4140   -0.0508   -2.0577 O   0  0  0  0  0  0  0  0  0  0  0  0
    6.6457   -0.1590    0.0886 N   0  0  0  0  0  0  0  0  0  0  0  0
    5.2851   -0.5358   -0.3729 C   0  0  1  0  0  0  0  0  0  0  0  0
    5.0978   -1.9268    0.1320 C   0  0  0  0  0  0  0  0  0  0  0  0
    3.8262   -2.5927   -0.1644 C   0  0  0  0  0  0  0  0  0  0  0  0
    3.6738   -3.1802   -1.4024 C   0  0  0  0  0  0  0  0  0  0  0  0
    2.5080   -3.8560   -1.6695 C   0  0  0  0  0  0  0  0  0  0  0  0
    1.4818   -3.9777   -0.7638 C   0  0  0  0  0  0  0  0  0  0  0  0
    1.6371   -3.3878    0.4774 C   0  0  0  0  0  0  0  0  0  0  0  0
    2.7992   -2.7106    0.7499 C   0  0  0  0  0  0  0  0  0  0  0  0
    4.3693    0.4946    0.0638 C   0  0  0  0  0  0  0  0  0  0  0  0
    4.7871    1.4216    0.8269 O   0  0  0  0  0  0  0  0  0  0  0  0
    2.9874    0.5651   -0.3098 N   0  0  0  0  0  0  0  0  0  0  0  0
    2.0884    1.6089    0.1148 C   0  0  1  0  0  0  0  0  0  0  0  0
    1.7338    2.4296   -1.1073 C   0  0  0  0  0  0  0  0  0  0  0  0
    2.9339    3.0427   -1.7169 C   0  0  0  0  0  0  0  0  0  0  0  0
    3.3312    4.2903   -1.3152 C   0  0  0  0  0  0  0  0  0  0  0  0
    4.4533    4.8450   -1.8860 C   0  0  0  0  0  0  0  0  0  0  0  0
    5.1591    4.1260   -2.8580 C   0  0  0  0  0  0  0  0  0  0  0  0
    4.7553    2.8742   -3.2566 C   0  0  0  0  0  0  0  0  0  0  0  0
    3.6272    2.3182   -2.6825 C   0  0  0  0  0  0  0  0  0  0  0  0
    0.9379    1.1712    0.9132 C   0  0  0  0  0  0  0  0  0  0  0  0
    1.1188    0.2999    1.8016 O   0  0  0  0  0  0  0  0  0  0  0  0
   -0.3848    1.6492    0.7725 N   0  0  0  0  0  0  0  0  0  0  0  0
   -1.5042    1.2242    1.5814 C   0  0  1  0  0  0  0  0  0  0  0  0
   -2.3471    2.3135    2.0671 C   0  0  0  0  0  0  0  0  0  0  0  0
   -3.0028    3.1947    1.1213 C   0  0  0  0  0  0  0  0  0  0  0  0
   -2.2964    4.3233    0.6776 C   0  0  0  0  0  0  0  0  0  0  0  0
   -2.8273    5.2171   -0.2019 C   0  0  0  0  0  0  0  0  0  0  0  0
   -4.0934    5.0535   -0.7000 C   0  0  0  0  0  0  0  0  0  0  0  0
   -4.8313    3.9438   -0.2835 C   0  0  0  0  0  0  0  0  0  0  0  0
   -4.2655    3.0739    0.5956 C   0  0  0  0  0  0  0  0  0  0  0  0
   -2.1613   -0.0117    1.0987 C   0  0  0  0  0  0  0  0  0  0  0  0
   -1.6456   -0.5853    0.1054 O   0  0  0  0  0  0  0  0  0  0  0  0
   -3.3031   -0.5776    1.6762 N   0  0  0  0  0  0  0  0  0  0  0  0
   -3.9733   -1.7879    1.2935 C   0  0  1  0  0  0  0  0  0  0  0  0
   -4.1088   -2.7567    2.4274 C   0  0  0  0  0  0  0  0  0  0  0  0
   -4.8215   -2.2557    3.6039 C   0  0  0  0  0  0  0  0  0  0  0  0
   -6.1675   -2.3937    3.7523 C   0  0  0  0  0  0  0  0  0  0  0  0
   -6.8709   -1.9090    4.8675 C   0  0  0  0  0  0  0  0  0  0  0  0
   -6.1616   -1.2608    5.8631 C   0  0  0  0  0  0  0  0  0  0  0  0
   -4.7948   -1.1321    5.6923 C   0  0  0  0  0  0  0  0  0  0  0  0
   -4.1055   -1.6076    4.5986 C   0  0  0  0  0  0  0  0  0  0  0  0
   -5.2611   -1.6330    0.5955 C   0  0  0  0  0  0  0  0  0  0  0  0
   -5.6751   -0.4468    0.4323 O   0  0  0  0  0  0  0  0  0  0  0  0
   -6.0280   -2.6995    0.1088 N   0  0  0  0  0  0  0  0  0  0  0  0
   -7.2942   -2.3942   -0.6029 C   0  0  1  0  0  0  0  0  0  0  0  0
   -7.0201   -2.8496   -2.0436 C   0  0  0  0  0  0  0  0  0  0  0  0
   -8.1650   -2.6122   -2.9098 C   0  0  0  0  0  0  0  0  0  0  0  0
   -8.2724   -1.3610   -3.5062 C   0  0  0  0  0  0  0  0  0  0  0  0
   -9.3180   -1.1039   -4.3454 C   0  0  0  0  0  0  0  0  0  0  0  0
  -10.2660   -2.0748   -4.6046 C   0  0  0  0  0  0  0  0  0  0  0  0
  -10.1881   -3.3085   -4.0362 C   0  0  0  0  0  0  0  0  0  0  0  0
   -9.1149   -3.5588   -3.1811 C   0  0  0  0  0  0  0  0  0  0  0  0
   -8.3905   -3.1667   -0.0053 C   0  0  0  0  0  0  0  0  0  0  0  0
   -9.7062   -2.9422   -0.3471 O   0  0  0  0  0  0  0  0  0  0  0  0
   -8.1447   -4.0522    0.8407 O   0  0  0  0  0  0  0  0  0  0  0  0
   12.4632    3.5186    1.3627 H   0  0  0  0  0  0  0  0  0  0  0  0
   14.0851    3.3413    1.7635 H   0  0  0  0  0  0  0  0  0  0  0  0
   11.0208    0.8062    2.2472 H   0  0  0  0  0  0  0  0  0  0  0  0
    8.7618    0.2151    1.6681 H   0  0  0  0  0  0  0  0  0  0  0  0
    9.7353    0.7633   -2.4959 H   0  0  0  0  0  0  0  0  0  0  0  0
   12.0244    1.3554   -1.8240 H   0  0  0  0  0  0  0  0  0  0  0  0
    6.7578   -0.0808    1.1157 H   0  0  0  0  0  0  0  0  0  0  0  0
    5.3539   -0.6115   -1.4932 H   0  0  0  0  0  0  0  0  0  0  0  0
    5.8964   -2.6187   -0.2858 H   0  0  0  0  0  0  0  0  0  0  0  0
    5.2763   -2.0021    1.2403 H   0  0  0  0  0  0  0  0  0  0  0  0
    4.4718   -3.1083   -2.1621 H   0  0  0  0  0  0  0  0  0  0  0  0
    2.4154   -4.3079   -2.6563 H   0  0  0  0  0  0  0  0  0  0  0  0
    0.5533   -4.5187   -0.9857 H   0  0  0  0  0  0  0  0  0  0  0  0
    0.8617   -3.4575    1.2200 H   0  0  0  0  0  0  0  0  0  0  0  0
    2.8909   -2.2492    1.7536 H   0  0  0  0  0  0  0  0  0  0  0  0
    2.5672   -0.1678   -0.9431 H   0  0  0  0  0  0  0  0  0  0  0  0
    2.7529    2.2577    0.8022 H   0  0  0  0  0  0  0  0  0  0  0  0
    1.2143    1.8569   -1.8819 H   0  0  0  0  0  0  0  0  0  0  0  0
    1.0689    3.2495   -0.7819 H   0  0  0  0  0  0  0  0  0  0  0  0
    2.7543    4.7957   -0.5667 H   0  0  0  0  0  0  0  0  0  0  0  0
    4.7804    5.8132   -1.5889 H   0  0  0  0  0  0  0  0  0  0  0  0
    6.0400    4.6206   -3.2711 H   0  0  0  0  0  0  0  0  0  0  0  0
    5.3237    2.3599   -4.0038 H   0  0  0  0  0  0  0  0  0  0  0  0
    3.3319    1.3420   -3.0051 H   0  0  0  0  0  0  0  0  0  0  0  0
   -0.5734    2.3596    0.0332 H   0  0  0  0  0  0  0  0  0  0  0  0
   -0.9629    0.8151    2.5296 H   0  0  0  0  0  0  0  0  0  0  0  0
   -1.7019    2.9643    2.7379 H   0  0  0  0  0  0  0  0  0  0  0  0
   -3.1177    1.9209    2.7726 H   0  0  0  0  0  0  0  0  0  0  0  0
   -1.2964    4.4929    1.0438 H   0  0  0  0  0  0  0  0  0  0  0  0
   -2.2380    6.0685   -0.5088 H   0  0  0  0  0  0  0  0  0  0  0  0
   -4.5568    5.7187   -1.3887 H   0  0  0  0  0  0  0  0  0  0  0  0
   -5.8355    3.7534   -0.6358 H   0  0  0  0  0  0  0  0  0  0  0  0
   -4.8429    2.2240    0.9189 H   0  0  0  0  0  0  0  0  0  0  0  0
   -3.7228   -0.0496    2.4866 H   0  0  0  0  0  0  0  0  0  0  0  0
   -3.2917   -2.3360    0.5428 H   0  0  0  0  0  0  0  0  0  0  0  0
   -4.6236   -3.6619    2.0053 H   0  0  0  0  0  0  0  0  0  0  0  0
   -3.1191   -3.1513    2.7693 H   0  0  0  0  0  0  0  0  0  0  0  0
   -6.8042   -2.8858    3.0335 H   0  0  0  0  0  0  0  0  0  0  0  0
   -7.9370   -2.0190    4.9825 H   0  0  0  0  0  0  0  0  0  0  0  0
   -6.6753   -0.8702    6.7414 H   0  0  0  0  0  0  0  0  0  0  0  0
   -4.2594   -0.6086    6.5036 H   0  0  0  0  0  0  0  0  0  0  0  0
   -3.0340   -1.4680    4.5433 H   0  0  0  0  0  0  0  0  0  0  0  0
   -5.7314   -3.6728    0.2369 H   0  0  0  0  0  0  0  0  0  0  0  0
   -7.4638   -1.3061   -0.6600 H   0  0  0  0  0  0  0  0  0  0  0  0
   -6.8027   -3.9475   -1.9510 H   0  0  0  0  0  0  0  0  0  0  0  0
   -6.1422   -2.2960   -2.4388 H   0  0  0  0  0  0  0  0  0  0  0  0
   -7.5346   -0.5946   -3.3122 H   0  0  0  0  0  0  0  0  0  0  0  0
   -9.3761   -0.1238   -4.7952 H   0  0  0  0  0  0  0  0  0  0  0  0
  -11.0787   -1.8067   -5.2876 H   0  0  0  0  0  0  0  0  0  0  0  0
  -10.9374   -4.0455   -4.2546 H   0  0  0  0  0  0  0  0  0  0  0  0
   -9.0698   -4.5548   -2.7342 H   0  0  0  0  0  0  0  0  0  0  0  0
  -10.2230   -2.0995   -0.0557 H   0  0  0  0  0  0  0  0  0  0  0  0
  1  2  1  0
  2  3  2  0
  2  4  2  0
  2  5  1  0
  5  6  2  0
  6  7  1  0
  7  8  2  0
  8  9  1  0
  9 10  2  0
  8 11  1  0
 11 12  2  0
 11 13  1  0
 13 14  1  0
 14 15  1  0
 15 16  1  0
 16 17  2  0
 17 18  1  0
 18 19  2  0
 19 20  1  0
 20 21  2  0
 14 22  1  0
 22 23  2  0
 22 24  1  0
 24 25  1  0
 25 26  1  0
 26 27  1  0
 27 28  2  0
 28 29  1  0
 29 30  2  0
 30 31  1  0
 31 32  2  0
 25 33  1  0
 33 34  2  0
 33 35  1  0
 35 36  1  0
 36 37  1  0
 37 38  1  0
 38 39  2  0
 39 40  1  0
 40 41  2  0
 41 42  1  0
 42 43  2  0
 36 44  1  0
 44 45  2  0
 44 46  1  0
 46 47  1  0
 47 48  1  0
 48 49  1  0
 49 50  2  0
 50 51  1  0
 51 52  2  0
 52 53  1  0
 53 54  2  0
 47 55  1  0
 55 56  2  0
 55 57  1  0
 57 58  1  0
 58 59  1  0
 59 60  1  0
 60 61  2  0
 61 62  1  0
 62 63  2  0
 63 64  1  0
 64 65  2  0
 58 66  1  0
 66 67  1  0
 66 68  2  0
 10  5  1  0
 21 16  1  0
 32 27  1  0
 43 38  1  0
 54 49  1  0
 65 60  1  0
  1 69  1  0
  1 70  1  0
  6 71  1  0
  7 72  1  0
  9 73  1  0
 10 74  1  0
 13 75  1  0
 14 76  1  6
 15 77  1  0
 15 78  1  0
 17 79  1  0
 18 80  1  0
 19 81  1  0
 20 82  1  0
 21 83  1  0
 24 84  1  0
 25 85  1  1
 26 86  1  0
 26 87  1  0
 28 88  1  0
 29 89  1  0
 30 90  1  0
 31 91  1  0
 32 92  1  0
 35 93  1  0
 36 94  1  1
 37 95  1  0
 37 96  1  0
 39 97  1  0
 40 98  1  0
 41 99  1  0
 42100  1  0
 43101  1  0
 46102  1  0
 47103  1  6
 48104  1  0
 48105  1  0
 50106  1  0
 51107  1  0
 52108  1  0
 53109  1  0
 54110  1  0
 57111  1  0
 58112  1  6
 59113  1  0
 59114  1  0
 61115  1  0
 62116  1  0
 63117  1  0
 64118  1  0
 65119  1  0
 67120  1  0
M  END
$$$$
[H]C([H])=C([H])C(=O)N([H])[C@]1([H])C([H])([H])C([H])([H])[C@]([H])(n2nc(-c3c([H])c([H])c(Oc4c([H])c([H])c([H])c([H])c4[H])c([H])c3[H])c3c(N([H])[H])nc([H])nc32)C([H])([H])C1([H])[H]
     RDKit          3D

 60 64  0  0  0  0  0  0  0  0999 V2000
    2.9239    0.0653   -3.0844 N   0  0  0  0  0  0  0  0  0  0  0  0
    1.5595    0.2939   -3.3566 C   0  0  0  0  0  0  0  0  0  0  0  0
    1.0978    0.2626   -4.6251 N   0  0  0  0  0  0  0  0  0  0  0  0
   -0.2060    0.4434   -4.9031 C   0  0  0  0  0  0  0  0  0  0  0  0
   -1.0999    0.6624   -3.9244 N   0  0  0  0  0  0  0  0  0  0  0  0
   -0.7030    0.7065   -2.6296 C   0  0  0  0  0  0  0  0  0  0  0  0
   -1.3922    0.8927   -1.4878 N   0  0  0  0  0  0  0  0  0  0  0  0
   -0.5424    0.8333   -0.5167 N   0  0  0  0  0  0  0  0  0  0  0  0
    0.7240    0.6095   -0.9692 C   0  0  0  0  0  0  0  0  0  0  0  0
    1.9056    0.4612   -0.1365 C   0  0  0  0  0  0  0  0  0  0  0  0
    3.0417    1.2270   -0.2099 C   0  0  0  0  0  0  0  0  0  0  0  0
    4.1418    1.0003    0.6101 C   0  0  0  0  0  0  0  0  0  0  0  0
    4.1462   -0.0107    1.5444 C   0  0  0  0  0  0  0  0  0  0  0  0
    5.2600   -0.2287    2.3642 O   0  0  0  0  0  0  0  0  0  0  0  0
    6.2460   -1.0828    1.9536 C   0  0  0  0  0  0  0  0  0  0  0  0
    6.1767   -1.7394    0.7428 C   0  0  0  0  0  0  0  0  0  0  0  0
    7.1778   -2.5953    0.3457 C   0  0  0  0  0  0  0  0  0  0  0  0
    8.2493   -2.7845    1.1778 C   0  0  0  0  0  0  0  0  0  0  0  0
    8.3253   -2.1396    2.3757 C   0  0  0  0  0  0  0  0  0  0  0  0
    7.3288   -1.2821    2.7805 C   0  0  0  0  0  0  0  0  0  0  0  0
    3.0172   -0.7928    1.6382 C   0  0  0  0  0  0  0  0  0  0  0  0
    1.9338   -0.5651    0.8258 C   0  0  0  0  0  0  0  0  0  0  0  0
    0.6532    0.5201   -2.3354 C   0  0  0  0  0  0  0  0  0  0  0  0
   -2.8240    1.1151   -1.4022 C   0  0  2  0  0  0  0  0  0  0  0  0
   -3.0738    2.0729   -0.2950 C   0  0  0  0  0  0  0  0  0  0  0  0
   -4.5034    2.3329    0.0409 C   0  0  0  0  0  0  0  0  0  0  0  0
   -5.4054    1.1466   -0.0613 C   0  0  1  0  0  0  0  0  0  0  0  0
   -5.0448    0.1982   -1.1712 C   0  0  0  0  0  0  0  0  0  0  0  0
   -3.5589   -0.1741   -1.0828 C   0  0  0  0  0  0  0  0  0  0  0  0
   -5.4602    0.3729    1.1619 N   0  0  0  0  0  0  0  0  0  0  0  0
   -6.6125    0.1551    1.9161 C   0  0  0  0  0  0  0  0  0  0  0  0
   -7.7067    0.6410    1.5557 O   0  0  0  0  0  0  0  0  0  0  0  0
   -6.5745   -0.6387    3.1359 C   0  0  0  0  0  0  0  0  0  0  0  0
   -7.6482   -0.8570    3.8627 C   0  0  0  0  0  0  0  0  0  0  0  0
    3.6225    0.7894   -3.3235 H   0  0  0  0  0  0  0  0  0  0  0  0
    3.2299   -0.8195   -2.6484 H   0  0  0  0  0  0  0  0  0  0  0  0
   -0.5755    0.4184   -5.9171 H   0  0  0  0  0  0  0  0  0  0  0  0
    3.0552    2.0545   -0.9320 H   0  0  0  0  0  0  0  0  0  0  0  0
    4.9871    1.6329    0.4961 H   0  0  0  0  0  0  0  0  0  0  0  0
    5.3206   -1.5879    0.0786 H   0  0  0  0  0  0  0  0  0  0  0  0
    7.1322   -3.1170   -0.6064 H   0  0  0  0  0  0  0  0  0  0  0  0
    9.0522   -3.4470    0.9016 H   0  0  0  0  0  0  0  0  0  0  0  0
    9.1675   -2.2835    3.0387 H   0  0  0  0  0  0  0  0  0  0  0  0
    7.3690   -0.7604    3.7270 H   0  0  0  0  0  0  0  0  0  0  0  0
    3.0287   -1.5873    2.3772 H   0  0  0  0  0  0  0  0  0  0  0  0
    1.0448   -1.1794    0.8986 H   0  0  0  0  0  0  0  0  0  0  0  0
   -3.2054    1.4683   -2.3716 H   0  0  0  0  0  0  0  0  0  0  0  0
   -2.4801    1.7438    0.5968 H   0  0  0  0  0  0  0  0  0  0  0  0
   -2.6025    3.0580   -0.5860 H   0  0  0  0  0  0  0  0  0  0  0  0
   -4.5396    2.6837    1.1054 H   0  0  0  0  0  0  0  0  0  0  0  0
   -4.8683    3.1910   -0.5610 H   0  0  0  0  0  0  0  0  0  0  0  0
   -6.4355    1.5091   -0.2558 H   0  0  0  0  0  0  0  0  0  0  0  0
   -5.1670    0.7345   -2.1337 H   0  0  0  0  0  0  0  0  0  0  0  0
   -5.6918   -0.6924   -1.0804 H   0  0  0  0  0  0  0  0  0  0  0  0
   -3.2969   -0.5436   -0.0830 H   0  0  0  0  0  0  0  0  0  0  0  0
   -3.3591   -0.9700   -1.8207 H   0  0  0  0  0  0  0  0  0  0  0  0
   -4.5323   -0.0403    1.4721 H   0  0  0  0  0  0  0  0  0  0  0  0
   -5.6257   -1.0804    3.4798 H   0  0  0  0  0  0  0  0  0  0  0  0
   -8.5879   -0.4404    3.5543 H   0  0  0  0  0  0  0  0  0  0  0  0
   -7.5947   -1.4414    4.7526 H   0  0  0  0  0  0  0  0  0  0  0  0
  1  2  1  0
  2  3  2  0
  3  4  1  0
  4  5  2  0
  5  6  1  0
  6  7  1  0
  7  8  1  0
  8  9  2  0
  9 10  1  0
 10 11  2  0
 11 12  1  0
 12 13  2  0
 13 14  1  0
 14 15  1  0
 15 16  2  0
 16 17  1  0
 17 18  2  0
 18 19  1  0
 19 20  2  0
 13 21  1  0
 21 22  2  0
  9 23  1  0
  7 24  1  0
 24 25  1  0
 25 26  1  0
 26 27  1  0
 27 28  1  0
 28 29  1  0
 27 30  1  0
 30 31  1  0
 31 32  2  0
 31 33  1  0
 33 34  2  3
 23  2  1  0
 29 24  1  0
 23  6  2  0
 22 10  1  0
 20 15  1  0
  1 35  1  0
  1 36  1  0
  4 37  1  0
 11 38  1  0
 12 39  1  0
 16 40  1  0
 17 41  1  0
 18 42  1  0
 19 43  1  0
 20 44  1  0
 21 45  1  0
 22 46  1  0
 24 47  1  6
 25 48  1  0
 25 49  1  0
 26 50  1  0
 26 51  1  0
 27 52  1  6
 28 53  1  0
 28 54  1  0
 29 55  1  0
 29 56  1  0
 30 57  1  0
 33 58  1  0
 34 59  1  0
 34 60  1  0
M  END
$$$$
[H]Oc1c([H])c2c(c([H])c1O[H])[C@@]1([H])C([H])([H])C([H])([H])[C@]3(C([H])([H])[H])C(=O)C([H])([H])C([H])([H])[C@@]3([H])[C@]1([H])C([H])([H])C2([H])[H]
     RDKit          3D

 43 46  0  0  0  0  0  0  0  0999 V2000
   -2.6750    1.4268   -0.9404 C   0  0  0  0  0  0  0  0  0  0  0  0
   -2.3881    0.6885    0.3429 C   0  0  2  0  0  0  0  0  0  0  0  0
   -1.5858    1.5224    1.2936 C   0  0  0  0  0  0  0  0  0  0  0  0
   -0.1832    1.6571    0.7109 C   0  0  0  0  0  0  0  0  0  0  0  0
    0.3929    0.2964    0.5337 C   0  0  1  0  0  0  0  0  0  0  0  0
   -0.4158   -0.4555   -0.5152 C   0  0  1  0  0  0  0  0  0  0  0  0
    0.3062   -1.7159   -0.8983 C   0  0  0  0  0  0  0  0  0  0  0  0
    1.3655   -2.1159    0.1384 C   0  0  0  0  0  0  0  0  0  0  0  0
    2.3806   -1.0036    0.0698 C   0  0  0  0  0  0  0  0  0  0  0  0
    3.7060   -1.2094   -0.1768 C   0  0  0  0  0  0  0  0  0  0  0  0
    4.5255   -0.1040   -0.2139 C   0  0  0  0  0  0  0  0  0  0  0  0
    5.8748   -0.2709   -0.4609 O   0  0  0  0  0  0  0  0  0  0  0  0
    4.0036    1.1750   -0.0047 C   0  0  0  0  0  0  0  0  0  0  0  0
    4.8623    2.2752   -0.0490 O   0  0  0  0  0  0  0  0  0  0  0  0
    2.6574    1.3514    0.2427 C   0  0  0  0  0  0  0  0  0  0  0  0
    1.8399    0.2666    0.2814 C   0  0  0  0  0  0  0  0  0  0  0  0
   -1.7391   -0.6645    0.0945 C   0  0  2  0  0  0  0  0  0  0  0  0
   -2.7794   -1.3669   -0.6671 C   0  0  0  0  0  0  0  0  0  0  0  0
   -4.0345   -1.0199    0.1581 C   0  0  0  0  0  0  0  0  0  0  0  0
   -3.6883    0.2274    0.8792 C   0  0  0  0  0  0  0  0  0  0  0  0
   -4.3239    0.7774    1.7371 O   0  0  0  0  0  0  0  0  0  0  0  0
   -3.1442    2.4027   -0.6206 H   0  0  0  0  0  0  0  0  0  0  0  0
   -1.8018    1.6906   -1.5286 H   0  0  0  0  0  0  0  0  0  0  0  0
   -3.4127    0.9325   -1.5711 H   0  0  0  0  0  0  0  0  0  0  0  0
   -2.0356    2.5163    1.3478 H   0  0  0  0  0  0  0  0  0  0  0  0
   -1.5683    1.0428    2.2872 H   0  0  0  0  0  0  0  0  0  0  0  0
   -0.2757    2.1700   -0.2650 H   0  0  0  0  0  0  0  0  0  0  0  0
    0.4223    2.2422    1.4382 H   0  0  0  0  0  0  0  0  0  0  0  0
    0.2293   -0.2582    1.5046 H   0  0  0  0  0  0  0  0  0  0  0  0
   -0.4217    0.1987   -1.4116 H   0  0  0  0  0  0  0  0  0  0  0  0
   -0.4397   -2.5269   -1.0107 H   0  0  0  0  0  0  0  0  0  0  0  0
    0.8667   -1.5946   -1.8489 H   0  0  0  0  0  0  0  0  0  0  0  0
    1.7808   -3.0729   -0.1788 H   0  0  0  0  0  0  0  0  0  0  0  0
    0.8753   -2.1625    1.1111 H   0  0  0  0  0  0  0  0  0  0  0  0
    4.0654   -2.2239   -0.3334 H   0  0  0  0  0  0  0  0  0  0  0  0
    6.2502   -1.1872   -0.6111 H   0  0  0  0  0  0  0  0  0  0  0  0
    4.4845    3.1901    0.1014 H   0  0  0  0  0  0  0  0  0  0  0  0
    2.2214    2.3352    0.4096 H   0  0  0  0  0  0  0  0  0  0  0  0
   -1.6149   -1.1415    1.0871 H   0  0  0  0  0  0  0  0  0  0  0  0
   -2.5850   -2.4593   -0.6355 H   0  0  0  0  0  0  0  0  0  0  0  0
   -2.8961   -1.0355   -1.6998 H   0  0  0  0  0  0  0  0  0  0  0  0
   -4.9142   -0.9132   -0.5031 H   0  0  0  0  0  0  0  0  0  0  0  0
   -4.1874   -1.8830    0.8413 H   0  0  0  0  0  0  0  0  0  0  0  0
  2  1  1  6
  2  3  1  0
  3  4  1  0
  4  5  1  0
  5  6  1  0
  6  7  1  0
  7  8  1  0
  8  9  1  0
  9 10  2  0
 10 11  1  0
 11 12  1  0
 11 13  2  0
 13 14  1  0
 13 15  1  0
 15 16  2  0
  6 17  1  0
 17 18  1  0
 18 19  1  0
 19 20  1  0
 20 21  2  0
 17  2  1  0
 20  2  1  0
 16  5  1  0
 16  9  1  0
  1 22  1  0
  1 23  1  0
  1 24  1  0
  3 25  1  0
  3 26  1  0
  4 27  1  0
  4 28  1  0
  5 29  1  1
  6 30  1  6
  7 31  1  0
  7 32  1  0
  8 33  1  0
  8 34  1  0
 10 35  1  0
 12 36  1  0
 14 37  1  0
 15 38  1  0
 17 39  1  1
 18 40  1  0
 18 41  1  0
 19 42  1  0
 19 43  1  0
M  END
$$$$
[H]OC(=O)C([H])([H])[C@@]([H])(C([H])=O)N([H])C(=O)[C@@]([H])(N([H])C(=O)[C@@]([H])(N([H])C(=O)OC([H])([H])c1c([H])c([H])c([H])c([H])c1[H])C([H])([H])c1c([H])c([H])c([H])c([H])c1[H])C([H])(C([H])([H])[H])C([H])([H])[H]
     RDKit          3D

 67 68  0  0  0  0  0  0  0  0999 V2000
   -3.6224   -1.4162   -2.4632 C   0  0  0  0  0  0  0  0  0  0  0  0
   -2.4380   -1.4993   -1.5409 C   0  0  0  0  0  0  0  0  0  0  0  0
   -2.4784   -2.8796   -0.9037 C   0  0  0  0  0  0  0  0  0  0  0  0
   -2.4086   -0.4060   -0.5408 C   0  0  2  0  0  0  0  0  0  0  0  0
   -1.1854   -0.4928    0.2838 N   0  0  0  0  0  0  0  0  0  0  0  0
   -0.0392    0.2771    0.0518 C   0  0  0  0  0  0  0  0  0  0  0  0
    0.0777    1.1204   -0.8714 O   0  0  0  0  0  0  0  0  0  0  0  0
    1.1390    0.1029    0.9382 C   0  0  2  0  0  0  0  0  0  0  0  0
    0.9763    0.9267    2.1924 C   0  0  0  0  0  0  0  0  0  0  0  0
    0.8543    2.3772    1.9602 C   0  0  0  0  0  0  0  0  0  0  0  0
   -0.3519    3.0030    1.7718 C   0  0  0  0  0  0  0  0  0  0  0  0
   -0.4881    4.3522    1.5603 C   0  0  0  0  0  0  0  0  0  0  0  0
    0.6409    5.1554    1.5306 C   0  0  0  0  0  0  0  0  0  0  0  0
    1.8694    4.5679    1.7153 C   0  0  0  0  0  0  0  0  0  0  0  0
    1.9700    3.1926    1.9273 C   0  0  0  0  0  0  0  0  0  0  0  0
    2.3764    0.4111    0.2518 N   0  0  0  0  0  0  0  0  0  0  0  0
    3.3346   -0.5923    0.0791 C   0  0  0  0  0  0  0  0  0  0  0  0
    3.0811   -1.7534    0.5430 O   0  0  0  0  0  0  0  0  0  0  0  0
    4.5627   -0.4795   -0.5542 O   0  0  0  0  0  0  0  0  0  0  0  0
    5.4405   -1.5858   -0.6574 C   0  0  0  0  0  0  0  0  0  0  0  0
    6.6807   -1.2918   -1.3688 C   0  0  0  0  0  0  0  0  0  0  0  0
    6.9825   -0.0686   -1.9243 C   0  0  0  0  0  0  0  0  0  0  0  0
    8.1797    0.1698   -2.6016 C   0  0  0  0  0  0  0  0  0  0  0  0
    9.1125   -0.8375   -2.7351 C   0  0  0  0  0  0  0  0  0  0  0  0
    8.8320   -2.0656   -2.1889 C   0  0  0  0  0  0  0  0  0  0  0  0
    7.6498   -2.2908   -1.5232 C   0  0  0  0  0  0  0  0  0  0  0  0
   -3.5037   -0.3079    0.4199 C   0  0  0  0  0  0  0  0  0  0  0  0
   -3.2222    0.4174    1.4884 O   0  0  0  0  0  0  0  0  0  0  0  0
   -4.7796   -0.8677    0.3636 N   0  0  0  0  0  0  0  0  0  0  0  0
   -5.7502   -0.6378    1.4411 C   0  0  1  0  0  0  0  0  0  0  0  0
   -7.0509   -0.2300    0.8525 C   0  0  0  0  0  0  0  0  0  0  0  0
   -6.9909    0.9979    0.0546 C   0  0  0  0  0  0  0  0  0  0  0  0
   -8.1333    1.5085   -0.5599 O   0  0  0  0  0  0  0  0  0  0  0  0
   -5.9178    1.6234   -0.0986 O   0  0  0  0  0  0  0  0  0  0  0  0
   -5.9669   -1.9182    2.1894 C   0  0  0  0  0  0  0  0  0  0  0  0
   -5.3524   -2.8992    1.8151 O   0  0  0  0  0  0  0  0  0  0  0  0
   -4.2225   -0.4850   -2.3134 H   0  0  0  0  0  0  0  0  0  0  0  0
   -3.2838   -1.3910   -3.5470 H   0  0  0  0  0  0  0  0  0  0  0  0
   -4.3109   -2.2687   -2.4231 H   0  0  0  0  0  0  0  0  0  0  0  0
   -1.5206   -1.4703   -2.1722 H   0  0  0  0  0  0  0  0  0  0  0  0
   -1.8744   -3.5650   -1.5281 H   0  0  0  0  0  0  0  0  0  0  0  0
   -2.1074   -2.8714    0.1431 H   0  0  0  0  0  0  0  0  0  0  0  0
   -3.5285   -3.2358   -0.9071 H   0  0  0  0  0  0  0  0  0  0  0  0
   -2.2759    0.5608   -1.1117 H   0  0  0  0  0  0  0  0  0  0  0  0
   -1.2269   -1.1696    1.0582 H   0  0  0  0  0  0  0  0  0  0  0  0
    1.1521   -0.9592    1.2595 H   0  0  0  0  0  0  0  0  0  0  0  0
    1.8390    0.7099    2.8909 H   0  0  0  0  0  0  0  0  0  0  0  0
    0.0969    0.5009    2.7313 H   0  0  0  0  0  0  0  0  0  0  0  0
   -1.2532    2.4258    1.7892 H   0  0  0  0  0  0  0  0  0  0  0  0
   -1.4378    4.8469    1.4113 H   0  0  0  0  0  0  0  0  0  0  0  0
    0.5257    6.2285    1.3641 H   0  0  0  0  0  0  0  0  0  0  0  0
    2.7471    5.1916    1.6917 H   0  0  0  0  0  0  0  0  0  0  0  0
    2.9723    2.8139    2.0630 H   0  0  0  0  0  0  0  0  0  0  0  0
    2.5374    1.3615   -0.1001 H   0  0  0  0  0  0  0  0  0  0  0  0
    4.9685   -2.4760   -1.0668 H   0  0  0  0  0  0  0  0  0  0  0  0
    5.7250   -1.8327    0.4092 H   0  0  0  0  0  0  0  0  0  0  0  0
    6.2595    0.7436   -1.8316 H   0  0  0  0  0  0  0  0  0  0  0  0
    8.3939    1.1219   -3.0241 H   0  0  0  0  0  0  0  0  0  0  0  0
   10.0596   -0.7055   -3.2531 H   0  0  0  0  0  0  0  0  0  0  0  0
    9.5659   -2.8573   -2.2945 H   0  0  0  0  0  0  0  0  0  0  0  0
    7.4124   -3.2694   -1.0804 H   0  0  0  0  0  0  0  0  0  0  0  0
   -5.1104   -1.4620   -0.3898 H   0  0  0  0  0  0  0  0  0  0  0  0
   -5.3479    0.1019    2.1387 H   0  0  0  0  0  0  0  0  0  0  0  0
   -7.8241   -0.1330    1.6626 H   0  0  0  0  0  0  0  0  0  0  0  0
   -7.4607   -1.0349    0.1731 H   0  0  0  0  0  0  0  0  0  0  0  0
   -8.9272    0.9226   -0.7552 H   0  0  0  0  0  0  0  0  0  0  0  0
   -6.6234   -2.0268    3.0272 H   0  0  0  0  0  0  0  0  0  0  0  0
  1  2  1  0
  2  3  1  0
  2  4  1  0
  4  5  1  0
  5  6  1  0
  6  7  2  0
  6  8  1  0
  8  9  1  0
  9 10  1  0
 10 11  2  0
 11 12  1  0
 12 13  2  0
 13 14  1  0
 14 15  2  0
  8 16  1  0
 16 17  1  0
 17 18  2  0
 17 19  1  0
 19 20  1  0
 20 21  1  0
 21 22  2  0
 22 23  1  0
 23 24  2  0
 24 25  1  0
 25 26  2  0
  4 27  1  0
 27 28  2  0
 27 29  1  0
 29 30  1  0
 30 31  1  0
 31 32  1  0
 32 33  1  0
 32 34  2  0
 30 35  1  0
 35 36  2  0
 15 10  1  0
 26 21  1  0
  1 37  1  0
  1 38  1  0
  1 39  1  0
  2 40  1  0
  3 41  1  0
  3 42  1  0
  3 43  1  0
  4 44  1  6
  5 45  1  0
  8 46  1  1
  9 47  1  0
  9 48  1  0
 11 49  1  0
 12 50  1  0
 13 51  1  0
 14 52  1  0
 15 53  1  0
 16 54  1  0
 20 55  1  0
 20 56  1  0
 22 57  1  0
 23 58  1  0
 24 59  1  0
 25 60  1  0
 26 61  1  0
 29 62  1  0
 30 63  1  1
 31 64  1  0
 31 65  1  0
 33 66  1  0
 35 67  1  0
M  END
$$$$
[H]OC(=O)c1[se]c(-c2c([H])c([H])c(C([H])([H])[H])c(C#N)c2[H])nc1C([H])([H])[H]
     RDKit          3D

 28 29  0  0  0  0  0  0  0  0999 V2000
   -5.0226   -0.4617   -0.0154 C   0  0  0  0  0  0  0  0  0  0  0  0
   -3.5407   -0.3436   -0.0368 C   0  0  0  0  0  0  0  0  0  0  0  0
   -2.7534   -1.3758    0.4102 C   0  0  0  0  0  0  0  0  0  0  0  0
   -1.3913   -1.2500    0.3833 C   0  0  0  0  0  0  0  0  0  0  0  0
   -0.8062   -0.1195   -0.0789 C   0  0  0  0  0  0  0  0  0  0  0  0
   -1.6019    0.9090   -0.5246 C   0  0  0  0  0  0  0  0  0  0  0  0
   -2.9772    0.8204   -0.5135 C   0  0  0  0  0  0  0  0  0  0  0  0
   -3.7844    1.8974   -0.9796 C   0  0  0  0  0  0  0  0  0  0  0  0
   -4.4457    2.7639   -1.3691 N   0  0  0  0  0  0  0  0  0  0  0  0
    0.6281   -0.0806   -0.0680 C   0  0  0  0  0  0  0  0  0  0  0  0
    1.6796   -0.7081    0.2147 N   0  0  0  0  0  0  0  0  0  0  0  0
    2.9047   -0.4794    0.1421 C   0  0  0  0  0  0  0  0  0  0  0  0
    3.9581   -1.5058    0.5922 C   0  0  0  0  0  0  0  0  0  0  0  0
    3.4576    0.6643   -0.3264 C   0  0  0  0  0  0  0  0  0  0  0  0
    1.6725    1.6513   -0.7736 Se  0  0  0  0  0  2  0  0  0  0  0  0
    4.7626    1.2111   -0.5307 C   0  0  0  0  0  0  0  0  0  0  0  0
    4.9966    2.4817   -1.0583 O   0  0  0  0  0  0  0  0  0  0  0  0
    5.7723    0.5365   -0.2290 O   0  0  0  0  0  0  0  0  0  0  0  0
   -5.4484    0.3363    0.6310 H   0  0  0  0  0  0  0  0  0  0  0  0
   -5.4682   -0.3158   -1.0222 H   0  0  0  0  0  0  0  0  0  0  0  0
   -5.3128   -1.4311    0.4348 H   0  0  0  0  0  0  0  0  0  0  0  0
   -3.2318   -2.2631    0.7726 H   0  0  0  0  0  0  0  0  0  0  0  0
   -0.7893   -2.0884    0.7457 H   0  0  0  0  0  0  0  0  0  0  0  0
   -1.1084    1.8051   -0.8904 H   0  0  0  0  0  0  0  0  0  0  0  0
    4.6708   -1.7012   -0.2238 H   0  0  0  0  0  0  0  0  0  0  0  0
    4.4963   -1.0378    1.4386 H   0  0  0  0  0  0  0  0  0  0  0  0
    3.5239   -2.4485    0.8943 H   0  0  0  0  0  0  0  0  0  0  0  0
    5.1593    2.5334   -2.0635 H   0  0  0  0  0  0  0  0  0  0  0  0
  1  2  1  0
  2  3  2  0
  3  4  1  0
  4  5  2  0
  5  6  1  0
  6  7  2  0
  7  8  1  0
  8  9  3  0
  5 10  1  0
 10 11  2  0
 11 12  1  0
 12 13  1  0
 12 14  2  0
 14 15  1  0
 14 16  1  0
 16 17  1  0
 16 18  2  0
  7  2  1  0
 15 10  1  0
  1 19  1  0
  1 20  1  0
  1 21  1  0
  3 22  1  0
  4 23  1  0
  6 24  1  0
 13 25  1  0
 13 26  1  0
 13 27  1  0
 17 28  1  0
M  END
$$$$
[H]N=C(N([H])[H])N([H])C([H])([H])C([H])([H])C([H])([H])[C@@]1([H])C(=O)N([H])[C@]([H])(C([H])([H])c2c([H])c([H])c([H])c([H])c2[H])C(=O)N2C([H])([H])C([H])([H])C([H])([H])[C@@]2([H])C(=O)N([H])[C@@]([H])(C([H])([H])c2c([H])c([H])c([H])c([H])c2[H])C(=O)N2C([H])([H])C([H])([H])C([H])([H])[C@@]2([H])C(=O)N1[H]
     RDKit          3D

 91 95  0  0  0  0  0  0  0  0999 V2000
    7.2935   -4.2055    0.4838 N   0  0  0  0  0  0  0  0  0  0  0  0
    6.7895   -3.6860   -0.7587 C   0  0  0  0  0  0  0  0  0  0  0  0
    7.6057   -3.1842   -1.6134 N   0  0  0  0  0  0  0  0  0  0  0  0
    5.3838   -3.7431   -1.0109 N   0  0  0  0  0  0  0  0  0  0  0  0
    4.5564   -2.5150   -0.9164 C   0  0  0  0  0  0  0  0  0  0  0  0
    4.4874   -2.0619    0.5064 C   0  0  0  0  0  0  0  0  0  0  0  0
    3.7532   -0.8322    0.8233 C   0  0  0  0  0  0  0  0  0  0  0  0
    2.2831   -0.7555    0.5301 C   0  0  2  0  0  0  0  0  0  0  0  0
    2.0248   -0.9126   -0.8496 N   0  0  0  0  0  0  0  0  0  0  0  0
    0.8137   -1.4376   -1.4114 C   0  0  0  0  0  0  0  0  0  0  0  0
    0.5817   -1.0898   -2.6017 O   0  0  0  0  0  0  0  0  0  0  0  0
   -0.1136   -2.3283   -0.6612 C   0  0  2  0  0  0  0  0  0  0  0  0
    0.5153   -3.5841   -0.1567 C   0  0  0  0  0  0  0  0  0  0  0  0
   -0.0736   -4.7346   -0.9888 C   0  0  0  0  0  0  0  0  0  0  0  0
   -0.4213   -3.9353   -2.2533 C   0  0  0  0  0  0  0  0  0  0  0  0
   -1.1018   -2.8006   -1.6207 N   0  0  0  0  0  0  0  0  0  0  0  0
   -2.3782   -2.1920   -1.7919 C   0  0  0  0  0  0  0  0  0  0  0  0
   -2.9219   -2.3743   -2.9270 O   0  0  0  0  0  0  0  0  0  0  0  0
   -3.1257   -1.3916   -0.8255 C   0  0  2  0  0  0  0  0  0  0  0  0
   -4.2094   -2.2841   -0.2571 C   0  0  0  0  0  0  0  0  0  0  0  0
   -5.0867   -1.7044    0.7291 C   0  0  0  0  0  0  0  0  0  0  0  0
   -6.2788   -1.1277    0.3709 C   0  0  0  0  0  0  0  0  0  0  0  0
   -7.1292   -0.5639    1.2940 C   0  0  0  0  0  0  0  0  0  0  0  0
   -6.8006   -0.5651    2.6159 C   0  0  0  0  0  0  0  0  0  0  0  0
   -5.6082   -1.1360    3.0182 C   0  0  0  0  0  0  0  0  0  0  0  0
   -4.7555   -1.7050    2.0631 C   0  0  0  0  0  0  0  0  0  0  0  0
   -3.6327   -0.1396   -1.3465 N   0  0  0  0  0  0  0  0  0  0  0  0
   -2.9210    1.0698   -1.4510 C   0  0  0  0  0  0  0  0  0  0  0  0
   -3.0889    1.7509   -2.4872 O   0  0  0  0  0  0  0  0  0  0  0  0
   -1.9812    1.6219   -0.4401 C   0  0  2  0  0  0  0  0  0  0  0  0
   -2.7698    2.2769    0.7061 C   0  0  0  0  0  0  0  0  0  0  0  0
   -3.3075    3.5273    0.0426 C   0  0  0  0  0  0  0  0  0  0  0  0
   -2.2453    3.8876   -0.9307 C   0  0  0  0  0  0  0  0  0  0  0  0
   -1.2646    2.7872   -0.9559 N   0  0  0  0  0  0  0  0  0  0  0  0
    0.0808    2.7362   -1.3771 C   0  0  0  0  0  0  0  0  0  0  0  0
    0.3069    3.2541   -2.5381 O   0  0  0  0  0  0  0  0  0  0  0  0
    1.2829    2.2008   -0.7406 C   0  0  1  0  0  0  0  0  0  0  0  0
    2.2947    3.3525   -0.5904 C   0  0  0  0  0  0  0  0  0  0  0  0
    1.8087    4.4546    0.2419 C   0  0  0  0  0  0  0  0  0  0  0  0
    1.9842    4.3932    1.6261 C   0  0  0  0  0  0  0  0  0  0  0  0
    1.5601    5.4095    2.4462 C   0  0  0  0  0  0  0  0  0  0  0  0
    0.9420    6.5330    1.9247 C   0  0  0  0  0  0  0  0  0  0  0  0
    0.7603    6.6135    0.5665 C   0  0  0  0  0  0  0  0  0  0  0  0
    1.1952    5.5806   -0.2320 C   0  0  0  0  0  0  0  0  0  0  0  0
    1.1095    1.5700    0.5246 N   0  0  0  0  0  0  0  0  0  0  0  0
    1.8273    0.5388    1.1205 C   0  0  0  0  0  0  0  0  0  0  0  0
    2.1777    0.6579    2.3543 O   0  0  0  0  0  0  0  0  0  0  0  0
    7.3192   -5.2179    0.6829 H   0  0  0  0  0  0  0  0  0  0  0  0
    7.6493   -3.5597    1.2210 H   0  0  0  0  0  0  0  0  0  0  0  0
    8.6174   -3.1470   -1.4248 H   0  0  0  0  0  0  0  0  0  0  0  0
    4.9788   -4.6627   -1.2559 H   0  0  0  0  0  0  0  0  0  0  0  0
    4.9869   -1.7830   -1.6022 H   0  0  0  0  0  0  0  0  0  0  0  0
    3.5682   -2.8326   -1.3398 H   0  0  0  0  0  0  0  0  0  0  0  0
    5.5493   -1.9912    0.8636 H   0  0  0  0  0  0  0  0  0  0  0  0
    4.0778   -2.9472    1.1043 H   0  0  0  0  0  0  0  0  0  0  0  0
    4.2491    0.0039    0.2215 H   0  0  0  0  0  0  0  0  0  0  0  0
    3.9569   -0.5081    1.8898 H   0  0  0  0  0  0  0  0  0  0  0  0
    1.7964   -1.6028    1.1028 H   0  0  0  0  0  0  0  0  0  0  0  0
    2.7781   -0.6189   -1.5460 H   0  0  0  0  0  0  0  0  0  0  0  0
   -0.5999   -1.7533    0.1629 H   0  0  0  0  0  0  0  0  0  0  0  0
    0.2496   -3.7222    0.9271 H   0  0  0  0  0  0  0  0  0  0  0  0
    1.6018   -3.5715   -0.2125 H   0  0  0  0  0  0  0  0  0  0  0  0
   -0.9837   -5.0558   -0.4557 H   0  0  0  0  0  0  0  0  0  0  0  0
    0.6587   -5.5184   -1.1821 H   0  0  0  0  0  0  0  0  0  0  0  0
   -1.0334   -4.4837   -2.9513 H   0  0  0  0  0  0  0  0  0  0  0  0
    0.5218   -3.6569   -2.7100 H   0  0  0  0  0  0  0  0  0  0  0  0
   -2.5087   -1.0954    0.0729 H   0  0  0  0  0  0  0  0  0  0  0  0
   -4.7748   -2.6922   -1.1520 H   0  0  0  0  0  0  0  0  0  0  0  0
   -3.6554   -3.2007    0.1093 H   0  0  0  0  0  0  0  0  0  0  0  0
   -6.5932   -1.1079   -0.6868 H   0  0  0  0  0  0  0  0  0  0  0  0
   -8.0578   -0.1210    0.9671 H   0  0  0  0  0  0  0  0  0  0  0  0
   -7.4638   -0.1188    3.3846 H   0  0  0  0  0  0  0  0  0  0  0  0
   -5.3852   -1.1165    4.0741 H   0  0  0  0  0  0  0  0  0  0  0  0
   -3.8412   -2.1315    2.4481 H   0  0  0  0  0  0  0  0  0  0  0  0
   -4.6288   -0.2249   -1.6572 H   0  0  0  0  0  0  0  0  0  0  0  0
   -1.3383    0.8105   -0.1060 H   0  0  0  0  0  0  0  0  0  0  0  0
   -2.0517    2.5118    1.5078 H   0  0  0  0  0  0  0  0  0  0  0  0
   -3.6044    1.6341    1.0050 H   0  0  0  0  0  0  0  0  0  0  0  0
   -4.3034    3.3648   -0.4112 H   0  0  0  0  0  0  0  0  0  0  0  0
   -3.4541    4.2709    0.8545 H   0  0  0  0  0  0  0  0  0  0  0  0
   -2.6175    4.0988   -1.9559 H   0  0  0  0  0  0  0  0  0  0  0  0
   -1.8276    4.8544   -0.5903 H   0  0  0  0  0  0  0  0  0  0  0  0
    1.7675    1.5394   -1.5136 H   0  0  0  0  0  0  0  0  0  0  0  0
    3.2894    2.9406   -0.2482 H   0  0  0  0  0  0  0  0  0  0  0  0
    2.5332    3.7706   -1.6119 H   0  0  0  0  0  0  0  0  0  0  0  0
    2.4614    3.5370    2.0752 H   0  0  0  0  0  0  0  0  0  0  0  0
    1.6895    5.3766    3.5272 H   0  0  0  0  0  0  0  0  0  0  0  0
    0.6051    7.3413    2.5904 H   0  0  0  0  0  0  0  0  0  0  0  0
    0.2787    7.4837    0.1263 H   0  0  0  0  0  0  0  0  0  0  0  0
    1.0291    5.7060   -1.2915 H   0  0  0  0  0  0  0  0  0  0  0  0
    0.3063    1.9712    1.1061 H   0  0  0  0  0  0  0  0  0  0  0  0
  1  2  1  0
  2  3  2  3
  2  4  1  0
  4  5  1  0
  5  6  1  0
  6  7  1  0
  7  8  1  0
  8  9  1  0
  9 10  1  0
 10 11  2  0
 10 12  1  0
 12 13  1  0
 13 14  1  0
 14 15  1  0
 15 16  1  0
 16 17  1  0
 17 18  2  0
 17 19  1  0
 19 20  1  0
 20 21  1  0
 21 22  2  0
 22 23  1  0
 23 24  2  0
 24 25  1  0
 25 26  2  0
 19 27  1  0
 27 28  1  0
 28 29  2  0
 28 30  1  0
 30 31  1  0
 31 32  1  0
 32 33  1  0
 33 34  1  0
 34 35  1  0
 35 36  2  0
 35 37  1  0
 37 38  1  0
 38 39  1  0
 39 40  2  0
 40 41  1  0
 41 42  2  0
 42 43  1  0
 43 44  2  0
 37 45  1  0
 45 46  1  0
 46 47  2  0
 46  8  1  0
 16 12  1  0
 26 21  1  0
 34 30  1  0
 44 39  1  0
  1 48  1  0
  1 49  1  0
  3 50  1  0
  4 51  1  0
  5 52  1  0
  5 53  1  0
  6 54  1  0
  6 55  1  0
  7 56  1  0
  7 57  1  0
  8 58  1  1
  9 59  1  0
 12 60  1  1
 13 61  1  0
 13 62  1  0
 14 63  1  0
 14 64  1  0
 15 65  1  0
 15 66  1  0
 19 67  1  1
 20 68  1  0
 20 69  1  0
 22 70  1  0
 23 71  1  0
 24 72  1  0
 25 73  1  0
 26 74  1  0
 27 75  1  0
 30 76  1  1
 31 77  1  0
 31 78  1  0
 32 79  1  0
 32 80  1  0
 33 81  1  0
 33 82  1  0
 37 83  1  6
 38 84  1  0
 38 85  1  0
 40 86  1  0
 41 87  1  0
 42 88  1  0
 43 89  1  0
 44 90  1  0
 45 91  1  0
M  END
$$$$
[H]c1c([H])c(N2C([H])([H])C([H])([H])N(c3c([H])c([H])c(C#N)c([H])c3[H])[C@]([H])(C([H])([H])[H])C2([H])[H])c([H])c([H])c1F
     RDKit          3D

 40 42  0  0  0  0  0  0  0  0999 V2000
    1.0598    2.0950    1.2487 C   0  0  0  0  0  0  0  0  0  0  0  0
    0.2667    1.0058    0.5859 C   0  0  2  0  0  0  0  0  0  0  0  0
   -0.9062    0.6297    1.4967 C   0  0  0  0  0  0  0  0  0  0  0  0
   -1.6295   -0.4064    0.7849 N   0  0  0  0  0  0  0  0  0  0  0  0
   -0.9396   -1.6742    0.6744 C   0  0  0  0  0  0  0  0  0  0  0  0
    0.5619   -1.5053    0.7838 C   0  0  0  0  0  0  0  0  0  0  0  0
    1.0146   -0.2185    0.3779 N   0  0  0  0  0  0  0  0  0  0  0  0
    2.2659   -0.1168   -0.2887 C   0  0  0  0  0  0  0  0  0  0  0  0
    3.1763   -1.1327   -0.0992 C   0  0  0  0  0  0  0  0  0  0  0  0
    4.3894   -1.0734   -0.7395 C   0  0  0  0  0  0  0  0  0  0  0  0
    4.7129   -0.0138   -1.5695 C   0  0  0  0  0  0  0  0  0  0  0  0
    3.7775    0.9899   -1.7387 C   0  0  0  0  0  0  0  0  0  0  0  0
    2.5517    0.9664   -1.1151 C   0  0  0  0  0  0  0  0  0  0  0  0
    5.9992    0.0080   -2.2223 C   0  0  0  0  0  0  0  0  0  0  0  0
    7.0342    0.0259   -2.7332 N   0  0  0  0  0  0  0  0  0  0  0  0
   -2.9083   -0.2497    0.2121 C   0  0  0  0  0  0  0  0  0  0  0  0
   -3.5923   -1.3567   -0.2108 C   0  0  0  0  0  0  0  0  0  0  0  0
   -4.8477   -1.2106   -0.7841 C   0  0  0  0  0  0  0  0  0  0  0  0
   -5.4279    0.0235   -0.9402 C   0  0  0  0  0  0  0  0  0  0  0  0
   -6.6604    0.1602   -1.5037 F   0  0  0  0  0  0  0  0  0  0  0  0
   -4.7053    1.1177   -0.5003 C   0  0  0  0  0  0  0  0  0  0  0  0
   -3.4608    1.0269    0.0729 C   0  0  0  0  0  0  0  0  0  0  0  0
    2.1157    1.8640    1.3869 H   0  0  0  0  0  0  0  0  0  0  0  0
    0.9911    3.0432    0.6673 H   0  0  0  0  0  0  0  0  0  0  0  0
    0.6296    2.3489    2.2590 H   0  0  0  0  0  0  0  0  0  0  0  0
   -0.1711    1.3701   -0.3554 H   0  0  0  0  0  0  0  0  0  0  0  0
   -0.4055    0.1441    2.3865 H   0  0  0  0  0  0  0  0  0  0  0  0
   -1.5102    1.4809    1.7984 H   0  0  0  0  0  0  0  0  0  0  0  0
   -1.1955   -2.1305   -0.3041 H   0  0  0  0  0  0  0  0  0  0  0  0
   -1.3411   -2.3391    1.4606 H   0  0  0  0  0  0  0  0  0  0  0  0
    1.0351   -2.2732    0.1036 H   0  0  0  0  0  0  0  0  0  0  0  0
    0.8508   -1.8001    1.8111 H   0  0  0  0  0  0  0  0  0  0  0  0
    2.9641   -1.9951    0.5573 H   0  0  0  0  0  0  0  0  0  0  0  0
    5.1013   -1.8937   -0.5752 H   0  0  0  0  0  0  0  0  0  0  0  0
    4.0066    1.8435   -2.3916 H   0  0  0  0  0  0  0  0  0  0  0  0
    1.8233    1.7417   -1.2498 H   0  0  0  0  0  0  0  0  0  0  0  0
   -3.1705   -2.3663   -0.1030 H   0  0  0  0  0  0  0  0  0  0  0  0
   -5.3877   -2.0989   -1.1195 H   0  0  0  0  0  0  0  0  0  0  0  0
   -5.1661    2.0909   -0.6249 H   0  0  0  0  0  0  0  0  0  0  0  0
   -2.9019    1.8788    0.4111 H   0  0  0  0  0  0  0  0  0  0  0  0
  1  2  1  0
  2  3  1  0
  3  4  1  0
  4  5  1  0
  5  6  1  0
  6  7  1  0
  7  8  1  0
  8  9  2  0
  9 10  1  0
 10 11  2  0
 11 12  1  0
 12 13  2  0
 11 14  1  0
 14 15  3  0
  4 16  1  0
 16 17  2  0
 17 18  1  0
 18 19  2  0
 19 20  1  0
 19 21  1  0
 21 22  2  0
  7  2  1  0
 13  8  1  0
 22 16  1  0
  1 23  1  0
  1 24  1  0
  1 25  1  0
  2 26  1  6
  3 27  1  0
  3 28  1  0
  5 29  1  0
  5 30  1  0
  6 31  1  0
  6 32  1  0
  9 33  1  0
 10 34  1  0
 12 35  1  0
 13 36  1  0
 17 37  1  0
 18 38  1  0
 21 39  1  0
 22 40  1  0
M  END
$$$$
[H]Oc1c([H])c([H])c(C([H])([H])[C@@]([H])(C(=O)N([H])[H])N([H])C(=O)[C@@]([H])(N([H])[H])C([H])([H])C([H])([H])C([H])([H])N=C(N([H])[H])N([H])[H])c([H])c1[H]
     RDKit          3D

 48 48  0  0  0  0  0  0  0  0999 V2000
    1.2725   -0.1557    1.4606 N   0  0  0  0  0  0  0  0  0  0  0  0
    1.5208    1.2255    1.0573 C   0  0  1  0  0  0  0  0  0  0  0  0
    2.1410    1.2344   -0.3295 C   0  0  0  0  0  0  0  0  0  0  0  0
    3.4494    0.4585   -0.2710 C   0  0  0  0  0  0  0  0  0  0  0  0
    4.1029    0.4101   -1.6254 C   0  0  0  0  0  0  0  0  0  0  0  0
    5.3382   -0.2789   -1.6524 N   0  0  0  0  0  0  0  0  0  0  0  0
    5.6112   -1.4543   -1.3184 C   0  0  0  0  0  0  0  0  0  0  0  0
    4.6903   -2.4174   -0.8097 N   0  0  0  0  0  0  0  0  0  0  0  0
    6.9812   -1.8983   -1.4509 N   0  0  0  0  0  0  0  0  0  0  0  0
    0.1878    1.8898    1.0436 C   0  0  0  0  0  0  0  0  0  0  0  0
    0.1555    3.1260    0.8230 O   0  0  0  0  0  0  0  0  0  0  0  0
   -1.0232    1.2035    1.2607 N   0  0  0  0  0  0  0  0  0  0  0  0
   -2.2740    1.8843    1.2364 C   0  0  1  0  0  0  0  0  0  0  0  0
   -3.1081    1.5473    0.0249 C   0  0  0  0  0  0  0  0  0  0  0  0
   -3.4597    0.1504   -0.1413 C   0  0  0  0  0  0  0  0  0  0  0  0
   -4.6273   -0.3574    0.3590 C   0  0  0  0  0  0  0  0  0  0  0  0
   -5.0044   -1.6837    0.2240 C   0  0  0  0  0  0  0  0  0  0  0  0
   -4.1839   -2.5563   -0.4411 C   0  0  0  0  0  0  0  0  0  0  0  0
   -4.5611   -3.8988   -0.5803 O   0  0  0  0  0  0  0  0  0  0  0  0
   -2.9921   -2.0712   -0.9595 C   0  0  0  0  0  0  0  0  0  0  0  0
   -2.6414   -0.7376   -0.8091 C   0  0  0  0  0  0  0  0  0  0  0  0
   -3.0148    1.7964    2.5172 C   0  0  0  0  0  0  0  0  0  0  0  0
   -4.2640    2.4164    2.7331 N   0  0  0  0  0  0  0  0  0  0  0  0
   -2.5131    1.1401    3.4660 O   0  0  0  0  0  0  0  0  0  0  0  0
    2.0001   -0.5223    2.0844 H   0  0  0  0  0  0  0  0  0  0  0  0
    0.9601   -0.7711    0.6911 H   0  0  0  0  0  0  0  0  0  0  0  0
    2.2405    1.6711    1.7509 H   0  0  0  0  0  0  0  0  0  0  0  0
    1.5151    0.7563   -1.0893 H   0  0  0  0  0  0  0  0  0  0  0  0
    2.3618    2.2764   -0.6121 H   0  0  0  0  0  0  0  0  0  0  0  0
    3.2558   -0.5763    0.0770 H   0  0  0  0  0  0  0  0  0  0  0  0
    4.1298    0.9005    0.4823 H   0  0  0  0  0  0  0  0  0  0  0  0
    4.2605    1.4764   -1.9983 H   0  0  0  0  0  0  0  0  0  0  0  0
    3.3937   -0.0144   -2.3961 H   0  0  0  0  0  0  0  0  0  0  0  0
    3.9333   -2.8098   -1.3949 H   0  0  0  0  0  0  0  0  0  0  0  0
    4.7685   -2.7515    0.2013 H   0  0  0  0  0  0  0  0  0  0  0  0
    7.7438   -1.3980   -0.9931 H   0  0  0  0  0  0  0  0  0  0  0  0
    7.1902   -2.7404   -2.0215 H   0  0  0  0  0  0  0  0  0  0  0  0
   -0.9903    0.1814    1.4408 H   0  0  0  0  0  0  0  0  0  0  0  0
   -2.0469    2.9896    1.1131 H   0  0  0  0  0  0  0  0  0  0  0  0
   -4.0308    2.1986    0.0952 H   0  0  0  0  0  0  0  0  0  0  0  0
   -2.5770    1.9329   -0.8863 H   0  0  0  0  0  0  0  0  0  0  0  0
   -5.3022    0.2761    0.8794 H   0  0  0  0  0  0  0  0  0  0  0  0
   -5.9348   -2.0221    0.6383 H   0  0  0  0  0  0  0  0  0  0  0  0
   -5.1092   -4.1148   -1.4229 H   0  0  0  0  0  0  0  0  0  0  0  0
   -2.3678   -2.7998   -1.4826 H   0  0  0  0  0  0  0  0  0  0  0  0
   -1.7047   -0.4186   -1.2325 H   0  0  0  0  0  0  0  0  0  0  0  0
   -4.7823    2.8200    1.9318 H   0  0  0  0  0  0  0  0  0  0  0  0
   -4.6910    2.4869    3.6744 H   0  0  0  0  0  0  0  0  0  0  0  0
  1  2  1  0
  2  3  1  0
  3  4  1  0
  4  5  1  0
  5  6  1  0
  6  7  2  3
  7  8  1  0
  7  9  1  0
  2 10  1  0
 10 11  2  0
 10 12  1  0
 12 13  1  0
 13 14  1  0
 14 15  1  0
 15 16  2  0
 16 17  1  0
 17 18  2  0
 18 19  1  0
 18 20  1  0
 20 21  2  0
 13 22  1  0
 22 23  1  0
 22 24  2  0
 21 15  1  0
  1 25  1  0
  1 26  1  0
  2 27  1  1
  3 28  1  0
  3 29  1  0
  4 30  1  0
  4 31  1  0
  5 32  1  0
  5 33  1  0
  8 34  1  0
  8 35  1  0
  9 36  1  0
  9 37  1  0
 12 38  1  0
 13 39  1  6
 14 40  1  0
 14 41  1  0
 16 42  1  0
 17 43  1  0
 19 44  1  0
 20 45  1  0
 21 46  1  0
 23 47  1  0
 23 48  1  0
M  END
$$$$
[H]c1nc(N([H])c2c([H])c([H])c(N3C([H])([H])C([H])([H])C([H])(N4C([H])([H])C([H])([H])N(C([H])([H])[H])C([H])([H])C4([H])[H])C([H])([H])C3([H])[H])c([H])c2OC([H])([H])[H])nc(N([H])c2c([H])c([H])c([H])c([H])c2S(=O)(=O)C([H])(C([H])([H])[H])C([H])([H])[H])c1Cl
     RDKit          3D

 82 86  0  0  0  0  0  0  0  0999 V2000
   -0.1870    3.7228   -1.2569 C   0  0  0  0  0  0  0  0  0  0  0  0
    0.4390    2.5297   -0.8437 O   0  0  0  0  0  0  0  0  0  0  0  0
   -0.3483    1.4775   -0.4024 C   0  0  0  0  0  0  0  0  0  0  0  0
   -1.7220    1.6350   -0.3827 C   0  0  0  0  0  0  0  0  0  0  0  0
   -2.5624    0.6308    0.0436 C   0  0  0  0  0  0  0  0  0  0  0  0
   -1.9599   -0.5357    0.4478 C   0  0  0  0  0  0  0  0  0  0  0  0
   -0.5748   -0.7280    0.4408 C   0  0  0  0  0  0  0  0  0  0  0  0
    0.2576    0.2764    0.0150 C   0  0  0  0  0  0  0  0  0  0  0  0
    1.6540    0.2011   -0.0367 N   0  0  0  0  0  0  0  0  0  0  0  0
    2.4984   -0.8842    0.3177 C   0  0  0  0  0  0  0  0  0  0  0  0
    2.1033   -2.0726    0.7812 N   0  0  0  0  0  0  0  0  0  0  0  0
    2.9559   -3.0558    1.0957 C   0  0  0  0  0  0  0  0  0  0  0  0
    4.3092   -2.8632    0.9451 C   0  0  0  0  0  0  0  0  0  0  0  0
    5.4455   -4.1449    1.3534 Cl  0  0  0  0  0  0  0  0  0  0  0  0
    4.7527   -1.6166    0.4572 C   0  0  0  0  0  0  0  0  0  0  0  0
    6.1380   -1.4466    0.3110 N   0  0  0  0  0  0  0  0  0  0  0  0
    6.9009   -0.3576   -0.1368 C   0  0  0  0  0  0  0  0  0  0  0  0
    6.2766    0.8084   -0.5266 C   0  0  0  0  0  0  0  0  0  0  0  0
    7.0240    1.9039   -0.9778 C   0  0  0  0  0  0  0  0  0  0  0  0
    8.3820    1.8034   -1.0274 C   0  0  0  0  0  0  0  0  0  0  0  0
    9.0024    0.6381   -0.6374 C   0  0  0  0  0  0  0  0  0  0  0  0
    8.2961   -0.4485   -0.1920 C   0  0  0  0  0  0  0  0  0  0  0  0
    9.0842   -1.8926    0.2913 S   0  0  0  0  0  0  0  0  0  0  0  0
    8.6633   -3.0312   -0.6035 O   0  0  0  0  0  0  0  0  0  0  0  0
    8.8235   -2.3045    1.7132 O   0  0  0  0  0  0  0  0  0  0  0  0
   10.8572   -1.7881    0.1370 C   0  0  0  0  0  0  0  0  0  0  0  0
   11.2609   -1.6791   -1.2975 C   0  0  0  0  0  0  0  0  0  0  0  0
   11.4760   -0.7869    1.0544 C   0  0  0  0  0  0  0  0  0  0  0  0
    3.8248   -0.7008    0.1721 N   0  0  0  0  0  0  0  0  0  0  0  0
   -3.9818    0.8060    0.0512 N   0  0  0  0  0  0  0  0  0  0  0  0
   -4.5241    1.9609   -0.5784 C   0  0  0  0  0  0  0  0  0  0  0  0
   -6.0011    1.9283   -0.8544 C   0  0  0  0  0  0  0  0  0  0  0  0
   -6.8245    1.3726    0.2584 C   0  0  0  0  0  0  0  0  0  0  0  0
   -6.0036    0.6088    1.2781 C   0  0  0  0  0  0  0  0  0  0  0  0
   -4.8657   -0.1463    0.6796 C   0  0  0  0  0  0  0  0  0  0  0  0
   -7.9560    0.6086   -0.0875 N   0  0  0  0  0  0  0  0  0  0  0  0
   -7.7905   -0.5856   -0.8057 C   0  0  0  0  0  0  0  0  0  0  0  0
   -9.1362   -1.0235   -1.3907 C   0  0  0  0  0  0  0  0  0  0  0  0
  -10.1390   -0.8718   -0.3544 N   0  0  0  0  0  0  0  0  0  0  0  0
  -10.0361   -1.8235    0.7053 C   0  0  0  0  0  0  0  0  0  0  0  0
  -10.3349    0.4834    0.0484 C   0  0  0  0  0  0  0  0  0  0  0  0
   -9.1475    1.3193   -0.4248 C   0  0  0  0  0  0  0  0  0  0  0  0
    0.5375    4.4499   -1.6799 H   0  0  0  0  0  0  0  0  0  0  0  0
   -0.9481    3.5330   -2.0530 H   0  0  0  0  0  0  0  0  0  0  0  0
   -0.6880    4.2523   -0.4156 H   0  0  0  0  0  0  0  0  0  0  0  0
   -2.1476    2.5764   -0.7105 H   0  0  0  0  0  0  0  0  0  0  0  0
   -2.6020   -1.3517    0.7883 H   0  0  0  0  0  0  0  0  0  0  0  0
   -0.2121   -1.6859    0.7807 H   0  0  0  0  0  0  0  0  0  0  0  0
    2.1500    1.0935   -0.3956 H   0  0  0  0  0  0  0  0  0  0  0  0
    2.6174   -4.0222    1.4737 H   0  0  0  0  0  0  0  0  0  0  0  0
    6.7215   -2.3022    0.5911 H   0  0  0  0  0  0  0  0  0  0  0  0
    5.2202    0.9989   -0.5296 H   0  0  0  0  0  0  0  0  0  0  0  0
    6.5603    2.8305   -1.2896 H   0  0  0  0  0  0  0  0  0  0  0  0
    9.0220    2.6252   -1.3712 H   0  0  0  0  0  0  0  0  0  0  0  0
   10.0936    0.6299   -0.7052 H   0  0  0  0  0  0  0  0  0  0  0  0
   11.2252   -2.8031    0.4806 H   0  0  0  0  0  0  0  0  0  0  0  0
   11.9033   -0.7785   -1.4926 H   0  0  0  0  0  0  0  0  0  0  0  0
   10.3307   -1.5514   -1.9199 H   0  0  0  0  0  0  0  0  0  0  0  0
   11.7765   -2.5763   -1.6995 H   0  0  0  0  0  0  0  0  0  0  0  0
   12.0225   -1.2557    1.8769 H   0  0  0  0  0  0  0  0  0  0  0  0
   12.1781   -0.1622    0.4319 H   0  0  0  0  0  0  0  0  0  0  0  0
   10.7434   -0.0899    1.5079 H   0  0  0  0  0  0  0  0  0  0  0  0
   -4.2803    2.8410    0.0525 H   0  0  0  0  0  0  0  0  0  0  0  0
   -3.9354    2.1199   -1.5269 H   0  0  0  0  0  0  0  0  0  0  0  0
   -6.3084    2.9635   -1.1164 H   0  0  0  0  0  0  0  0  0  0  0  0
   -6.1470    1.3325   -1.7818 H   0  0  0  0  0  0  0  0  0  0  0  0
   -7.2139    2.2642    0.8421 H   0  0  0  0  0  0  0  0  0  0  0  0
   -6.6586   -0.1075    1.8153 H   0  0  0  0  0  0  0  0  0  0  0  0
   -5.5929    1.2907    2.0626 H   0  0  0  0  0  0  0  0  0  0  0  0
   -5.1731   -0.8869   -0.0780 H   0  0  0  0  0  0  0  0  0  0  0  0
   -4.3121   -0.6097    1.5260 H   0  0  0  0  0  0  0  0  0  0  0  0
   -7.5080   -1.4012   -0.0997 H   0  0  0  0  0  0  0  0  0  0  0  0
   -7.0082   -0.5774   -1.5870 H   0  0  0  0  0  0  0  0  0  0  0  0
   -9.4445   -0.3742   -2.2343 H   0  0  0  0  0  0  0  0  0  0  0  0
   -9.0261   -2.0597   -1.7202 H   0  0  0  0  0  0  0  0  0  0  0  0
   -9.1822   -2.5377    0.5321 H   0  0  0  0  0  0  0  0  0  0  0  0
   -9.9814   -1.3564    1.7041 H   0  0  0  0  0  0  0  0  0  0  0  0
  -10.9456   -2.4645    0.6802 H   0  0  0  0  0  0  0  0  0  0  0  0
  -11.2261    0.8855   -0.4545 H   0  0  0  0  0  0  0  0  0  0  0  0
  -10.4517    0.5517    1.1515 H   0  0  0  0  0  0  0  0  0  0  0  0
   -9.2778    1.5186   -1.4917 H   0  0  0  0  0  0  0  0  0  0  0  0
   -9.1611    2.2698    0.1783 H   0  0  0  0  0  0  0  0  0  0  0  0
  1  2  1  0
  2  3  1  0
  3  4  2  0
  4  5  1  0
  5  6  2  0
  6  7  1  0
  7  8  2  0
  8  9  1  0
  9 10  1  0
 10 11  2  0
 11 12  1  0
 12 13  2  0
 13 14  1  0
 13 15  1  0
 15 16  1  0
 16 17  1  0
 17 18  2  0
 18 19  1  0
 19 20  2  0
 20 21  1  0
 21 22  2  0
 22 23  1  0
 23 24  2  0
 23 25  2  0
 23 26  1  0
 26 27  1  0
 26 28  1  0
 15 29  2  0
  5 30  1  0
 30 31  1  0
 31 32  1  0
 32 33  1  0
 33 34  1  0
 34 35  1  0
 33 36  1  0
 36 37  1  0
 37 38  1  0
 38 39  1  0
 39 40  1  0
 39 41  1  0
 41 42  1  0
  8  3  1  0
 29 10  1  0
 35 30  1  0
 42 36  1  0
 22 17  1  0
  1 43  1  0
  1 44  1  0
  1 45  1  0
  4 46  1  0
  6 47  1  0
  7 48  1  0
  9 49  1  0
 12 50  1  0
 16 51  1  0
 18 52  1  0
 19 53  1  0
 20 54  1  0
 21 55  1  0
 26 56  1  0
 27 57  1  0
 27 58  1  0
 27 59  1  0
 28 60  1  0
 28 61  1  0
 28 62  1  0
 31 63  1  0
 31 64  1  0
 32 65  1  0
 32 66  1  0
 33 67  1  0
 34 68  1  0
 34 69  1  0
 35 70  1  0
 35 71  1  0
 37 72  1  0
 37 73  1  0
 38 74  1  0
 38 75  1  0
 40 76  1  0
 40 77  1  0
 40 78  1  0
 41 79  1  0
 41 80  1  0
 42 81  1  0
 42 82  1  0
M  END
$$$$
[H]c1c([H])c([C@]2([H])C([H])([H])N(S(=O)(=O)C([H])([H])[H])C([H])([H])[C@@]2([H])N([H])C(=O)c2c([H])c(OC([H])([H])[H])c(OC([H])([H])[H])c(OC([H])([H])[H])c2[H])c([H])c(F)c1F
     RDKit          3D

 56 58  0  0  0  0  0  0  0  0999 V2000
   -3.2530    2.9946   -1.2492 C   0  0  0  0  0  0  0  0  0  0  0  0
   -4.1029    1.8694   -1.3693 O   0  0  0  0  0  0  0  0  0  0  0  0
   -3.6289    0.6082   -0.9727 C   0  0  0  0  0  0  0  0  0  0  0  0
   -2.3299    0.4870   -0.4673 C   0  0  0  0  0  0  0  0  0  0  0  0
   -1.8425   -0.7354   -0.0722 C   0  0  0  0  0  0  0  0  0  0  0  0
   -2.6728   -1.8216   -0.1922 C   0  0  0  0  0  0  0  0  0  0  0  0
   -3.9613   -1.7233   -0.6897 C   0  0  0  0  0  0  0  0  0  0  0  0
   -4.8016   -2.8252   -0.8107 O   0  0  0  0  0  0  0  0  0  0  0  0
   -4.3811   -4.1261   -0.4272 C   0  0  0  0  0  0  0  0  0  0  0  0
   -4.4468   -0.4957   -1.0849 C   0  0  0  0  0  0  0  0  0  0  0  0
   -5.7488   -0.3599   -1.5939 O   0  0  0  0  0  0  0  0  0  0  0  0
   -6.8027   -0.0925   -0.6765 C   0  0  0  0  0  0  0  0  0  0  0  0
   -0.5173   -0.8845    0.4477 C   0  0  0  0  0  0  0  0  0  0  0  0
   -0.1452   -2.0591    0.7974 O   0  0  0  0  0  0  0  0  0  0  0  0
    0.4072    0.1921    0.5980 N   0  0  0  0  0  0  0  0  0  0  0  0
    1.7064   -0.0844    1.1316 C   0  0  2  0  0  0  0  0  0  0  0  0
    1.8851    0.8065    2.3579 C   0  0  0  0  0  0  0  0  0  0  0  0
    3.2889    1.0633    2.4697 N   0  0  0  0  0  0  0  0  0  0  0  0
    3.9303    0.5838    1.2849 C   0  0  0  0  0  0  0  0  0  0  0  0
    2.8257    0.4326    0.2583 C   0  0  1  0  0  0  0  0  0  0  0  0
    3.2793   -0.5636   -0.7322 C   0  0  0  0  0  0  0  0  0  0  0  0
    3.7017   -1.8231   -0.4159 C   0  0  0  0  0  0  0  0  0  0  0  0
    4.1183   -2.7175   -1.4018 C   0  0  0  0  0  0  0  0  0  0  0  0
    4.1057   -2.3289   -2.7222 C   0  0  0  0  0  0  0  0  0  0  0  0
    4.5054   -3.1723   -3.7242 F   0  0  0  0  0  0  0  0  0  0  0  0
    3.6843   -1.0639   -3.0695 C   0  0  0  0  0  0  0  0  0  0  0  0
    3.6462   -0.6147   -4.3516 F   0  0  0  0  0  0  0  0  0  0  0  0
    3.2725   -0.1895   -2.0590 C   0  0  0  0  0  0  0  0  0  0  0  0
    3.6506    2.7474    2.6463 S   0  0  0  0  0  0  0  0  0  0  0  0
    3.1065    3.6722    1.2349 C   0  0  0  0  0  0  0  0  0  0  0  0
    5.1400    2.8653    2.7979 O   0  0  0  0  0  0  0  0  0  0  0  0
    2.9440    3.2837    3.8528 O   0  0  0  0  0  0  0  0  0  0  0  0
   -3.7838    3.9022   -1.6007 H   0  0  0  0  0  0  0  0  0  0  0  0
   -2.3322    2.8675   -1.8732 H   0  0  0  0  0  0  0  0  0  0  0  0
   -2.9320    3.1137   -0.1904 H   0  0  0  0  0  0  0  0  0  0  0  0
   -1.7589    1.4019   -0.4142 H   0  0  0  0  0  0  0  0  0  0  0  0
   -2.3140   -2.7830    0.1099 H   0  0  0  0  0  0  0  0  0  0  0  0
   -4.3715   -4.1661    0.6933 H   0  0  0  0  0  0  0  0  0  0  0  0
   -3.3580   -4.2570   -0.8376 H   0  0  0  0  0  0  0  0  0  0  0  0
   -5.0858   -4.8547   -0.8704 H   0  0  0  0  0  0  0  0  0  0  0  0
   -6.5608    0.8776   -0.1850 H   0  0  0  0  0  0  0  0  0  0  0  0
   -7.7320    0.0008   -1.2437 H   0  0  0  0  0  0  0  0  0  0  0  0
   -6.8345   -0.8928    0.0880 H   0  0  0  0  0  0  0  0  0  0  0  0
    0.1057    1.1548    0.3124 H   0  0  0  0  0  0  0  0  0  0  0  0
    1.8191   -1.1509    1.3748 H   0  0  0  0  0  0  0  0  0  0  0  0
    1.3825    1.7733    2.1003 H   0  0  0  0  0  0  0  0  0  0  0  0
    1.4338    0.3531    3.2602 H   0  0  0  0  0  0  0  0  0  0  0  0
    4.7527    1.2295    0.9269 H   0  0  0  0  0  0  0  0  0  0  0  0
    4.3765   -0.4155    1.4712 H   0  0  0  0  0  0  0  0  0  0  0  0
    2.5192    1.3812   -0.1828 H   0  0  0  0  0  0  0  0  0  0  0  0
    3.7176   -2.1411    0.6057 H   0  0  0  0  0  0  0  0  0  0  0  0
    4.4531   -3.7127   -1.1656 H   0  0  0  0  0  0  0  0  0  0  0  0
    2.9408    0.8141   -2.3632 H   0  0  0  0  0  0  0  0  0  0  0  0
    3.2758    4.7394    1.4510 H   0  0  0  0  0  0  0  0  0  0  0  0
    3.6714    3.4313    0.3145 H   0  0  0  0  0  0  0  0  0  0  0  0
    2.0519    3.4085    1.0581 H   0  0  0  0  0  0  0  0  0  0  0  0
  1  2  1  0
  2  3  1  0
  3  4  2  0
  4  5  1  0
  5  6  2  0
  6  7  1  0
  7  8  1  0
  8  9  1  0
  7 10  2  0
 10 11  1  0
 11 12  1  0
  5 13  1  0
 13 14  2  0
 13 15  1  0
 15 16  1  0
 16 17  1  0
 17 18  1  0
 18 19  1  0
 19 20  1  0
 20 21  1  0
 21 22  2  0
 22 23  1  0
 23 24  2  0
 24 25  1  0
 24 26  1  0
 26 27  1  0
 26 28  2  0
 18 29  1  0
 29 30  1  0
 29 31  2  0
 29 32  2  0
 10  3  1  0
 20 16  1  0
 28 21  1  0
  1 33  1  0
  1 34  1  0
  1 35  1  0
  4 36  1  0
  6 37  1  0
  9 38  1  0
  9 39  1  0
  9 40  1  0
 12 41  1  0
 12 42  1  0
 12 43  1  0
 15 44  1  0
 16 45  1  1
 17 46  1  0
 17 47  1  0
 19 48  1  0
 19 49  1  0
 20 50  1  6
 22 51  1  0
 23 52  1  0
 28 53  1  0
 30 54  1  0
 30 55  1  0
 30 56  1  0
M  END
$$$$
[H]OC(=O)C([H])([H])[C@@]([H])(C(=O)O[H])N([H])C(=O)[C@@]1([H])N(C(=O)[C@@]([H])(N([H])C(=O)[C@@]([H])(N([H])C(=O)[C@@]([H])(N([H])C(=O)[C@@]([H])(N([H])C(=O)OC([H])([H])c2c([H])c([H])c([H])c([H])c2[H])C([H])(C([H])([H])[H])C([H])([H])[H])C([H])([H])C([H])(C([H])([H])[H])C([H])([H])[H])C([H])([H])C([H])(C([H])([H])[H])C([H])([H])[H])C([H])([H])C([H])(C([H])([H])[H])C([H])([H])[H])C([H])([H])C([H])([H])C1([H])[H]
     RDKit          3D

119120  0  0  0  0  0  0  0  0999 V2000
   -2.5843   -2.4421   -3.0552 C   0  0  0  0  0  0  0  0  0  0  0  0
   -1.8664   -2.2108   -1.7171 C   0  0  0  0  0  0  0  0  0  0  0  0
   -0.7572   -3.2310   -1.6881 C   0  0  0  0  0  0  0  0  0  0  0  0
   -1.4747   -0.7977   -1.6484 C   0  0  0  0  0  0  0  0  0  0  0  0
   -0.7811   -0.3416   -0.3655 C   0  0  2  0  0  0  0  0  0  0  0  0
    0.4654   -0.9865   -0.0989 N   0  0  0  0  0  0  0  0  0  0  0  0
    1.6963   -0.3071   -0.4169 C   0  0  0  0  0  0  0  0  0  0  0  0
    1.5741    0.8356   -0.9205 O   0  0  0  0  0  0  0  0  0  0  0  0
    3.0210   -0.8641   -0.1894 C   0  0  2  0  0  0  0  0  0  0  0  0
    3.3432   -1.2933    1.1999 C   0  0  0  0  0  0  0  0  0  0  0  0
    3.2626   -0.2694    2.2731 C   0  0  0  0  0  0  0  0  0  0  0  0
    1.9492    0.3542    2.5293 C   0  0  0  0  0  0  0  0  0  0  0  0
    3.7117   -0.9463    3.5711 C   0  0  0  0  0  0  0  0  0  0  0  0
    4.0313    0.0163   -0.7576 N   0  0  0  0  0  0  0  0  0  0  0  0
    4.8775   -0.3521   -1.8092 C   0  0  0  0  0  0  0  0  0  0  0  0
    4.7495   -1.5041   -2.2733 O   0  0  0  0  0  0  0  0  0  0  0  0
    5.8855    0.5637   -2.3602 C   0  0  1  0  0  0  0  0  0  0  0  0
    7.1313   -0.1116   -2.7254 N   0  0  0  0  0  0  0  0  0  0  0  0
    8.3312    0.2715   -1.9993 C   0  0  0  0  0  0  0  0  0  0  0  0
    8.1877    1.1079   -1.1067 O   0  0  0  0  0  0  0  0  0  0  0  0
    9.5662   -0.2674   -2.2885 O   0  0  0  0  0  0  0  0  0  0  0  0
   10.7685    0.0319   -1.6527 C   0  0  0  0  0  0  0  0  0  0  0  0
   10.8420   -0.3316   -0.2161 C   0  0  0  0  0  0  0  0  0  0  0  0
   10.6039    0.5882    0.7418 C   0  0  0  0  0  0  0  0  0  0  0  0
   10.6673    0.2937    2.1035 C   0  0  0  0  0  0  0  0  0  0  0  0
   10.9808   -0.9681    2.4773 C   0  0  0  0  0  0  0  0  0  0  0  0
   11.2344   -1.9348    1.4886 C   0  0  0  0  0  0  0  0  0  0  0  0
   11.1725   -1.6462    0.1463 C   0  0  0  0  0  0  0  0  0  0  0  0
    5.3572    1.3153   -3.5715 C   0  0  0  0  0  0  0  0  0  0  0  0
    6.4527    2.2175   -4.1239 C   0  0  0  0  0  0  0  0  0  0  0  0
    4.2110    2.2373   -3.2114 C   0  0  0  0  0  0  0  0  0  0  0  0
   -1.7715   -0.4275    0.7337 C   0  0  0  0  0  0  0  0  0  0  0  0
   -1.4414   -1.2850    1.6717 O   0  0  0  0  0  0  0  0  0  0  0  0
   -2.9282    0.2704    0.8445 N   0  0  0  0  0  0  0  0  0  0  0  0
   -3.8644    0.1366    1.9406 C   0  0  1  0  0  0  0  0  0  0  0  0
   -3.6404    1.1888    2.9550 C   0  0  0  0  0  0  0  0  0  0  0  0
   -3.7485    2.6178    2.6130 C   0  0  0  0  0  0  0  0  0  0  0  0
   -2.8007    3.1150    1.5666 C   0  0  0  0  0  0  0  0  0  0  0  0
   -3.3570    3.3909    3.8957 C   0  0  0  0  0  0  0  0  0  0  0  0
   -5.2392    0.0001    1.4331 C   0  0  0  0  0  0  0  0  0  0  0  0
   -5.3699    0.4077    0.1890 O   0  0  0  0  0  0  0  0  0  0  0  0
   -6.3554   -0.4989    2.0991 N   0  0  0  0  0  0  0  0  0  0  0  0
   -6.3812   -1.0050    3.4290 C   0  0  0  0  0  0  0  0  0  0  0  0
   -7.6798   -0.4032    3.9644 C   0  0  0  0  0  0  0  0  0  0  0  0
   -8.5282   -0.1274    2.7597 C   0  0  0  0  0  0  0  0  0  0  0  0
   -7.7031   -0.6578    1.6018 C   0  0  1  0  0  0  0  0  0  0  0  0
   -7.9508    0.1968    0.3901 C   0  0  0  0  0  0  0  0  0  0  0  0
   -7.8751    1.4327    0.6080 O   0  0  0  0  0  0  0  0  0  0  0  0
   -8.2250   -0.3806   -0.8107 N   0  0  0  0  0  0  0  0  0  0  0  0
   -8.5029   -0.9628   -2.0285 C   0  0  1  0  0  0  0  0  0  0  0  0
   -8.4894    0.0872   -3.2006 C   0  0  0  0  0  0  0  0  0  0  0  0
   -9.5169    1.1320   -2.8391 C   0  0  0  0  0  0  0  0  0  0  0  0
   -9.6506    2.3201   -3.5202 O   0  0  0  0  0  0  0  0  0  0  0  0
  -10.2975    0.9191   -1.8614 O   0  0  0  0  0  0  0  0  0  0  0  0
   -7.4798   -1.9692   -2.3906 C   0  0  0  0  0  0  0  0  0  0  0  0
   -7.6376   -2.6984   -3.5994 O   0  0  0  0  0  0  0  0  0  0  0  0
   -6.5192   -2.1448   -1.6244 O   0  0  0  0  0  0  0  0  0  0  0  0
   -2.9691   -1.4798   -3.4603 H   0  0  0  0  0  0  0  0  0  0  0  0
   -3.3982   -3.1829   -2.9008 H   0  0  0  0  0  0  0  0  0  0  0  0
   -1.8404   -2.8371   -3.7713 H   0  0  0  0  0  0  0  0  0  0  0  0
   -2.5536   -2.5265   -0.8808 H   0  0  0  0  0  0  0  0  0  0  0  0
   -0.5675   -3.6096   -0.6391 H   0  0  0  0  0  0  0  0  0  0  0  0
    0.1859   -2.8356   -2.1144 H   0  0  0  0  0  0  0  0  0  0  0  0
   -1.0611   -4.1555   -2.2302 H   0  0  0  0  0  0  0  0  0  0  0  0
   -2.4113   -0.1397   -1.6628 H   0  0  0  0  0  0  0  0  0  0  0  0
   -0.8742   -0.5147   -2.5305 H   0  0  0  0  0  0  0  0  0  0  0  0
   -0.5727    0.7295   -0.5442 H   0  0  0  0  0  0  0  0  0  0  0  0
    0.5508   -1.9174    0.3397 H   0  0  0  0  0  0  0  0  0  0  0  0
    3.0715   -1.8092   -0.8132 H   0  0  0  0  0  0  0  0  0  0  0  0
    2.7329   -2.1640    1.4442 H   0  0  0  0  0  0  0  0  0  0  0  0
    4.4090   -1.6695    1.1940 H   0  0  0  0  0  0  0  0  0  0  0  0
    4.0148    0.5408    2.1341 H   0  0  0  0  0  0  0  0  0  0  0  0
    1.6158    1.1496    1.8696 H   0  0  0  0  0  0  0  0  0  0  0  0
    1.1654   -0.4365    2.7413 H   0  0  0  0  0  0  0  0  0  0  0  0
    2.0470    0.8609    3.5527 H   0  0  0  0  0  0  0  0  0  0  0  0
    3.1501   -1.9275    3.7225 H   0  0  0  0  0  0  0  0  0  0  0  0
    4.7990   -1.0933    3.6190 H   0  0  0  0  0  0  0  0  0  0  0  0
    3.3990   -0.3342    4.4548 H   0  0  0  0  0  0  0  0  0  0  0  0
    4.1036    0.9644   -0.3452 H   0  0  0  0  0  0  0  0  0  0  0  0
    6.1093    1.3078   -1.5638 H   0  0  0  0  0  0  0  0  0  0  0  0
    7.1528   -0.8213   -3.4555 H   0  0  0  0  0  0  0  0  0  0  0  0
   11.5938   -0.4657   -2.1551 H   0  0  0  0  0  0  0  0  0  0  0  0
   11.0114    1.1303   -1.7038 H   0  0  0  0  0  0  0  0  0  0  0  0
   10.3593    1.6361    0.5281 H   0  0  0  0  0  0  0  0  0  0  0  0
   10.4631    1.0884    2.8449 H   0  0  0  0  0  0  0  0  0  0  0  0
   11.0391   -1.2134    3.5443 H   0  0  0  0  0  0  0  0  0  0  0  0
   11.4984   -2.9232    1.8354 H   0  0  0  0  0  0  0  0  0  0  0  0
   11.3542   -2.3388   -0.6223 H   0  0  0  0  0  0  0  0  0  0  0  0
    5.0508    0.6172   -4.3594 H   0  0  0  0  0  0  0  0  0  0  0  0
    6.9744    2.7211   -3.2973 H   0  0  0  0  0  0  0  0  0  0  0  0
    5.9400    2.9962   -4.7422 H   0  0  0  0  0  0  0  0  0  0  0  0
    7.1793    1.6496   -4.7314 H   0  0  0  0  0  0  0  0  0  0  0  0
    3.2833    1.6803   -2.9651 H   0  0  0  0  0  0  0  0  0  0  0  0
    4.5090    2.8408   -2.3011 H   0  0  0  0  0  0  0  0  0  0  0  0
    3.9867    2.9580   -4.0139 H   0  0  0  0  0  0  0  0  0  0  0  0
   -3.2424    0.9524    0.0993 H   0  0  0  0  0  0  0  0  0  0  0  0
   -3.5579   -0.8335    2.4420 H   0  0  0  0  0  0  0  0  0  0  0  0
   -4.1954    1.0443    3.9227 H   0  0  0  0  0  0  0  0  0  0  0  0
   -2.5544    1.0424    3.3056 H   0  0  0  0  0  0  0  0  0  0  0  0
   -4.7968    2.9524    2.4245 H   0  0  0  0  0  0  0  0  0  0  0  0
   -1.8781    2.5103    1.6016 H   0  0  0  0  0  0  0  0  0  0  0  0
   -2.4252    4.1551    1.8956 H   0  0  0  0  0  0  0  0  0  0  0  0
   -3.2245    3.2122    0.5485 H   0  0  0  0  0  0  0  0  0  0  0  0
   -3.9175    2.9807    4.7844 H   0  0  0  0  0  0  0  0  0  0  0  0
   -3.6580    4.4458    3.7739 H   0  0  0  0  0  0  0  0  0  0  0  0
   -2.2798    3.3355    4.0427 H   0  0  0  0  0  0  0  0  0  0  0  0
   -6.4961   -2.1263    3.3572 H   0  0  0  0  0  0  0  0  0  0  0  0
   -5.5276   -0.7826    4.0696 H   0  0  0  0  0  0  0  0  0  0  0  0
   -7.4217    0.4955    4.5635 H   0  0  0  0  0  0  0  0  0  0  0  0
   -8.0907   -1.2063    4.6292 H   0  0  0  0  0  0  0  0  0  0  0  0
   -9.4683   -0.6789    2.8775 H   0  0  0  0  0  0  0  0  0  0  0  0
   -8.6739    0.9645    2.6999 H   0  0  0  0  0  0  0  0  0  0  0  0
   -7.9141   -1.7002    1.4076 H   0  0  0  0  0  0  0  0  0  0  0  0
   -7.9404    0.8018   -1.4349 H   0  0  0  0  0  0  0  0  0  0  0  0
   -9.5702   -1.3201   -2.1547 H   0  0  0  0  0  0  0  0  0  0  0  0
   -8.9142   -0.4010   -4.1037 H   0  0  0  0  0  0  0  0  0  0  0  0
   -7.5301    0.4951   -3.3993 H   0  0  0  0  0  0  0  0  0  0  0  0
   -9.5455    3.1888   -2.9414 H   0  0  0  0  0  0  0  0  0  0  0  0
   -7.3354   -3.6938   -3.5880 H   0  0  0  0  0  0  0  0  0  0  0  0
  1  2  1  0
  2  3  1  0
  2  4  1  0
  4  5  1  0
  5  6  1  0
  6  7  1  0
  7  8  2  0
  7  9  1  0
  9 10  1  0
 10 11  1  0
 11 12  1  0
 11 13  1  0
  9 14  1  0
 14 15  1  0
 15 16  2  0
 15 17  1  0
 17 18  1  0
 18 19  1  0
 19 20  2  0
 19 21  1  0
 21 22  1  0
 22 23  1  0
 23 24  2  0
 24 25  1  0
 25 26  2  0
 26 27  1  0
 27 28  2  0
 17 29  1  0
 29 30  1  0
 29 31  1  0
  5 32  1  0
 32 33  2  0
 32 34  1  0
 34 35  1  0
 35 36  1  0
 36 37  1  0
 37 38  1  0
 37 39  1  0
 35 40  1  0
 40 41  2  0
 40 42  1  0
 42 43  1  0
 43 44  1  0
 44 45  1  0
 45 46  1  0
 46 47  1  0
 47 48  2  0
 47 49  1  0
 49 50  1  0
 50 51  1  0
 51 52  1  0
 52 53  1  0
 52 54  2  0
 50 55  1  0
 55 56  1  0
 55 57  2  0
 28 23  1  0
 46 42  1  0
  1 58  1  0
  1 59  1  0
  1 60  1  0
  2 61  1  0
  3 62  1  0
  3 63  1  0
  3 64  1  0
  4 65  1  0
  4 66  1  0
  5 67  1  6
  6 68  1  0
  9 69  1  6
 10 70  1  0
 10 71  1  0
 11 72  1  0
 12 73  1  0
 12 74  1  0
 12 75  1  0
 13 76  1  0
 13 77  1  0
 13 78  1  0
 14 79  1  0
 17 80  1  1
 18 81  1  0
 22 82  1  0
 22 83  1  0
 24 84  1  0
 25 85  1  0
 26 86  1  0
 27 87  1  0
 28 88  1  0
 29 89  1  0
 30 90  1  0
 30 91  1  0
 30 92  1  0
 31 93  1  0
 31 94  1  0
 31 95  1  0
 34 96  1  0
 35 97  1  1
 36 98  1  0
 36 99  1  0
 37100  1  0
 38101  1  0
 38102  1  0
 38103  1  0
 39104  1  0
 39105  1  0
 39106  1  0
 43107  1  0
 43108  1  0
 44109  1  0
 44110  1  0
 45111  1  0
 45112  1  0
 46113  1  6
 49114  1  0
 50115  1  1
 51116  1  0
 51117  1  0
 53118  1  0
 56119  1  0
M  END
$$$$
[H]OC(=O)[C@@]([H])(N([H])C(=O)[C@@]([H])(N([H])C(=O)[C@@]([H])(N([H])C(=O)[C@@]([H])(N([H])C(=O)[C@@]1([H])N(C(=O)[C@@]([H])(N([H])C(=O)OC([H])([H])c2c([H])c([H])c([H])c([H])c2[H])[C@@]([H])(C([H])([H])[H])C([H])([H])C([H])([H])[H])C([H])([H])C([H])([H])C1([H])[H])C([H])([H])C([H])(C([H])([H])[H])C([H])([H])[H])C([H])([H])C([H])(C([H])([H])[H])C([H])([H])[H])C([H])([H])O[H])C([H])([H])O[H]
     RDKit          3D

112113  0  0  0  0  0  0  0  0999 V2000
   -7.5221   -2.9906   -0.2777 C   0  0  0  0  0  0  0  0  0  0  0  0
   -6.7100   -1.7599   -0.6644 C   0  0  0  0  0  0  0  0  0  0  0  0
   -5.5042   -1.6201    0.2582 C   0  0  2  0  0  0  0  0  0  0  0  0
   -5.9114   -1.4745    1.6996 C   0  0  0  0  0  0  0  0  0  0  0  0
   -4.6087   -0.4821   -0.2050 C   0  0  2  0  0  0  0  0  0  0  0  0
   -5.3735    0.7530   -0.1902 N   0  0  0  0  0  0  0  0  0  0  0  0
   -5.3004    1.8373    0.6420 C   0  0  0  0  0  0  0  0  0  0  0  0
   -4.4787    1.9026    1.5826 O   0  0  0  0  0  0  0  0  0  0  0  0
   -6.1502    2.9101    0.4653 O   0  0  0  0  0  0  0  0  0  0  0  0
   -6.0682    4.0129    1.3416 C   0  0  0  0  0  0  0  0  0  0  0  0
   -7.0913    4.9829    0.8978 C   0  0  0  0  0  0  0  0  0  0  0  0
   -7.6870    5.8047    1.8102 C   0  0  0  0  0  0  0  0  0  0  0  0
   -8.6411    6.7258    1.4192 C   0  0  0  0  0  0  0  0  0  0  0  0
   -8.9611    6.7790    0.0866 C   0  0  0  0  0  0  0  0  0  0  0  0
   -8.3745    5.9622   -0.8452 C   0  0  0  0  0  0  0  0  0  0  0  0
   -7.4249    5.0521   -0.4240 C   0  0  0  0  0  0  0  0  0  0  0  0
   -4.1352   -0.8184   -1.5534 C   0  0  0  0  0  0  0  0  0  0  0  0
   -4.6018   -0.0520   -2.5005 O   0  0  0  0  0  0  0  0  0  0  0  0
   -3.2771   -1.8185   -1.9741 N   0  0  0  0  0  0  0  0  0  0  0  0
   -2.9556   -2.1077   -3.3781 C   0  0  0  0  0  0  0  0  0  0  0  0
   -3.2020   -3.6274   -3.3574 C   0  0  0  0  0  0  0  0  0  0  0  0
   -2.9129   -4.0598   -1.9240 C   0  0  0  0  0  0  0  0  0  0  0  0
   -2.5055   -2.7661   -1.2412 C   0  0  1  0  0  0  0  0  0  0  0  0
   -1.0535   -2.5109   -1.2660 C   0  0  0  0  0  0  0  0  0  0  0  0
   -0.6280   -1.4297   -1.7212 O   0  0  0  0  0  0  0  0  0  0  0  0
   -0.1422   -3.4704   -0.7794 N   0  0  0  0  0  0  0  0  0  0  0  0
    1.2795   -3.3573   -0.7157 C   0  0  1  0  0  0  0  0  0  0  0  0
    2.0103   -3.1811   -1.9857 C   0  0  0  0  0  0  0  0  0  0  0  0
    1.9078   -4.2506   -3.0095 C   0  0  0  0  0  0  0  0  0  0  0  0
    2.7573   -3.8553   -4.2407 C   0  0  0  0  0  0  0  0  0  0  0  0
    0.5501   -4.5390   -3.5430 C   0  0  0  0  0  0  0  0  0  0  0  0
    1.6570   -2.2109    0.1882 C   0  0  0  0  0  0  0  0  0  0  0  0
    0.7988   -1.4890    0.7313 O   0  0  0  0  0  0  0  0  0  0  0  0
    3.0304   -1.9083    0.4609 N   0  0  0  0  0  0  0  0  0  0  0  0
    3.4641   -0.8305    1.3140 C   0  0  1  0  0  0  0  0  0  0  0  0
    4.3805   -1.2156    2.4210 C   0  0  0  0  0  0  0  0  0  0  0  0
    3.8940   -2.1919    3.4207 C   0  0  0  0  0  0  0  0  0  0  0  0
    3.5168   -3.5437    2.9446 C   0  0  0  0  0  0  0  0  0  0  0  0
    2.7894   -1.5251    4.2283 C   0  0  0  0  0  0  0  0  0  0  0  0
    4.2013    0.1511    0.4530 C   0  0  0  0  0  0  0  0  0  0  0  0
    4.3235   -0.1039   -0.7618 O   0  0  0  0  0  0  0  0  0  0  0  0
    4.7459    1.3267    0.9806 N   0  0  0  0  0  0  0  0  0  0  0  0
    5.4712    2.3180    0.2465 C   0  0  1  0  0  0  0  0  0  0  0  0
    4.6406    3.5709    0.0156 C   0  0  0  0  0  0  0  0  0  0  0  0
    4.2199    4.1883    1.1640 O   0  0  0  0  0  0  0  0  0  0  0  0
    6.7456    2.6267    0.9232 C   0  0  0  0  0  0  0  0  0  0  0  0
    7.0503    2.0633    2.0075 O   0  0  0  0  0  0  0  0  0  0  0  0
    7.6343    3.5530    0.3667 N   0  0  0  0  0  0  0  0  0  0  0  0
    8.9012    3.9382    0.9389 C   0  0  1  0  0  0  0  0  0  0  0  0
   10.0949    3.4942    0.1199 C   0  0  0  0  0  0  0  0  0  0  0  0
   10.1084    4.0039   -1.1535 O   0  0  0  0  0  0  0  0  0  0  0  0
    8.9506    5.3852    1.2419 C   0  0  0  0  0  0  0  0  0  0  0  0
   10.0716    5.9415    1.7940 O   0  0  0  0  0  0  0  0  0  0  0  0
    7.9557    6.1060    0.9902 O   0  0  0  0  0  0  0  0  0  0  0  0
   -8.2971   -3.1444   -1.0584 H   0  0  0  0  0  0  0  0  0  0  0  0
   -8.0410   -2.8589    0.6843 H   0  0  0  0  0  0  0  0  0  0  0  0
   -6.8717   -3.8760   -0.2288 H   0  0  0  0  0  0  0  0  0  0  0  0
   -6.3911   -1.9251   -1.7132 H   0  0  0  0  0  0  0  0  0  0  0  0
   -7.3557   -0.8665   -0.6594 H   0  0  0  0  0  0  0  0  0  0  0  0
   -4.9491   -2.5496    0.1534 H   0  0  0  0  0  0  0  0  0  0  0  0
   -4.9804   -1.2825    2.2823 H   0  0  0  0  0  0  0  0  0  0  0  0
   -6.3296   -2.4224    2.1114 H   0  0  0  0  0  0  0  0  0  0  0  0
   -6.6806   -0.6967    1.8739 H   0  0  0  0  0  0  0  0  0  0  0  0
   -3.7876   -0.4003    0.4916 H   0  0  0  0  0  0  0  0  0  0  0  0
   -6.0982    0.7668   -0.9854 H   0  0  0  0  0  0  0  0  0  0  0  0
   -5.0912    4.5456    1.2909 H   0  0  0  0  0  0  0  0  0  0  0  0
   -6.1950    3.7393    2.4185 H   0  0  0  0  0  0  0  0  0  0  0  0
   -7.4298    5.7594    2.8789 H   0  0  0  0  0  0  0  0  0  0  0  0
   -9.0860    7.3527    2.1687 H   0  0  0  0  0  0  0  0  0  0  0  0
   -9.7105    7.5044   -0.2149 H   0  0  0  0  0  0  0  0  0  0  0  0
   -8.6743    6.0573   -1.8695 H   0  0  0  0  0  0  0  0  0  0  0  0
   -6.9640    4.4049   -1.1778 H   0  0  0  0  0  0  0  0  0  0  0  0
   -1.9504   -1.8601   -3.6754 H   0  0  0  0  0  0  0  0  0  0  0  0
   -3.6488   -1.5956   -4.0705 H   0  0  0  0  0  0  0  0  0  0  0  0
   -4.2777   -3.8194   -3.5675 H   0  0  0  0  0  0  0  0  0  0  0  0
   -2.5255   -4.0672   -4.0895 H   0  0  0  0  0  0  0  0  0  0  0  0
   -3.8631   -4.3941   -1.4298 H   0  0  0  0  0  0  0  0  0  0  0  0
   -2.1992   -4.8690   -1.8405 H   0  0  0  0  0  0  0  0  0  0  0  0
   -2.7578   -2.8252   -0.1410 H   0  0  0  0  0  0  0  0  0  0  0  0
   -0.5873   -4.3795   -0.4227 H   0  0  0  0  0  0  0  0  0  0  0  0
    1.6426   -4.2530   -0.1255 H   0  0  0  0  0  0  0  0  0  0  0  0
    1.6127   -2.2372   -2.4696 H   0  0  0  0  0  0  0  0  0  0  0  0
    3.1043   -3.0074   -1.7772 H   0  0  0  0  0  0  0  0  0  0  0  0
    2.3610   -5.2113   -2.6732 H   0  0  0  0  0  0  0  0  0  0  0  0
    3.1296   -4.7685   -4.7473 H   0  0  0  0  0  0  0  0  0  0  0  0
    2.1432   -3.3201   -4.9836 H   0  0  0  0  0  0  0  0  0  0  0  0
    3.6623   -3.2877   -3.9337 H   0  0  0  0  0  0  0  0  0  0  0  0
    0.0578   -3.6278   -3.9729 H   0  0  0  0  0  0  0  0  0  0  0  0
   -0.0879   -5.1252   -2.8818 H   0  0  0  0  0  0  0  0  0  0  0  0
    0.7025   -5.1954   -4.4534 H   0  0  0  0  0  0  0  0  0  0  0  0
    3.7869   -2.4836    0.0287 H   0  0  0  0  0  0  0  0  0  0  0  0
    2.5317   -0.3343    1.6720 H   0  0  0  0  0  0  0  0  0  0  0  0
    4.5892   -0.2586    2.9953 H   0  0  0  0  0  0  0  0  0  0  0  0
    5.3542   -1.5162    1.9537 H   0  0  0  0  0  0  0  0  0  0  0  0
    4.7493   -2.3354    4.1584 H   0  0  0  0  0  0  0  0  0  0  0  0
    3.8617   -4.2995    3.7112 H   0  0  0  0  0  0  0  0  0  0  0  0
    4.0341   -3.7795    1.9977 H   0  0  0  0  0  0  0  0  0  0  0  0
    2.4149   -3.6946    2.7859 H   0  0  0  0  0  0  0  0  0  0  0  0
    3.1972   -0.7179    4.8687 H   0  0  0  0  0  0  0  0  0  0  0  0
    2.0056   -1.1850    3.5477 H   0  0  0  0  0  0  0  0  0  0  0  0
    2.3551   -2.2885    4.9314 H   0  0  0  0  0  0  0  0  0  0  0  0
    4.6160    1.5127    2.0198 H   0  0  0  0  0  0  0  0  0  0  0  0
    5.6346    1.9050   -0.7914 H   0  0  0  0  0  0  0  0  0  0  0  0
    5.3421    4.2902   -0.4983 H   0  0  0  0  0  0  0  0  0  0  0  0
    3.8401    3.3450   -0.7192 H   0  0  0  0  0  0  0  0  0  0  0  0
    3.5637    4.8732    0.9303 H   0  0  0  0  0  0  0  0  0  0  0  0
    7.3840    4.0244   -0.5439 H   0  0  0  0  0  0  0  0  0  0  0  0
    8.9984    3.3935    1.9156 H   0  0  0  0  0  0  0  0  0  0  0  0
   10.1667    2.3806    0.1472 H   0  0  0  0  0  0  0  0  0  0  0  0
   10.9950    3.8607    0.6551 H   0  0  0  0  0  0  0  0  0  0  0  0
   10.9930    4.2480   -1.5069 H   0  0  0  0  0  0  0  0  0  0  0  0
   10.0713    6.5968    2.5516 H   0  0  0  0  0  0  0  0  0  0  0  0
  1  2  1  0
  2  3  1  0
  3  4  1  0
  3  5  1  0
  5  6  1  0
  6  7  1  0
  7  8  2  0
  7  9  1  0
  9 10  1  0
 10 11  1  0
 11 12  2  0
 12 13  1  0
 13 14  2  0
 14 15  1  0
 15 16  2  0
  5 17  1  0
 17 18  2  0
 17 19  1  0
 19 20  1  0
 20 21  1  0
 21 22  1  0
 22 23  1  0
 23 24  1  0
 24 25  2  0
 24 26  1  0
 26 27  1  0
 27 28  1  0
 28 29  1  0
 29 30  1  0
 29 31  1  0
 27 32  1  0
 32 33  2  0
 32 34  1  0
 34 35  1  0
 35 36  1  0
 36 37  1  0
 37 38  1  0
 37 39  1  0
 35 40  1  0
 40 41  2  0
 40 42  1  0
 42 43  1  0
 43 44  1  0
 44 45  1  0
 43 46  1  0
 46 47  2  0
 46 48  1  0
 48 49  1  0
 49 50  1  0
 50 51  1  0
 49 52  1  0
 52 53  1  0
 52 54  2  0
 16 11  1  0
 23 19  1  0
  1 55  1  0
  1 56  1  0
  1 57  1  0
  2 58  1  0
  2 59  1  0
  3 60  1  1
  4 61  1  0
  4 62  1  0
  4 63  1  0
  5 64  1  1
  6 65  1  0
 10 66  1  0
 10 67  1  0
 12 68  1  0
 13 69  1  0
 14 70  1  0
 15 71  1  0
 16 72  1  0
 20 73  1  0
 20 74  1  0
 21 75  1  0
 21 76  1  0
 22 77  1  0
 22 78  1  0
 23 79  1  1
 26 80  1  0
 27 81  1  1
 28 82  1  0
 28 83  1  0
 29 84  1  0
 30 85  1  0
 30 86  1  0
 30 87  1  0
 31 88  1  0
 31 89  1  0
 31 90  1  0
 34 91  1  0
 35 92  1  1
 36 93  1  0
 36 94  1  0
 37 95  1  0
 38 96  1  0
 38 97  1  0
 38 98  1  0
 39 99  1  0
 39100  1  0
 39101  1  0
 42102  1  0
 43103  1  6
 44104  1  0
 44105  1  0
 45106  1  0
 48107  1  0
 49108  1  1
 50109  1  0
 50110  1  0
 51111  1  0
 53112  1  0
M  END
$$$$
[H]N=C(c1c([H])c([H])c([H])c(C([H])([H])[C@@]([H])(C(=O)N2C([H])([H])C([H])([H])C([H])(C([H])([H])[H])C([H])([H])C2([H])[H])N([H])S(=O)(=O)c2c([H])c([H])c3c([H])c([H])c([H])c([H])c3c2[H])c1[H])N([H])[H]
     RDKit          3D

 64 67  0  0  0  0  0  0  0  0999 V2000
   -3.0114   -2.7704    1.0362 C   0  0  0  0  0  0  0  0  0  0  0  0
   -1.7065   -2.8195    0.2698 C   0  0  0  0  0  0  0  0  0  0  0  0
   -0.6930   -1.8755    0.8764 C   0  0  0  0  0  0  0  0  0  0  0  0
   -0.8465   -0.5149    0.2473 C   0  0  0  0  0  0  0  0  0  0  0  0
   -0.4285   -0.5962   -1.1295 N   0  0  0  0  0  0  0  0  0  0  0  0
   -0.8218   -1.8014   -1.8397 C   0  0  0  0  0  0  0  0  0  0  0  0
   -1.9949   -2.4855   -1.1720 C   0  0  0  0  0  0  0  0  0  0  0  0
    0.3150    0.3866   -1.8115 C   0  0  0  0  0  0  0  0  0  0  0  0
    0.6330    0.1675   -3.0293 O   0  0  0  0  0  0  0  0  0  0  0  0
    0.7692    1.6789   -1.2172 C   0  0  2  0  0  0  0  0  0  0  0  0
   -0.1195    2.8355   -1.6051 C   0  0  0  0  0  0  0  0  0  0  0  0
   -1.5282    2.7125   -1.2010 C   0  0  0  0  0  0  0  0  0  0  0  0
   -2.4267    2.1137   -2.0921 C   0  0  0  0  0  0  0  0  0  0  0  0
   -3.7616    1.9825   -1.7641 C   0  0  0  0  0  0  0  0  0  0  0  0
   -4.2506    2.4308   -0.5628 C   0  0  0  0  0  0  0  0  0  0  0  0
   -3.3735    3.0291    0.3376 C   0  0  0  0  0  0  0  0  0  0  0  0
   -2.0429    3.1550   -0.0002 C   0  0  0  0  0  0  0  0  0  0  0  0
   -3.8859    3.5070    1.6117 C   0  0  0  0  0  0  0  0  0  0  0  0
   -5.2561    3.3740    1.9442 N   0  0  0  0  0  0  0  0  0  0  0  0
   -3.0997    4.0620    2.4630 N   0  0  0  0  0  0  0  0  0  0  0  0
    2.0520    1.9565   -1.8551 N   0  0  0  0  0  0  0  0  0  0  0  0
    3.3226    2.1348   -0.7100 S   0  0  0  0  0  0  0  0  0  0  0  0
    4.6434    2.3737   -1.3842 O   0  0  0  0  0  0  0  0  0  0  0  0
    3.0171    3.1893    0.3074 O   0  0  0  0  0  0  0  0  0  0  0  0
    3.4660    0.6161    0.1528 C   0  0  0  0  0  0  0  0  0  0  0  0
    2.8199    0.3772    1.3402 C   0  0  0  0  0  0  0  0  0  0  0  0
    2.9438   -0.8417    2.0093 C   0  0  0  0  0  0  0  0  0  0  0  0
    3.7250   -1.8570    1.4988 C   0  0  0  0  0  0  0  0  0  0  0  0
    3.8514   -3.0652    2.1561 C   0  0  0  0  0  0  0  0  0  0  0  0
    4.6362   -4.0676    1.6296 C   0  0  0  0  0  0  0  0  0  0  0  0
    5.2984   -3.8345    0.4209 C   0  0  0  0  0  0  0  0  0  0  0  0
    5.1587   -2.6226   -0.2180 C   0  0  0  0  0  0  0  0  0  0  0  0
    4.3750   -1.6095    0.2992 C   0  0  0  0  0  0  0  0  0  0  0  0
    4.2554   -0.4067   -0.3652 C   0  0  0  0  0  0  0  0  0  0  0  0
   -3.7545   -2.0988    0.5150 H   0  0  0  0  0  0  0  0  0  0  0  0
   -2.8755   -2.3097    2.0380 H   0  0  0  0  0  0  0  0  0  0  0  0
   -3.4965   -3.7428    1.1385 H   0  0  0  0  0  0  0  0  0  0  0  0
   -1.3277   -3.8581    0.3119 H   0  0  0  0  0  0  0  0  0  0  0  0
    0.3220   -2.2958    0.7349 H   0  0  0  0  0  0  0  0  0  0  0  0
   -0.8871   -1.8503    1.9705 H   0  0  0  0  0  0  0  0  0  0  0  0
   -1.9391   -0.2765    0.2375 H   0  0  0  0  0  0  0  0  0  0  0  0
   -0.3108    0.2549    0.8202 H   0  0  0  0  0  0  0  0  0  0  0  0
   -1.1894   -1.4621   -2.8380 H   0  0  0  0  0  0  0  0  0  0  0  0
    0.0251   -2.4913   -1.9537 H   0  0  0  0  0  0  0  0  0  0  0  0
   -2.1835   -3.4365   -1.7079 H   0  0  0  0  0  0  0  0  0  0  0  0
   -2.9052   -1.8835   -1.2121 H   0  0  0  0  0  0  0  0  0  0  0  0
    0.8575    1.6420   -0.1196 H   0  0  0  0  0  0  0  0  0  0  0  0
    0.3212    3.7407   -1.1401 H   0  0  0  0  0  0  0  0  0  0  0  0
    0.0025    2.9748   -2.7033 H   0  0  0  0  0  0  0  0  0  0  0  0
   -2.0588    1.7533   -3.0454 H   0  0  0  0  0  0  0  0  0  0  0  0
   -4.4708    1.5158   -2.4545 H   0  0  0  0  0  0  0  0  0  0  0  0
   -5.2937    2.3358   -0.2901 H   0  0  0  0  0  0  0  0  0  0  0  0
   -1.3424    3.6160    0.6814 H   0  0  0  0  0  0  0  0  0  0  0  0
   -5.8232    4.1980    2.2737 H   0  0  0  0  0  0  0  0  0  0  0  0
   -5.7262    2.4612    1.8689 H   0  0  0  0  0  0  0  0  0  0  0  0
   -3.3582    4.4296    3.3814 H   0  0  0  0  0  0  0  0  0  0  0  0
    2.2823    1.3324   -2.6295 H   0  0  0  0  0  0  0  0  0  0  0  0
    2.1976    1.1397    1.7863 H   0  0  0  0  0  0  0  0  0  0  0  0
    2.4364   -1.0383    2.9483 H   0  0  0  0  0  0  0  0  0  0  0  0
    3.3214   -3.2161    3.0982 H   0  0  0  0  0  0  0  0  0  0  0  0
    4.7671   -5.0242    2.1010 H   0  0  0  0  0  0  0  0  0  0  0  0
    5.9195   -4.6288    0.0053 H   0  0  0  0  0  0  0  0  0  0  0  0
    5.6735   -2.4218   -1.1711 H   0  0  0  0  0  0  0  0  0  0  0  0
    4.7817   -0.2740   -1.2890 H   0  0  0  0  0  0  0  0  0  0  0  0
  1  2  1  0
  2  3  1  0
  3  4  1  0
  4  5  1  0
  5  6  1  0
  6  7  1  0
  5  8  1  0
  8  9  2  0
  8 10  1  0
 10 11  1  0
 11 12  1  0
 12 13  2  0
 13 14  1  0
 14 15  2  0
 15 16  1  0
 16 17  2  0
 16 18  1  0
 18 19  1  0
 18 20  2  3
 10 21  1  0
 21 22  1  0
 22 23  2  0
 22 24  2  0
 22 25  1  0
 25 26  2  0
 26 27  1  0
 27 28  2  0
 28 29  1  0
 29 30  2  0
 30 31  1  0
 31 32  2  0
 32 33  1  0
 33 34  2  0
  7  2  1  0
 17 12  1  0
 34 25  1  0
 33 28  1  0
  1 35  1  0
  1 36  1  0
  1 37  1  0
  2 38  1  0
  3 39  1  0
  3 40  1  0
  4 41  1  0
  4 42  1  0
  6 43  1  0
  6 44  1  0
  7 45  1  0
  7 46  1  0
 10 47  1  1
 11 48  1  0
 11 49  1  0
 13 50  1  0
 14 51  1  0
 15 52  1  0
 17 53  1  0
 19 54  1  0
 19 55  1  0
 20 56  1  0
 21 57  1  0
 26 58  1  0
 27 59  1  0
 29 60  1  0
 30 61  1  0
 31 62  1  0
 32 63  1  0
 34 64  1  0
M  END
$$$$
[H]OC(=O)[C@@]([H])(N([H])C(=O)[C@@]([H])(N([H])C(=O)[C@@]([H])(N([H])C(=O)[C@@]([H])(N([H])C(=O)[C@@]([H])(N([H])C(=O)[C@@]([H])(N([H])C(=O)[C@@]([H])(N([H])C(=O)C([H])([H])[H])C([H])(C([H])([H])[H])C([H])([H])[H])C([H])([H])C([H])([H])C(=O)N([H])[H])C([H])([H])C([H])(C([H])([H])[H])C([H])([H])[H])C([H])([H])O[H])C([H])([H])O[H])C([H])([H])O[H])C([H])([H])O[H]
     RDKit          3D

104103  0  0  0  0  0  0  0  0999 V2000
   -3.9528   -3.3814    3.3989 C   0  0  0  0  0  0  0  0  0  0  0  0
   -2.5172   -3.0489    3.6353 C   0  0  0  0  0  0  0  0  0  0  0  0
   -2.4528   -1.8181    4.5357 C   0  0  0  0  0  0  0  0  0  0  0  0
   -1.6419   -2.9579    2.4511 C   0  0  0  0  0  0  0  0  0  0  0  0
   -1.9690   -1.9556    1.4036 C   0  0  2  0  0  0  0  0  0  0  0  0
   -3.2668   -2.1556    0.8060 N   0  0  0  0  0  0  0  0  0  0  0  0
   -4.1024   -1.0844    0.4423 C   0  0  0  0  0  0  0  0  0  0  0  0
   -3.7136    0.0829    0.6130 O   0  0  0  0  0  0  0  0  0  0  0  0
   -5.4928   -1.2698   -0.1595 C   0  0  2  0  0  0  0  0  0  0  0  0
   -5.3289   -2.1277   -1.3441 C   0  0  0  0  0  0  0  0  0  0  0  0
   -6.4682   -2.5899   -2.1092 C   0  0  0  0  0  0  0  0  0  0  0  0
   -7.3347   -1.6547   -2.8074 C   0  0  0  0  0  0  0  0  0  0  0  0
   -8.5050   -2.3366   -3.4096 N   0  0  0  0  0  0  0  0  0  0  0  0
   -7.2319   -0.4472   -2.9585 O   0  0  0  0  0  0  0  0  0  0  0  0
   -6.0108    0.0818   -0.3504 N   0  0  0  0  0  0  0  0  0  0  0  0
   -6.8967    0.6858    0.5434 C   0  0  0  0  0  0  0  0  0  0  0  0
   -7.2149   -0.0492    1.5632 O   0  0  0  0  0  0  0  0  0  0  0  0
   -7.4997    2.0038    0.4992 C   0  0  1  0  0  0  0  0  0  0  0  0
   -8.0090    2.4281    1.8151 N   0  0  0  0  0  0  0  0  0  0  0  0
   -9.3816    2.5310    2.1403 C   0  0  0  0  0  0  0  0  0  0  0  0
   -9.8762    2.9647    3.4566 C   0  0  0  0  0  0  0  0  0  0  0  0
  -10.2600    2.2378    1.2558 O   0  0  0  0  0  0  0  0  0  0  0  0
   -6.7950    3.1556   -0.0873 C   0  0  0  0  0  0  0  0  0  0  0  0
   -6.4542    3.0743   -1.5504 C   0  0  0  0  0  0  0  0  0  0  0  0
   -5.5330    3.5233    0.6775 C   0  0  0  0  0  0  0  0  0  0  0  0
   -0.8920   -2.1394    0.3411 C   0  0  0  0  0  0  0  0  0  0  0  0
   -1.0423   -3.0497   -0.4907 O   0  0  0  0  0  0  0  0  0  0  0  0
    0.2163   -1.2506    0.3771 N   0  0  0  0  0  0  0  0  0  0  0  0
    1.3387   -1.2946   -0.5415 C   0  0  1  0  0  0  0  0  0  0  0  0
    0.9156   -0.6405   -1.8781 C   0  0  0  0  0  0  0  0  0  0  0  0
    0.5447    0.6753   -1.7219 O   0  0  0  0  0  0  0  0  0  0  0  0
    2.5344   -0.6512   -0.0174 C   0  0  0  0  0  0  0  0  0  0  0  0
    2.3769    0.3534    0.7715 O   0  0  0  0  0  0  0  0  0  0  0  0
    3.8335   -1.0842   -0.3436 N   0  0  0  0  0  0  0  0  0  0  0  0
    5.0144   -0.4138    0.1723 C   0  0  1  0  0  0  0  0  0  0  0  0
    5.6130   -1.2292    1.3262 C   0  0  0  0  0  0  0  0  0  0  0  0
    6.7286   -0.5166    1.7654 O   0  0  0  0  0  0  0  0  0  0  0  0
    6.1024   -0.2603   -0.8042 C   0  0  0  0  0  0  0  0  0  0  0  0
    6.1719   -1.1942   -1.6912 O   0  0  0  0  0  0  0  0  0  0  0  0
    7.0338    0.7779   -0.8556 N   0  0  0  0  0  0  0  0  0  0  0  0
    8.0583    0.8146   -1.8554 C   0  0  1  0  0  0  0  0  0  0  0  0
    7.7949    1.8933   -2.9072 C   0  0  0  0  0  0  0  0  0  0  0  0
    7.7581    3.1219   -2.2846 O   0  0  0  0  0  0  0  0  0  0  0  0
    9.3434    1.1380   -1.2138 C   0  0  0  0  0  0  0  0  0  0  0  0
    9.4213    1.3819    0.0043 O   0  0  0  0  0  0  0  0  0  0  0  0
   10.5216    1.1734   -2.0018 N   0  0  0  0  0  0  0  0  0  0  0  0
   11.7987    1.5016   -1.4015 C   0  0  1  0  0  0  0  0  0  0  0  0
   12.5184    0.1559   -1.1719 C   0  0  0  0  0  0  0  0  0  0  0  0
   12.6569   -0.4367   -2.4271 O   0  0  0  0  0  0  0  0  0  0  0  0
   12.6368    2.3686   -2.2456 C   0  0  0  0  0  0  0  0  0  0  0  0
   13.8757    2.7680   -1.8204 O   0  0  0  0  0  0  0  0  0  0  0  0
   12.2050    2.7409   -3.3621 O   0  0  0  0  0  0  0  0  0  0  0  0
   -4.1146   -4.3003    2.7970 H   0  0  0  0  0  0  0  0  0  0  0  0
   -4.3614   -3.6672    4.4223 H   0  0  0  0  0  0  0  0  0  0  0  0
   -4.5899   -2.5315    3.0996 H   0  0  0  0  0  0  0  0  0  0  0  0
   -2.1245   -3.8943    4.2882 H   0  0  0  0  0  0  0  0  0  0  0  0
   -1.5053   -1.2846    4.3020 H   0  0  0  0  0  0  0  0  0  0  0  0
   -2.5389   -2.1005    5.6021 H   0  0  0  0  0  0  0  0  0  0  0  0
   -3.2770   -1.1180    4.2070 H   0  0  0  0  0  0  0  0  0  0  0  0
   -0.5864   -2.8246    2.8351 H   0  0  0  0  0  0  0  0  0  0  0  0
   -1.5713   -3.9629    1.9346 H   0  0  0  0  0  0  0  0  0  0  0  0
   -1.8991   -0.8967    1.6916 H   0  0  0  0  0  0  0  0  0  0  0  0
   -3.5869   -3.1284    0.6463 H   0  0  0  0  0  0  0  0  0  0  0  0
   -6.0574   -1.7303    0.6631 H   0  0  0  0  0  0  0  0  0  0  0  0
   -4.5007   -1.6950   -2.0158 H   0  0  0  0  0  0  0  0  0  0  0  0
   -4.7781   -3.1032   -1.0008 H   0  0  0  0  0  0  0  0  0  0  0  0
   -6.1035   -3.3906   -2.8531 H   0  0  0  0  0  0  0  0  0  0  0  0
   -7.1127   -3.2152   -1.3665 H   0  0  0  0  0  0  0  0  0  0  0  0
   -8.3184   -2.8167   -4.2880 H   0  0  0  0  0  0  0  0  0  0  0  0
   -9.3872   -2.2825   -2.9224 H   0  0  0  0  0  0  0  0  0  0  0  0
   -5.6574    0.6282   -1.1602 H   0  0  0  0  0  0  0  0  0  0  0  0
   -8.5022    1.8989   -0.0977 H   0  0  0  0  0  0  0  0  0  0  0  0
   -7.3254    2.6777    2.5861 H   0  0  0  0  0  0  0  0  0  0  0  0
   -9.1616    3.6294    3.9900 H   0  0  0  0  0  0  0  0  0  0  0  0
  -10.1843    2.1374    4.1203 H   0  0  0  0  0  0  0  0  0  0  0  0
  -10.8072    3.6018    3.3338 H   0  0  0  0  0  0  0  0  0  0  0  0
   -7.4907    4.0565   -0.0137 H   0  0  0  0  0  0  0  0  0  0  0  0
   -5.3872    2.8424   -1.6631 H   0  0  0  0  0  0  0  0  0  0  0  0
   -6.5902    4.0833   -2.0143 H   0  0  0  0  0  0  0  0  0  0  0  0
   -7.0708    2.3135   -2.0723 H   0  0  0  0  0  0  0  0  0  0  0  0
   -5.6723    3.4951    1.7685 H   0  0  0  0  0  0  0  0  0  0  0  0
   -4.6839    2.8866    0.4133 H   0  0  0  0  0  0  0  0  0  0  0  0
   -5.3078    4.5941    0.4431 H   0  0  0  0  0  0  0  0  0  0  0  0
    0.1912   -0.5199    1.1541 H   0  0  0  0  0  0  0  0  0  0  0  0
    1.5242   -2.3364   -0.8233 H   0  0  0  0  0  0  0  0  0  0  0  0
    0.0320   -1.2382   -2.2168 H   0  0  0  0  0  0  0  0  0  0  0  0
    1.6849   -0.7758   -2.6381 H   0  0  0  0  0  0  0  0  0  0  0  0
    0.6527    1.1841   -2.5707 H   0  0  0  0  0  0  0  0  0  0  0  0
    3.9656   -1.9010   -0.9593 H   0  0  0  0  0  0  0  0  0  0  0  0
    4.7427    0.5663    0.5894 H   0  0  0  0  0  0  0  0  0  0  0  0
    5.9823   -2.2039    0.9468 H   0  0  0  0  0  0  0  0  0  0  0  0
    4.9040   -1.3439    2.1470 H   0  0  0  0  0  0  0  0  0  0  0  0
    6.3707    0.3995    1.9924 H   0  0  0  0  0  0  0  0  0  0  0  0
    6.9773    1.5387   -0.1452 H   0  0  0  0  0  0  0  0  0  0  0  0
    8.0756   -0.1777   -2.3678 H   0  0  0  0  0  0  0  0  0  0  0  0
    8.6798    1.8563   -3.5869 H   0  0  0  0  0  0  0  0  0  0  0  0
    6.9170    1.6680   -3.5218 H   0  0  0  0  0  0  0  0  0  0  0  0
    7.3794    3.8521   -2.8028 H   0  0  0  0  0  0  0  0  0  0  0  0
   10.4595    0.9577   -3.0269 H   0  0  0  0  0  0  0  0  0  0  0  0
   11.5704    1.9547   -0.3959 H   0  0  0  0  0  0  0  0  0  0  0  0
   11.7852   -0.4741   -0.5864 H   0  0  0  0  0  0  0  0  0  0  0  0
   13.4690    0.3079   -0.6718 H   0  0  0  0  0  0  0  0  0  0  0  0
   13.6325   -0.5350   -2.6361 H   0  0  0  0  0  0  0  0  0  0  0  0
   14.0884    3.7224   -1.5367 H   0  0  0  0  0  0  0  0  0  0  0  0
  1  2  1  0
  2  3  1  0
  2  4  1  0
  4  5  1  0
  5  6  1  0
  6  7  1  0
  7  8  2  0
  7  9  1  0
  9 10  1  0
 10 11  1  0
 11 12  1  0
 12 13  1  0
 12 14  2  0
  9 15  1  0
 15 16  1  0
 16 17  2  0
 16 18  1  0
 18 19  1  0
 19 20  1  0
 20 21  1  0
 20 22  2  0
 18 23  1  0
 23 24  1  0
 23 25  1  0
  5 26  1  0
 26 27  2  0
 26 28  1  0
 28 29  1  0
 29 30  1  0
 30 31  1  0
 29 32  1  0
 32 33  2  0
 32 34  1  0
 34 35  1  0
 35 36  1  0
 36 37  1  0
 35 38  1  0
 38 39  2  0
 38 40  1  0
 40 41  1  0
 41 42  1  0
 42 43  1  0
 41 44  1  0
 44 45  2  0
 44 46  1  0
 46 47  1  0
 47 48  1  0
 48 49  1  0
 47 50  1  0
 50 51  1  0
 50 52  2  0
  1 53  1  0
  1 54  1  0
  1 55  1  0
  2 56  1  0
  3 57  1  0
  3 58  1  0
  3 59  1  0
  4 60  1  0
  4 61  1  0
  5 62  1  1
  6 63  1  0
  9 64  1  1
 10 65  1  0
 10 66  1  0
 11 67  1  0
 11 68  1  0
 13 69  1  0
 13 70  1  0
 15 71  1  0
 18 72  1  6
 19 73  1  0
 21 74  1  0
 21 75  1  0
 21 76  1  0
 23 77  1  0
 24 78  1  0
 24 79  1  0
 24 80  1  0
 25 81  1  0
 25 82  1  0
 25 83  1  0
 28 84  1  0
 29 85  1  6
 30 86  1  0
 30 87  1  0
 31 88  1  0
 34 89  1  0
 35 90  1  1
 36 91  1  0
 36 92  1  0
 37 93  1  0
 40 94  1  0
 41 95  1  6
 42 96  1  0
 42 97  1  0
 43 98  1  0
 46 99  1  0
 47100  1  1
 48101  1  0
 48102  1  0
 49103  1  0
 51104  1  0
M  END
$$$$
[H]O[C@]1([H])C([H])([H])C([H])([H])[C@]2([H])[C@]1(C([H])([H])[H])C([H])([H])C([H])([H])[C@]1([H])[C@]3(C([H])([H])[H])C(=C([H])C(=O)C([H])([H])C3([H])[H])C([H])([H])C([H])([H])[C@@]21[H]
     RDKit          3D

 49 52  0  0  0  0  0  0  0  0999 V2000
    2.3098    1.1665    1.1892 C   0  0  0  0  0  0  0  0  0  0  0  0
    2.3243    0.5419   -0.1819 C   0  0  2  0  0  0  0  0  0  0  0  0
    1.6014    1.3628   -1.1999 C   0  0  0  0  0  0  0  0  0  0  0  0
    0.1551    1.4659   -0.7958 C   0  0  0  0  0  0  0  0  0  0  0  0
   -0.4997    0.1591   -0.5151 C   0  0  1  0  0  0  0  0  0  0  0  0
    0.3112   -0.7403    0.3974 C   0  0  1  0  0  0  0  0  0  0  0  0
   -0.3517   -2.0998    0.4456 C   0  0  0  0  0  0  0  0  0  0  0  0
   -1.7931   -2.0250    0.8334 C   0  0  0  0  0  0  0  0  0  0  0  0
   -2.5364   -0.9423    0.1584 C   0  0  0  0  0  0  0  0  0  0  0  0
   -3.7648   -1.1937   -0.2733 C   0  0  0  0  0  0  0  0  0  0  0  0
   -4.5558   -0.1779   -0.9459 C   0  0  0  0  0  0  0  0  0  0  0  0
   -5.5635   -0.5108   -1.6098 O   0  0  0  0  0  0  0  0  0  0  0  0
   -4.1079    1.2429   -0.8018 C   0  0  0  0  0  0  0  0  0  0  0  0
   -2.6148    1.2500   -1.0177 C   0  0  0  0  0  0  0  0  0  0  0  0
   -1.8888    0.3932   -0.0173 C   0  0  2  0  0  0  0  0  0  0  0  0
   -1.9056    1.0675    1.3341 C   0  0  0  0  0  0  0  0  0  0  0  0
    1.6554   -0.8197   -0.1970 C   0  0  2  0  0  0  0  0  0  0  0  0
    2.6538   -1.6901    0.4377 C   0  0  0  0  0  0  0  0  0  0  0  0
    3.8967   -1.2976   -0.3651 C   0  0  0  0  0  0  0  0  0  0  0  0
    3.7334    0.1942   -0.5484 C   0  0  1  0  0  0  0  0  0  0  0  0
    4.0709    0.6044   -1.8353 O   0  0  0  0  0  0  0  0  0  0  0  0
    3.3493    1.5287    1.4328 H   0  0  0  0  0  0  0  0  0  0  0  0
    2.0531    0.4567    1.9903 H   0  0  0  0  0  0  0  0  0  0  0  0
    1.6815    2.0809    1.2037 H   0  0  0  0  0  0  0  0  0  0  0  0
    2.0085    2.3941   -1.2492 H   0  0  0  0  0  0  0  0  0  0  0  0
    1.6689    0.8261   -2.1725 H   0  0  0  0  0  0  0  0  0  0  0  0
   -0.3814    1.9135   -1.6840 H   0  0  0  0  0  0  0  0  0  0  0  0
    0.0308    2.2113    0.0131 H   0  0  0  0  0  0  0  0  0  0  0  0
   -0.5848   -0.3912   -1.4862 H   0  0  0  0  0  0  0  0  0  0  0  0
    0.2568   -0.3168    1.4064 H   0  0  0  0  0  0  0  0  0  0  0  0
   -0.1605   -2.6634   -0.4712 H   0  0  0  0  0  0  0  0  0  0  0  0
    0.1759   -2.6628    1.2688 H   0  0  0  0  0  0  0  0  0  0  0  0
   -2.2546   -3.0206    0.5832 H   0  0  0  0  0  0  0  0  0  0  0  0
   -1.9139   -1.9460    1.9501 H   0  0  0  0  0  0  0  0  0  0  0  0
   -4.1826   -2.1748   -0.1200 H   0  0  0  0  0  0  0  0  0  0  0  0
   -4.3888    1.5766    0.2155 H   0  0  0  0  0  0  0  0  0  0  0  0
   -4.5705    1.8946   -1.5576 H   0  0  0  0  0  0  0  0  0  0  0  0
   -2.4384    0.8809   -2.0492 H   0  0  0  0  0  0  0  0  0  0  0  0
   -2.2702    2.2900   -0.9010 H   0  0  0  0  0  0  0  0  0  0  0  0
   -2.5967    1.9380    1.3158 H   0  0  0  0  0  0  0  0  0  0  0  0
   -2.2745    0.3972    2.1436 H   0  0  0  0  0  0  0  0  0  0  0  0
   -0.9191    1.4304    1.6500 H   0  0  0  0  0  0  0  0  0  0  0  0
    1.5565   -1.1000   -1.2712 H   0  0  0  0  0  0  0  0  0  0  0  0
    2.4450   -2.7733    0.3313 H   0  0  0  0  0  0  0  0  0  0  0  0
    2.8555   -1.4109    1.4949 H   0  0  0  0  0  0  0  0  0  0  0  0
    4.8181   -1.5879    0.1300 H   0  0  0  0  0  0  0  0  0  0  0  0
    3.7696   -1.7690   -1.3750 H   0  0  0  0  0  0  0  0  0  0  0  0
    4.4514    0.6775    0.1739 H   0  0  0  0  0  0  0  0  0  0  0  0
    4.6853    1.3688   -1.7993 H   0  0  0  0  0  0  0  0  0  0  0  0
  2  1  1  1
  2  3  1  0
  3  4  1  0
  4  5  1  0
  5  6  1  0
  6  7  1  0
  7  8  1  0
  8  9  1  0
  9 10  2  0
 10 11  1  0
 11 12  2  0
 11 13  1  0
 13 14  1  0
 14 15  1  0
 15 16  1  1
  6 17  1  0
 17 18  1  0
 18 19  1  0
 19 20  1  0
 20 21  1  0
 17  2  1  0
 20  2  1  0
 15  5  1  0
 15  9  1  0
  1 22  1  0
  1 23  1  0
  1 24  1  0
  3 25  1  0
  3 26  1  0
  4 27  1  0
  4 28  1  0
  5 29  1  6
  6 30  1  1
  7 31  1  0
  7 32  1  0
  8 33  1  0
  8 34  1  0
 10 35  1  0
 13 36  1  0
 13 37  1  0
 14 38  1  0
 14 39  1  0
 16 40  1  0
 16 41  1  0
 16 42  1  0
 17 43  1  6
 18 44  1  0
 18 45  1  0
 19 46  1  0
 19 47  1  0
 20 48  1  1
 21 49  1  0
M  END
$$$$
[H]OC(=O)C([H])(Oc1c([H])c([H])c(-c2c([H])c([H])c(-c3c(C([H])([H])c4c([H])c([H])c([H])c([H])c4[H])sc4c([H])c([H])c([H])c([H])c34)c([H])c2[H])c([H])c1Br)C([H])([H])c1c([H])c([H])c([H])c([H])c1[H]
     RDKit          3D

 68 73  0  0  0  0  0  0  0  0999 V2000
    6.1749    2.4959   -1.6177 O   0  0  0  0  0  0  0  0  0  0  0  0
    6.6646    1.4793   -0.8136 C   0  0  0  0  0  0  0  0  0  0  0  0
    7.8282    1.5554   -0.3948 O   0  0  0  0  0  0  0  0  0  0  0  0
    5.8351    0.2827   -0.4275 C   0  0  0  0  0  0  0  0  0  0  0  0
    6.4338   -1.0170   -0.9606 C   0  0  0  0  0  0  0  0  0  0  0  0
    7.7873   -1.3259   -0.4919 C   0  0  0  0  0  0  0  0  0  0  0  0
    8.0411   -1.9470    0.7187 C   0  0  0  0  0  0  0  0  0  0  0  0
    9.3051   -2.2738    1.1357 C   0  0  0  0  0  0  0  0  0  0  0  0
   10.3809   -1.9721    0.3152 C   0  0  0  0  0  0  0  0  0  0  0  0
   10.1756   -1.3553   -0.8961 C   0  0  0  0  0  0  0  0  0  0  0  0
    8.9014   -1.0431   -1.2821 C   0  0  0  0  0  0  0  0  0  0  0  0
    4.5735    0.4808   -0.8679 O   0  0  0  0  0  0  0  0  0  0  0  0
    3.3015    0.5246   -0.4990 C   0  0  0  0  0  0  0  0  0  0  0  0
    2.3860    0.8429   -1.5352 C   0  0  0  0  0  0  0  0  0  0  0  0
    1.0345    0.9277   -1.3197 C   0  0  0  0  0  0  0  0  0  0  0  0
    0.5175    0.7023   -0.0688 C   0  0  0  0  0  0  0  0  0  0  0  0
    1.3780    0.3976    0.9294 C   0  0  0  0  0  0  0  0  0  0  0  0
    2.7621    0.3017    0.7502 C   0  0  0  0  0  0  0  0  0  0  0  0
    3.8524   -0.1512    2.2525 Br  0  0  0  0  0  0  0  0  0  0  0  0
   -0.9252    0.8064    0.1058 C   0  0  0  0  0  0  0  0  0  0  0  0
   -1.8376    0.5050   -0.8520 C   0  0  0  0  0  0  0  0  0  0  0  0
   -3.1979    0.6149   -0.6303 C   0  0  0  0  0  0  0  0  0  0  0  0
   -3.6585    1.0399    0.5891 C   0  0  0  0  0  0  0  0  0  0  0  0
   -2.7394    1.3484    1.5668 C   0  0  0  0  0  0  0  0  0  0  0  0
   -1.3804    1.2426    1.3568 C   0  0  0  0  0  0  0  0  0  0  0  0
   -5.1279    1.1669    0.8700 C   0  0  0  0  0  0  0  0  0  0  0  0
   -5.7639    0.2278    1.6236 C   0  0  0  0  0  0  0  0  0  0  0  0
   -5.3380   -1.0201    2.3010 C   0  0  0  0  0  0  0  0  0  0  0  0
   -5.2723   -2.1241    1.3439 C   0  0  0  0  0  0  0  0  0  0  0  0
   -4.1547   -2.7190    0.8240 C   0  0  0  0  0  0  0  0  0  0  0  0
   -4.2018   -3.7676   -0.0860 C   0  0  0  0  0  0  0  0  0  0  0  0
   -5.4232   -4.2539   -0.5042 C   0  0  0  0  0  0  0  0  0  0  0  0
   -6.5753   -3.6801   -0.0025 C   0  0  0  0  0  0  0  0  0  0  0  0
   -6.4954   -2.6401    0.8998 C   0  0  0  0  0  0  0  0  0  0  0  0
   -7.3918    0.8198    1.6566 S   0  0  0  0  0  0  0  0  0  0  0  0
   -7.1937    2.2253    0.7173 C   0  0  0  0  0  0  0  0  0  0  0  0
   -8.0681    3.2413    0.2926 C   0  0  0  0  0  0  0  0  0  0  0  0
   -7.6103    4.2792   -0.4798 C   0  0  0  0  0  0  0  0  0  0  0  0
   -6.2801    4.2652   -0.8039 C   0  0  0  0  0  0  0  0  0  0  0  0
   -5.4390    3.2838   -0.3927 C   0  0  0  0  0  0  0  0  0  0  0  0
   -5.8639    2.2014    0.3993 C   0  0  0  0  0  0  0  0  0  0  0  0
    6.7726    2.8045   -2.4044 H   0  0  0  0  0  0  0  0  0  0  0  0
    5.9013    0.2186    0.6725 H   0  0  0  0  0  0  0  0  0  0  0  0
    5.7894   -1.8796   -0.6965 H   0  0  0  0  0  0  0  0  0  0  0  0
    6.3892   -0.9550   -2.0842 H   0  0  0  0  0  0  0  0  0  0  0  0
    7.1989   -2.1869    1.3668 H   0  0  0  0  0  0  0  0  0  0  0  0
    9.4649   -2.7682    2.1076 H   0  0  0  0  0  0  0  0  0  0  0  0
   11.3867   -2.2419    0.6661 H   0  0  0  0  0  0  0  0  0  0  0  0
   11.0160   -1.1268   -1.5247 H   0  0  0  0  0  0  0  0  0  0  0  0
    8.6890   -0.5503   -2.2384 H   0  0  0  0  0  0  0  0  0  0  0  0
    2.7682    1.0257   -2.5350 H   0  0  0  0  0  0  0  0  0  0  0  0
    0.3474    1.1757   -2.1383 H   0  0  0  0  0  0  0  0  0  0  0  0
    1.0030    0.2187    1.9087 H   0  0  0  0  0  0  0  0  0  0  0  0
   -1.4741    0.1641   -1.8312 H   0  0  0  0  0  0  0  0  0  0  0  0
   -3.8934    0.3584   -1.4410 H   0  0  0  0  0  0  0  0  0  0  0  0
   -3.0595    1.6883    2.5432 H   0  0  0  0  0  0  0  0  0  0  0  0
   -0.6403    1.4866    2.1314 H   0  0  0  0  0  0  0  0  0  0  0  0
   -6.0684   -1.2869    3.0974 H   0  0  0  0  0  0  0  0  0  0  0  0
   -4.3788   -0.8190    2.8150 H   0  0  0  0  0  0  0  0  0  0  0  0
   -3.2017   -2.3280    1.1600 H   0  0  0  0  0  0  0  0  0  0  0  0
   -3.3221   -4.2207   -0.4823 H   0  0  0  0  0  0  0  0  0  0  0  0
   -5.4574   -5.0723   -1.2148 H   0  0  0  0  0  0  0  0  0  0  0  0
   -7.5186   -4.0837   -0.3487 H   0  0  0  0  0  0  0  0  0  0  0  0
   -7.4210   -2.2307    1.2579 H   0  0  0  0  0  0  0  0  0  0  0  0
   -9.0880    3.1302    0.6172 H   0  0  0  0  0  0  0  0  0  0  0  0
   -8.2986    5.0480   -0.7955 H   0  0  0  0  0  0  0  0  0  0  0  0
   -5.8929    5.0893   -1.4224 H   0  0  0  0  0  0  0  0  0  0  0  0
   -4.4066    3.3732   -0.7095 H   0  0  0  0  0  0  0  0  0  0  0  0
  1  2  1  0
  2  3  2  0
  2  4  1  0
  4  5  1  0
  5  6  1  0
  6  7  2  0
  7  8  1  0
  8  9  2  0
  9 10  1  0
 10 11  2  0
  4 12  1  0
 12 13  1  0
 13 14  2  0
 14 15  1  0
 15 16  2  0
 16 17  1  0
 17 18  2  0
 18 19  1  0
 16 20  1  0
 20 21  2  0
 21 22  1  0
 22 23  2  0
 23 24  1  0
 24 25  2  0
 23 26  1  0
 26 27  2  0
 27 28  1  0
 28 29  1  0
 29 30  2  0
 30 31  1  0
 31 32  2  0
 32 33  1  0
 33 34  2  0
 27 35  1  0
 35 36  1  0
 36 37  2  0
 37 38  1  0
 38 39  2  0
 39 40  1  0
 40 41  2  0
 11  6  1  0
 18 13  1  0
 25 20  1  0
 41 26  1  0
 34 29  1  0
 41 36  1  0
  1 42  1  0
  4 43  1  0
  5 44  1  0
  5 45  1  0
  7 46  1  0
  8 47  1  0
  9 48  1  0
 10 49  1  0
 11 50  1  0
 14 51  1  0
 15 52  1  0
 17 53  1  0
 21 54  1  0
 22 55  1  0
 24 56  1  0
 25 57  1  0
 28 58  1  0
 28 59  1  0
 30 60  1  0
 31 61  1  0
 32 62  1  0
 33 63  1  0
 34 64  1  0
 37 65  1  0
 38 66  1  0
 39 67  1  0
 40 68  1  0
M  END
$$$$
[H]O[C@]([H])(C([H])([H])[H])[C@@]([H])(C(=O)N([H])S(=O)(=O)c1c([H])c([H])c([H])c(-c2c([H])c(F)c([H])c(F)c2[H])c1[H])N([H])[H]
     RDKit          3D

 41 42  0  0  0  0  0  0  0  0999 V2000
    5.6867    0.1583    0.2020 C   0  0  0  0  0  0  0  0  0  0  0  0
    4.7595    0.4636   -0.9546 C   0  0  1  0  0  0  0  0  0  0  0  0
    4.1499   -0.6644   -1.4708 O   0  0  0  0  0  0  0  0  0  0  0  0
    3.6928    1.4507   -0.5466 C   0  0  2  0  0  0  0  0  0  0  0  0
    4.2993    2.6608   -0.0033 N   0  0  0  0  0  0  0  0  0  0  0  0
    2.8091    0.8532    0.4559 C   0  0  0  0  0  0  0  0  0  0  0  0
    2.8388    1.2487    1.6568 O   0  0  0  0  0  0  0  0  0  0  0  0
    1.9118   -0.1665    0.1042 N   0  0  0  0  0  0  0  0  0  0  0  0
    0.9015   -0.8193    1.3712 S   0  0  0  0  0  0  0  0  0  0  0  0
    1.5934   -1.9564    2.0408 O   0  0  0  0  0  0  0  0  0  0  0  0
    0.6009    0.2856    2.3388 O   0  0  0  0  0  0  0  0  0  0  0  0
   -0.5407   -1.4222    0.5986 C   0  0  0  0  0  0  0  0  0  0  0  0
   -0.5923   -2.7076    0.1588 C   0  0  0  0  0  0  0  0  0  0  0  0
   -1.7595   -3.1444   -0.4503 C   0  0  0  0  0  0  0  0  0  0  0  0
   -2.8289   -2.2855   -0.5978 C   0  0  0  0  0  0  0  0  0  0  0  0
   -2.7784   -0.9690   -0.1484 C   0  0  0  0  0  0  0  0  0  0  0  0
   -1.6086   -0.5583    0.4532 C   0  0  0  0  0  0  0  0  0  0  0  0
   -3.9256   -0.0839   -0.3182 C   0  0  0  0  0  0  0  0  0  0  0  0
   -5.1959   -0.6069   -0.2863 C   0  0  0  0  0  0  0  0  0  0  0  0
   -6.2842    0.2543   -0.4501 C   0  0  0  0  0  0  0  0  0  0  0  0
   -7.5315   -0.2747   -0.4162 F   0  0  0  0  0  0  0  0  0  0  0  0
   -6.0877    1.6009   -0.6398 C   0  0  0  0  0  0  0  0  0  0  0  0
   -4.8341    2.1376   -0.6742 C   0  0  0  0  0  0  0  0  0  0  0  0
   -4.6711    3.4640   -0.8622 F   0  0  0  0  0  0  0  0  0  0  0  0
   -3.7620    1.2717   -0.5103 C   0  0  0  0  0  0  0  0  0  0  0  0
    6.6554    0.7024    0.1015 H   0  0  0  0  0  0  0  0  0  0  0  0
    5.8507   -0.9330    0.2110 H   0  0  0  0  0  0  0  0  0  0  0  0
    5.2533    0.4679    1.1804 H   0  0  0  0  0  0  0  0  0  0  0  0
    5.3780    0.9904   -1.7324 H   0  0  0  0  0  0  0  0  0  0  0  0
    4.7565   -1.4560   -1.4607 H   0  0  0  0  0  0  0  0  0  0  0  0
    3.1278    1.7452   -1.4439 H   0  0  0  0  0  0  0  0  0  0  0  0
    4.4712    2.6126    1.0003 H   0  0  0  0  0  0  0  0  0  0  0  0
    3.8726    3.5157   -0.3632 H   0  0  0  0  0  0  0  0  0  0  0  0
    1.8507   -0.5036   -0.8619 H   0  0  0  0  0  0  0  0  0  0  0  0
    0.2339   -3.3679    0.2738 H   0  0  0  0  0  0  0  0  0  0  0  0
   -1.8325   -4.1620   -0.8117 H   0  0  0  0  0  0  0  0  0  0  0  0
   -3.7658   -2.5978   -1.0743 H   0  0  0  0  0  0  0  0  0  0  0  0
   -1.5547    0.4811    0.8135 H   0  0  0  0  0  0  0  0  0  0  0  0
   -5.4079   -1.6609   -0.1405 H   0  0  0  0  0  0  0  0  0  0  0  0
   -6.9559    2.2458   -0.7645 H   0  0  0  0  0  0  0  0  0  0  0  0
   -2.7766    1.7296   -0.5426 H   0  0  0  0  0  0  0  0  0  0  0  0
  1  2  1  0
  2  3  1  0
  2  4  1  0
  4  5  1  0
  4  6  1  0
  6  7  2  0
  6  8  1  0
  8  9  1  0
  9 10  2  0
  9 11  2  0
  9 12  1  0
 12 13  2  0
 13 14  1  0
 14 15  2  0
 15 16  1  0
 16 17  2  0
 16 18  1  0
 18 19  2  0
 19 20  1  0
 20 21  1  0
 20 22  2  0
 22 23  1  0
 23 24  1  0
 23 25  2  0
 17 12  1  0
 25 18  1  0
  1 26  1  0
  1 27  1  0
  1 28  1  0
  2 29  1  6
  3 30  1  0
  4 31  1  6
  5 32  1  0
  5 33  1  0
  8 34  1  0
 13 35  1  0
 14 36  1  0
 15 37  1  0
 17 38  1  0
 19 39  1  0
 22 40  1  0
 25 41  1  0
M  END
$$$$
[H]c1nc2c([H])c([H])c([H])c(-c3c([H])nn4c([H])c(-c5c([H])c([H])c(N6C([H])([H])C([H])([H])N([H])C([H])([H])C6([H])[H])c([H])c5[H])c([H])nc34)c2c([H])c1[H]
     RDKit          3D

 53 58  0  0  0  0  0  0  0  0999 V2000
   -7.5620   -0.6964    0.5488 C   0  0  0  0  0  0  0  0  0  0  0  0
   -6.1970   -0.3748    1.1224 C   0  0  0  0  0  0  0  0  0  0  0  0
   -5.4089    0.3180    0.1353 N   0  0  0  0  0  0  0  0  0  0  0  0
   -6.1165    1.3347   -0.6500 C   0  0  0  0  0  0  0  0  0  0  0  0
   -7.4030    1.6420    0.1245 C   0  0  0  0  0  0  0  0  0  0  0  0
   -8.2311    0.4522   -0.0144 N   0  0  0  0  0  0  0  0  0  0  0  0
   -4.0171    0.0790   -0.0609 C   0  0  0  0  0  0  0  0  0  0  0  0
   -3.2009   -0.2169    1.0310 C   0  0  0  0  0  0  0  0  0  0  0  0
   -1.8541   -0.4575    0.8851 C   0  0  0  0  0  0  0  0  0  0  0  0
   -1.2447   -0.4159   -0.3710 C   0  0  0  0  0  0  0  0  0  0  0  0
   -2.0463   -0.1273   -1.4408 C   0  0  0  0  0  0  0  0  0  0  0  0
   -3.4184    0.1190   -1.2956 C   0  0  0  0  0  0  0  0  0  0  0  0
    0.1934   -0.6366   -0.4914 C   0  0  0  0  0  0  0  0  0  0  0  0
    1.0288   -0.2202    0.5566 C   0  0  0  0  0  0  0  0  0  0  0  0
    2.3532   -0.3831    0.4837 N   0  0  0  0  0  0  0  0  0  0  0  0
    2.9057   -0.9593   -0.6173 C   0  0  0  0  0  0  0  0  0  0  0  0
    4.2084   -1.2393   -0.9748 C   0  0  0  0  0  0  0  0  0  0  0  0
    4.1638   -1.8167   -2.2158 C   0  0  0  0  0  0  0  0  0  0  0  0
    2.8646   -1.8738   -2.5788 N   0  0  0  0  0  0  0  0  0  0  0  0
    2.1156   -1.3613   -1.6239 N   0  0  0  0  0  0  0  0  0  0  0  0
    0.7605   -1.2205   -1.6031 C   0  0  0  0  0  0  0  0  0  0  0  0
    5.3809   -0.9518   -0.1669 C   0  0  0  0  0  0  0  0  0  0  0  0
    5.9694   -1.8705    0.6670 C   0  0  0  0  0  0  0  0  0  0  0  0
    7.0956   -1.5027    1.4004 C   0  0  0  0  0  0  0  0  0  0  0  0
    7.6357   -0.2371    1.3107 C   0  0  0  0  0  0  0  0  0  0  0  0
    7.0515    0.6958    0.4752 C   0  0  0  0  0  0  0  0  0  0  0  0
    7.5793    1.9317    0.3999 N   0  0  0  0  0  0  0  0  0  0  0  0
    7.0291    2.8805   -0.4032 C   0  0  0  0  0  0  0  0  0  0  0  0
    5.9260    2.5404   -1.1300 C   0  0  0  0  0  0  0  0  0  0  0  0
    5.3718    1.2910   -1.0702 C   0  0  0  0  0  0  0  0  0  0  0  0
    5.9414    0.3197   -0.2429 C   0  0  0  0  0  0  0  0  0  0  0  0
   -8.2173   -1.1320    1.3522 H   0  0  0  0  0  0  0  0  0  0  0  0
   -7.4303   -1.4787   -0.2253 H   0  0  0  0  0  0  0  0  0  0  0  0
   -5.7476   -1.3605    1.3760 H   0  0  0  0  0  0  0  0  0  0  0  0
   -6.2876    0.1810    2.0808 H   0  0  0  0  0  0  0  0  0  0  0  0
   -5.5183    2.2688   -0.6994 H   0  0  0  0  0  0  0  0  0  0  0  0
   -6.3892    0.9699   -1.6311 H   0  0  0  0  0  0  0  0  0  0  0  0
   -7.9127    2.4962   -0.3236 H   0  0  0  0  0  0  0  0  0  0  0  0
   -7.2065    1.7931    1.2076 H   0  0  0  0  0  0  0  0  0  0  0  0
   -8.3510    0.3307   -1.0605 H   0  0  0  0  0  0  0  0  0  0  0  0
   -3.7048   -0.2404    1.9931 H   0  0  0  0  0  0  0  0  0  0  0  0
   -1.2601   -0.6834    1.7745 H   0  0  0  0  0  0  0  0  0  0  0  0
   -1.6224   -0.0882   -2.4307 H   0  0  0  0  0  0  0  0  0  0  0  0
   -4.0297    0.3443   -2.1717 H   0  0  0  0  0  0  0  0  0  0  0  0
    0.5317    0.2319    1.4093 H   0  0  0  0  0  0  0  0  0  0  0  0
    5.0088   -2.1747   -2.8239 H   0  0  0  0  0  0  0  0  0  0  0  0
    0.1399   -1.5563   -2.4372 H   0  0  0  0  0  0  0  0  0  0  0  0
    5.5978   -2.8787    0.7839 H   0  0  0  0  0  0  0  0  0  0  0  0
    7.5526   -2.2300    2.0522 H   0  0  0  0  0  0  0  0  0  0  0  0
    8.5085    0.0161    1.8921 H   0  0  0  0  0  0  0  0  0  0  0  0
    7.4961    3.8570   -0.4204 H   0  0  0  0  0  0  0  0  0  0  0  0
    5.4691    3.2854   -1.7778 H   0  0  0  0  0  0  0  0  0  0  0  0
    4.4982    1.0062   -1.6393 H   0  0  0  0  0  0  0  0  0  0  0  0
  1  2  1  0
  2  3  1  0
  3  4  1  0
  4  5  1  0
  5  6  1  0
  3  7  1  0
  7  8  2  0
  8  9  1  0
  9 10  2  0
 10 11  1  0
 11 12  2  0
 10 13  1  0
 13 14  1  0
 14 15  2  0
 15 16  1  0
 16 17  2  0
 17 18  1  0
 18 19  2  0
 19 20  1  0
 20 21  1  0
 17 22  1  0
 22 23  2  0
 23 24  1  0
 24 25  2  0
 25 26  1  0
 26 27  2  0
 27 28  1  0
 28 29  2  0
 29 30  1  0
 30 31  2  0
  6  1  1  0
 12  7  1  0
 21 13  2  0
 31 22  1  0
 20 16  1  0
 31 26  1  0
  1 32  1  0
  1 33  1  0
  2 34  1  0
  2 35  1  0
  4 36  1  0
  4 37  1  0
  5 38  1  0
  5 39  1  0
  6 40  1  0
  8 41  1  0
  9 42  1  0
 11 43  1  0
 12 44  1  0
 14 45  1  0
 18 46  1  0
 21 47  1  0
 23 48  1  0
 24 49  1  0
 25 50  1  0
 28 51  1  0
 29 52  1  0
 30 53  1  0
M  END
$$$$
[H]OC(=O)C([H])([H])[C@@]([H])(C(=O)N([H])[C@]([H])(C(=O)N([H])[C@]([H])(C(=O)N([H])[H])C([H])([H])C([H])(C([H])([H])[H])C([H])([H])[H])C([H])([H])C(=O)O[H])N([H])C(=O)[C@@]([H])(N([H])C(=O)[C@@]([H])(N([H])C(=O)[C@@]([H])(N([H])C(=O)C([H])([H])[H])C([H])([H])c1c([H])nc([H])n1[H])C([H])([H])c1c([H])c([H])c(O[H])c([H])c1[H])C([H])([H])c1c([H])c([H])c([H])c([H])c1[H]
     RDKit          3D

112114  0  0  0  0  0  0  0  0999 V2000
   12.1330    1.5793    1.2475 C   0  0  0  0  0  0  0  0  0  0  0  0
   11.3641    0.4042    1.7962 C   0  0  0  0  0  0  0  0  0  0  0  0
   11.0173    0.6064    3.2614 C   0  0  0  0  0  0  0  0  0  0  0  0
   10.2587   -0.1141    0.9837 C   0  0  0  0  0  0  0  0  0  0  0  0
    9.0942    0.7046    0.6285 C   0  0  2  0  0  0  0  0  0  0  0  0
    8.2245   -0.1853   -0.1955 N   0  0  0  0  0  0  0  0  0  0  0  0
    6.8540   -0.3954    0.1209 C   0  0  0  0  0  0  0  0  0  0  0  0
    6.4350    0.2085    1.1690 O   0  0  0  0  0  0  0  0  0  0  0  0
    5.9543   -1.2202   -0.6602 C   0  0  2  0  0  0  0  0  0  0  0  0
    5.7528   -0.6393   -2.0789 C   0  0  0  0  0  0  0  0  0  0  0  0
    5.1814    0.6968   -2.0638 C   0  0  0  0  0  0  0  0  0  0  0  0
    4.9364    1.3826   -3.2365 O   0  0  0  0  0  0  0  0  0  0  0  0
    4.8855    1.2891   -0.9869 O   0  0  0  0  0  0  0  0  0  0  0  0
    4.6307   -1.2774   -0.0896 N   0  0  0  0  0  0  0  0  0  0  0  0
    3.5999   -2.1602   -0.4879 C   0  0  0  0  0  0  0  0  0  0  0  0
    3.7961   -2.9705   -1.4180 O   0  0  0  0  0  0  0  0  0  0  0  0
    2.3048   -2.1242    0.1805 C   0  0  2  0  0  0  0  0  0  0  0  0
    2.1570   -3.3092    1.1548 C   0  0  0  0  0  0  0  0  0  0  0  0
    2.2523   -4.5994    0.4867 C   0  0  0  0  0  0  0  0  0  0  0  0
    1.0715   -5.1879    0.0068 O   0  0  0  0  0  0  0  0  0  0  0  0
    3.3166   -5.1949    0.3248 O   0  0  0  0  0  0  0  0  0  0  0  0
    1.1558   -2.1711   -0.7165 N   0  0  0  0  0  0  0  0  0  0  0  0
   -0.0364   -1.5252   -0.2950 C   0  0  0  0  0  0  0  0  0  0  0  0
   -0.0351   -0.9671    0.8508 O   0  0  0  0  0  0  0  0  0  0  0  0
   -1.2788   -1.4420   -1.0617 C   0  0  2  0  0  0  0  0  0  0  0  0
   -1.1165   -0.2524   -2.0526 C   0  0  0  0  0  0  0  0  0  0  0  0
   -0.9004    1.0175   -1.3698 C   0  0  0  0  0  0  0  0  0  0  0  0
    0.3214    1.5241   -1.0027 C   0  0  0  0  0  0  0  0  0  0  0  0
    0.4443    2.7301   -0.3477 C   0  0  0  0  0  0  0  0  0  0  0  0
   -0.6631    3.4996   -0.0234 C   0  0  0  0  0  0  0  0  0  0  0  0
   -1.8841    3.0152   -0.3796 C   0  0  0  0  0  0  0  0  0  0  0  0
   -2.0133    1.7970   -1.0424 C   0  0  0  0  0  0  0  0  0  0  0  0
   -2.4315   -1.2062   -0.2479 N   0  0  0  0  0  0  0  0  0  0  0  0
   -3.7436   -1.3741   -0.6558 C   0  0  0  0  0  0  0  0  0  0  0  0
   -4.1186   -1.7366   -1.8000 O   0  0  0  0  0  0  0  0  0  0  0  0
   -4.8946   -1.1059    0.3314 C   0  0  2  0  0  0  0  0  0  0  0  0
   -5.4033   -2.4157    0.8001 C   0  0  0  0  0  0  0  0  0  0  0  0
   -6.4870   -2.4136    1.7971 C   0  0  0  0  0  0  0  0  0  0  0  0
   -6.1581   -2.4202    3.1631 C   0  0  0  0  0  0  0  0  0  0  0  0
   -7.1325   -2.4515    4.1067 C   0  0  0  0  0  0  0  0  0  0  0  0
   -8.4831   -2.4781    3.8182 C   0  0  0  0  0  0  0  0  0  0  0  0
   -9.4579   -2.5116    4.7862 O   0  0  0  0  0  0  0  0  0  0  0  0
   -8.7940   -2.4716    2.4550 C   0  0  0  0  0  0  0  0  0  0  0  0
   -7.8162   -2.4409    1.4895 C   0  0  0  0  0  0  0  0  0  0  0  0
   -5.8696   -0.2876   -0.4079 N   0  0  0  0  0  0  0  0  0  0  0  0
   -6.0097    1.0735   -0.1658 C   0  0  0  0  0  0  0  0  0  0  0  0
   -5.2218    1.5188    0.7896 O   0  0  0  0  0  0  0  0  0  0  0  0
   -6.8698    2.0435   -0.8106 C   0  0  2  0  0  0  0  0  0  0  0  0
   -7.5446    1.6931   -2.0708 C   0  0  0  0  0  0  0  0  0  0  0  0
   -8.5589    0.6162   -2.0196 C   0  0  0  0  0  0  0  0  0  0  0  0
   -9.1159    0.0374   -3.1564 C   0  0  0  0  0  0  0  0  0  0  0  0
  -10.0307   -0.8281   -2.7477 N   0  0  0  0  0  0  0  0  0  0  0  0
  -10.0836   -0.8264   -1.3844 C   0  0  0  0  0  0  0  0  0  0  0  0
   -9.1773    0.0586   -0.9824 N   0  0  0  0  0  0  0  0  0  0  0  0
   -6.2063    3.3445   -0.9632 N   0  0  0  0  0  0  0  0  0  0  0  0
   -6.4863    4.4848   -0.1948 C   0  0  0  0  0  0  0  0  0  0  0  0
   -5.7444    5.7355   -0.4412 C   0  0  0  0  0  0  0  0  0  0  0  0
   -7.3585    4.4620    0.7027 O   0  0  0  0  0  0  0  0  0  0  0  0
    9.3079    1.9551   -0.0889 C   0  0  0  0  0  0  0  0  0  0  0  0
    9.4413    3.2221    0.5278 N   0  0  0  0  0  0  0  0  0  0  0  0
    9.3785    1.9278   -1.3459 O   0  0  0  0  0  0  0  0  0  0  0  0
   12.0040    2.5047    1.8695 H   0  0  0  0  0  0  0  0  0  0  0  0
   13.2594    1.3980    1.3469 H   0  0  0  0  0  0  0  0  0  0  0  0
   12.0054    1.7361    0.1687 H   0  0  0  0  0  0  0  0  0  0  0  0
   12.1319   -0.4399    1.8232 H   0  0  0  0  0  0  0  0  0  0  0  0
   10.3576   -0.2029    3.6226 H   0  0  0  0  0  0  0  0  0  0  0  0
   10.5573    1.6259    3.4061 H   0  0  0  0  0  0  0  0  0  0  0  0
   11.9106    0.6234    3.9193 H   0  0  0  0  0  0  0  0  0  0  0  0
   10.7404   -0.5109    0.0229 H   0  0  0  0  0  0  0  0  0  0  0  0
    9.9216   -1.0837    1.4669 H   0  0  0  0  0  0  0  0  0  0  0  0
    8.4743    0.9040    1.5413 H   0  0  0  0  0  0  0  0  0  0  0  0
    8.5891   -0.6812   -1.0365 H   0  0  0  0  0  0  0  0  0  0  0  0
    6.3165   -2.2391   -0.8117 H   0  0  0  0  0  0  0  0  0  0  0  0
    6.7438   -0.6666   -2.5931 H   0  0  0  0  0  0  0  0  0  0  0  0
    5.1063   -1.3176   -2.6629 H   0  0  0  0  0  0  0  0  0  0  0  0
    5.4676    1.2190   -4.0922 H   0  0  0  0  0  0  0  0  0  0  0  0
    4.4201   -0.6034    0.6924 H   0  0  0  0  0  0  0  0  0  0  0  0
    2.1882   -1.2431    0.8232 H   0  0  0  0  0  0  0  0  0  0  0  0
    2.9146   -3.1658    1.9619 H   0  0  0  0  0  0  0  0  0  0  0  0
    1.1673   -3.1841    1.6269 H   0  0  0  0  0  0  0  0  0  0  0  0
    1.0432   -5.7745   -0.8193 H   0  0  0  0  0  0  0  0  0  0  0  0
    1.2161   -2.6661   -1.6359 H   0  0  0  0  0  0  0  0  0  0  0  0
   -1.4327   -2.2911   -1.7167 H   0  0  0  0  0  0  0  0  0  0  0  0
   -1.9855   -0.2117   -2.7064 H   0  0  0  0  0  0  0  0  0  0  0  0
   -0.2247   -0.4861   -2.6778 H   0  0  0  0  0  0  0  0  0  0  0  0
    1.2235    0.9826   -1.2284 H   0  0  0  0  0  0  0  0  0  0  0  0
    1.4135    3.1125   -0.0738 H   0  0  0  0  0  0  0  0  0  0  0  0
   -0.5977    4.4515    0.4874 H   0  0  0  0  0  0  0  0  0  0  0  0
   -2.7607    3.6070   -0.1259 H   0  0  0  0  0  0  0  0  0  0  0  0
   -3.0049    1.4974   -1.2993 H   0  0  0  0  0  0  0  0  0  0  0  0
   -2.2431   -0.8808    0.7359 H   0  0  0  0  0  0  0  0  0  0  0  0
   -4.5062   -0.5020    1.1478 H   0  0  0  0  0  0  0  0  0  0  0  0
   -5.7642   -3.0503   -0.0524 H   0  0  0  0  0  0  0  0  0  0  0  0
   -4.5166   -2.9557    1.2617 H   0  0  0  0  0  0  0  0  0  0  0  0
   -5.1041   -2.4020    3.4346 H   0  0  0  0  0  0  0  0  0  0  0  0
   -6.8854   -2.4641    5.1722 H   0  0  0  0  0  0  0  0  0  0  0  0
   -9.8340   -3.3634    5.1675 H   0  0  0  0  0  0  0  0  0  0  0  0
   -9.8445   -2.4929    2.2157 H   0  0  0  0  0  0  0  0  0  0  0  0
   -8.1157   -2.4400    0.4437 H   0  0  0  0  0  0  0  0  0  0  0  0
   -6.4110   -0.8061   -1.1101 H   0  0  0  0  0  0  0  0  0  0  0  0
   -7.6787    2.2980   -0.0085 H   0  0  0  0  0  0  0  0  0  0  0  0
   -6.7289    1.4093   -2.8130 H   0  0  0  0  0  0  0  0  0  0  0  0
   -7.9940    2.6370   -2.4933 H   0  0  0  0  0  0  0  0  0  0  0  0
   -8.8305    0.2698   -4.1903 H   0  0  0  0  0  0  0  0  0  0  0  0
  -10.7471   -1.4406   -0.7872 H   0  0  0  0  0  0  0  0  0  0  0  0
   -8.9601    0.3073    0.0055 H   0  0  0  0  0  0  0  0  0  0  0  0
   -5.4824    3.3745   -1.7181 H   0  0  0  0  0  0  0  0  0  0  0  0
   -5.8377    6.3780    0.4685 H   0  0  0  0  0  0  0  0  0  0  0  0
   -6.1668    6.2861   -1.3095 H   0  0  0  0  0  0  0  0  0  0  0  0
   -4.6484    5.5402   -0.5510 H   0  0  0  0  0  0  0  0  0  0  0  0
    9.4178    4.1245   -0.0130 H   0  0  0  0  0  0  0  0  0  0  0  0
    9.5715    3.3551    1.5759 H   0  0  0  0  0  0  0  0  0  0  0  0
  1  2  1  0
  2  3  1  0
  2  4  1  0
  4  5  1  0
  5  6  1  0
  6  7  1  0
  7  8  2  0
  7  9  1  0
  9 10  1  0
 10 11  1  0
 11 12  1  0
 11 13  2  0
  9 14  1  0
 14 15  1  0
 15 16  2  0
 15 17  1  0
 17 18  1  0
 18 19  1  0
 19 20  1  0
 19 21  2  0
 17 22  1  0
 22 23  1  0
 23 24  2  0
 23 25  1  0
 25 26  1  0
 26 27  1  0
 27 28  2  0
 28 29  1  0
 29 30  2  0
 30 31  1  0
 31 32  2  0
 25 33  1  0
 33 34  1  0
 34 35  2  0
 34 36  1  0
 36 37  1  0
 37 38  1  0
 38 39  2  0
 39 40  1  0
 40 41  2  0
 41 42  1  0
 41 43  1  0
 43 44  2  0
 36 45  1  0
 45 46  1  0
 46 47  2  0
 46 48  1  0
 48 49  1  0
 49 50  1  0
 50 51  2  0
 51 52  1  0
 52 53  2  0
 53 54  1  0
 48 55  1  0
 55 56  1  0
 56 57  1  0
 56 58  2  0
  5 59  1  0
 59 60  1  0
 59 61  2  0
 32 27  1  0
 44 38  1  0
 54 50  1  0
  1 62  1  0
  1 63  1  0
  1 64  1  0
  2 65  1  0
  3 66  1  0
  3 67  1  0
  3 68  1  0
  4 69  1  0
  4 70  1  0
  5 71  1  1
  6 72  1  0
  9 73  1  6
 10 74  1  0
 10 75  1  0
 12 76  1  0
 14 77  1  0
 17 78  1  1
 18 79  1  0
 18 80  1  0
 20 81  1  0
 22 82  1  0
 25 83  1  6
 26 84  1  0
 26 85  1  0
 28 86  1  0
 29 87  1  0
 30 88  1  0
 31 89  1  0
 32 90  1  0
 33 91  1  0
 36 92  1  1
 37 93  1  0
 37 94  1  0
 39 95  1  0
 40 96  1  0
 42 97  1  0
 43 98  1  0
 44 99  1  0
 45100  1  0
 48101  1  1
 49102  1  0
 49103  1  0
 51104  1  0
 53105  1  0
 54106  1  0
 55107  1  0
 57108  1  0
 57109  1  0
 57110  1  0
 60111  1  0
 60112  1  0
M  END
$$$$
[H]c1nc(N([H])[H])c(C(=O)N([H])c2nc([H])c([H])c([H])c2N2C([H])([H])C([H])([H])C([H])(N([H])[H])C([H])([H])C2([H])[H])nc1-c1nc(N2C([H])([H])C([H])([H])OC([H])([H])C2([H])[H])c([H])c([H])c1C(F)(F)F
     RDKit          3D

 67 71  0  0  0  0  0  0  0  0999 V2000
   -4.1726    3.7627   -1.9054 N   0  0  0  0  0  0  0  0  0  0  0  0
   -3.7083    2.3684   -1.9332 C   0  0  0  0  0  0  0  0  0  0  0  0
   -2.7285    2.2484   -3.0491 C   0  0  0  0  0  0  0  0  0  0  0  0
   -1.8455    1.0245   -2.9525 C   0  0  0  0  0  0  0  0  0  0  0  0
   -2.2241    0.1935   -1.8219 N   0  0  0  0  0  0  0  0  0  0  0  0
   -2.3182    0.8143   -0.5399 C   0  0  0  0  0  0  0  0  0  0  0  0
   -3.1469    2.0811   -0.5660 C   0  0  0  0  0  0  0  0  0  0  0  0
   -2.5350   -1.1532   -2.0885 C   0  0  0  0  0  0  0  0  0  0  0  0
   -3.3835   -1.3949   -3.1872 C   0  0  0  0  0  0  0  0  0  0  0  0
   -3.8128   -2.6668   -3.4607 C   0  0  0  0  0  0  0  0  0  0  0  0
   -3.4240   -3.7167   -2.6725 C   0  0  0  0  0  0  0  0  0  0  0  0
   -2.6203   -3.4748   -1.6384 N   0  0  0  0  0  0  0  0  0  0  0  0
   -2.1659   -2.2206   -1.3292 C   0  0  0  0  0  0  0  0  0  0  0  0
   -1.2270   -2.0600   -0.2718 N   0  0  0  0  0  0  0  0  0  0  0  0
   -0.9255   -3.1474    0.5716 C   0  0  0  0  0  0  0  0  0  0  0  0
   -1.5725   -4.2373    0.3904 O   0  0  0  0  0  0  0  0  0  0  0  0
    0.0561   -3.1335    1.6338 C   0  0  0  0  0  0  0  0  0  0  0  0
    0.8756   -2.1140    1.8537 N   0  0  0  0  0  0  0  0  0  0  0  0
    1.8382   -2.0890    2.8531 C   0  0  0  0  0  0  0  0  0  0  0  0
    1.8795   -3.1973    3.5978 C   0  0  0  0  0  0  0  0  0  0  0  0
    1.0359   -4.2633    3.3810 N   0  0  0  0  0  0  0  0  0  0  0  0
    0.1227   -4.2671    2.4191 C   0  0  0  0  0  0  0  0  0  0  0  0
   -0.7465   -5.3918    2.2132 N   0  0  0  0  0  0  0  0  0  0  0  0
    2.6558   -0.8928    2.8254 C   0  0  0  0  0  0  0  0  0  0  0  0
    2.3603   -0.0055    1.7954 N   0  0  0  0  0  0  0  0  0  0  0  0
    2.9547    1.1417    1.5854 C   0  0  0  0  0  0  0  0  0  0  0  0
    3.9672    1.4912    2.4812 C   0  0  0  0  0  0  0  0  0  0  0  0
    4.3062    0.6733    3.5097 C   0  0  0  0  0  0  0  0  0  0  0  0
    3.6318   -0.5651    3.6970 C   0  0  0  0  0  0  0  0  0  0  0  0
    4.0254   -1.3852    4.8493 C   0  0  0  0  0  0  0  0  0  0  0  0
    5.0923   -0.5917    5.4613 F   0  0  0  0  0  0  0  0  0  0  0  0
    4.7637   -2.4995    4.5316 F   0  0  0  0  0  0  0  0  0  0  0  0
    3.1111   -1.5138    5.8483 F   0  0  0  0  0  0  0  0  0  0  0  0
    2.6509    2.0018    0.4985 N   0  0  0  0  0  0  0  0  0  0  0  0
    1.6949    1.6195   -0.4859 C   0  0  0  0  0  0  0  0  0  0  0  0
    2.1256    1.9989   -1.8892 C   0  0  0  0  0  0  0  0  0  0  0  0
    3.1951    2.8867   -1.9014 O   0  0  0  0  0  0  0  0  0  0  0  0
    3.0194    3.8985   -0.9578 C   0  0  0  0  0  0  0  0  0  0  0  0
    3.3344    3.2748    0.3911 C   0  0  0  0  0  0  0  0  0  0  0  0
   -5.0615    3.8735   -2.4232 H   0  0  0  0  0  0  0  0  0  0  0  0
   -4.1682    4.1628   -0.9604 H   0  0  0  0  0  0  0  0  0  0  0  0
   -4.6114    1.7637   -2.1426 H   0  0  0  0  0  0  0  0  0  0  0  0
   -3.3277    2.1820   -4.0017 H   0  0  0  0  0  0  0  0  0  0  0  0
   -2.1483    3.1885   -3.1455 H   0  0  0  0  0  0  0  0  0  0  0  0
   -1.8635    0.4701   -3.9129 H   0  0  0  0  0  0  0  0  0  0  0  0
   -0.8093    1.3932   -2.8265 H   0  0  0  0  0  0  0  0  0  0  0  0
   -2.7512    0.0611    0.1823 H   0  0  0  0  0  0  0  0  0  0  0  0
   -1.3433    1.0929   -0.1184 H   0  0  0  0  0  0  0  0  0  0  0  0
   -3.9958    1.9389    0.1312 H   0  0  0  0  0  0  0  0  0  0  0  0
   -2.5817    2.9700   -0.2054 H   0  0  0  0  0  0  0  0  0  0  0  0
   -3.6835   -0.5560   -3.8029 H   0  0  0  0  0  0  0  0  0  0  0  0
   -4.4734   -2.8667   -4.3135 H   0  0  0  0  0  0  0  0  0  0  0  0
   -3.7668   -4.7444   -2.8847 H   0  0  0  0  0  0  0  0  0  0  0  0
   -0.7270   -1.1826   -0.1365 H   0  0  0  0  0  0  0  0  0  0  0  0
    2.5712   -3.2993    4.3654 H   0  0  0  0  0  0  0  0  0  0  0  0
   -1.6326   -5.4211    2.7528 H   0  0  0  0  0  0  0  0  0  0  0  0
   -0.5457   -6.1733    1.5623 H   0  0  0  0  0  0  0  0  0  0  0  0
    4.4588    2.4570    2.2996 H   0  0  0  0  0  0  0  0  0  0  0  0
    5.0899    0.9640    4.1857 H   0  0  0  0  0  0  0  0  0  0  0  0
    0.7424    2.1886   -0.2606 H   0  0  0  0  0  0  0  0  0  0  0  0
    1.4175    0.5489   -0.4622 H   0  0  0  0  0  0  0  0  0  0  0  0
    2.4602    1.0751   -2.4007 H   0  0  0  0  0  0  0  0  0  0  0  0
    1.3115    2.4344   -2.4780 H   0  0  0  0  0  0  0  0  0  0  0  0
    2.0025    4.2896   -0.9130 H   0  0  0  0  0  0  0  0  0  0  0  0
    3.7730    4.6796   -1.1408 H   0  0  0  0  0  0  0  0  0  0  0  0
    4.4536    3.1154    0.3994 H   0  0  0  0  0  0  0  0  0  0  0  0
    3.0712    3.8959    1.2446 H   0  0  0  0  0  0  0  0  0  0  0  0
  1  2  1  0
  2  3  1  0
  3  4  1  0
  4  5  1  0
  5  6  1  0
  6  7  1  0
  5  8  1  0
  8  9  2  0
  9 10  1  0
 10 11  2  0
 11 12  1  0
 12 13  2  0
 13 14  1  0
 14 15  1  0
 15 16  2  0
 15 17  1  0
 17 18  2  0
 18 19  1  0
 19 20  2  0
 20 21  1  0
 21 22  2  0
 22 23  1  0
 19 24  1  0
 24 25  2  0
 25 26  1  0
 26 27  2  0
 27 28  1  0
 28 29  2  0
 29 30  1  0
 30 31  1  0
 30 32  1  0
 30 33  1  0
 26 34  1  0
 34 35  1  0
 35 36  1  0
 36 37  1  0
 37 38  1  0
 38 39  1  0
  7  2  1  0
 13  8  1  0
 22 17  1  0
 29 24  1  0
 39 34  1  0
  1 40  1  0
  1 41  1  0
  2 42  1  0
  3 43  1  0
  3 44  1  0
  4 45  1  0
  4 46  1  0
  6 47  1  0
  6 48  1  0
  7 49  1  0
  7 50  1  0
  9 51  1  0
 10 52  1  0
 11 53  1  0
 14 54  1  0
 20 55  1  0
 23 56  1  0
 23 57  1  0
 27 58  1  0
 28 59  1  0
 35 60  1  0
 35 61  1  0
 36 62  1  0
 36 63  1  0
 38 64  1  0
 38 65  1  0
 39 66  1  0
 39 67  1  0
M  END
$$$$
[H]OP(=O)(O[H])C(F)(F)c1c([H])c(-c2c([H])c([H])c(-c3c(C([H])([H])c4c([H])c([H])c([H])c([H])c4[H])sc4c([H])c([H])c([H])c([H])c34)c([H])c2[H])c([H])c([H])c1F
     RDKit          3D

 56 60  0  0  0  0  0  0  0  0999 V2000
    8.6426    2.0303    0.0631 O   0  0  0  0  0  0  0  0  0  0  0  0
    6.9956    2.3198   -0.1937 P   0  0  0  0  0  0  0  0  0  0  0  0
    6.6356    1.8763   -1.8027 O   0  0  0  0  0  0  0  0  0  0  0  0
    6.7189    3.7939    0.0022 O   0  0  0  0  0  0  0  0  0  0  0  0
    6.0161    1.3001    0.9056 C   0  0  0  0  0  0  0  0  0  0  0  0
    6.8553    0.7540    1.8640 F   0  0  0  0  0  0  0  0  0  0  0  0
    5.1312    2.1455    1.5885 F   0  0  0  0  0  0  0  0  0  0  0  0
    5.2690    0.2277    0.2118 C   0  0  0  0  0  0  0  0  0  0  0  0
    3.8991    0.1484    0.2697 C   0  0  0  0  0  0  0  0  0  0  0  0
    3.1900   -0.8557   -0.3755 C   0  0  0  0  0  0  0  0  0  0  0  0
    3.8960   -1.7935   -1.0917 C   0  0  0  0  0  0  0  0  0  0  0  0
    5.2854   -1.7558   -1.1802 C   0  0  0  0  0  0  0  0  0  0  0  0
    5.9395   -0.7275   -0.5134 C   0  0  0  0  0  0  0  0  0  0  0  0
    7.2958   -0.7066   -0.6103 F   0  0  0  0  0  0  0  0  0  0  0  0
    1.7419   -0.9502   -0.3176 C   0  0  0  0  0  0  0  0  0  0  0  0
    1.1113   -0.5101    0.8486 C   0  0  0  0  0  0  0  0  0  0  0  0
   -0.2527   -0.5824    0.9400 C   0  0  0  0  0  0  0  0  0  0  0  0
   -1.0375   -1.0746   -0.0779 C   0  0  0  0  0  0  0  0  0  0  0  0
   -0.4180   -1.5071   -1.2235 C   0  0  0  0  0  0  0  0  0  0  0  0
    0.9540   -1.4347   -1.3154 C   0  0  0  0  0  0  0  0  0  0  0  0
   -2.5278   -1.1255    0.0865 C   0  0  0  0  0  0  0  0  0  0  0  0
   -3.2498    0.0201   -0.1193 C   0  0  0  0  0  0  0  0  0  0  0  0
   -2.7111    1.3796   -0.5107 C   0  0  0  0  0  0  0  0  0  0  0  0
   -3.8440    2.3138   -0.5864 C   0  0  0  0  0  0  0  0  0  0  0  0
   -4.5660    2.5099   -1.7401 C   0  0  0  0  0  0  0  0  0  0  0  0
   -5.6237    3.4129   -1.7318 C   0  0  0  0  0  0  0  0  0  0  0  0
   -5.9378    4.1057   -0.5591 C   0  0  0  0  0  0  0  0  0  0  0  0
   -5.2079    3.9056    0.6020 C   0  0  0  0  0  0  0  0  0  0  0  0
   -4.1599    3.0083    0.5875 C   0  0  0  0  0  0  0  0  0  0  0  0
   -4.8541   -0.4645    0.1675 S   0  0  0  0  0  0  0  0  0  0  0  0
   -4.5848   -2.1062    0.5423 C   0  0  0  0  0  0  0  0  0  0  0  0
   -5.4116   -3.1914    0.8950 C   0  0  0  0  0  0  0  0  0  0  0  0
   -4.8848   -4.4362    1.1451 C   0  0  0  0  0  0  0  0  0  0  0  0
   -3.5149   -4.5577    1.0313 C   0  0  0  0  0  0  0  0  0  0  0  0
   -2.6926   -3.5194    0.6907 C   0  0  0  0  0  0  0  0  0  0  0  0
   -3.2297   -2.2365    0.4326 C   0  0  0  0  0  0  0  0  0  0  0  0
    8.7321    1.6515    0.9853 H   0  0  0  0  0  0  0  0  0  0  0  0
    7.4722    1.7685   -2.3171 H   0  0  0  0  0  0  0  0  0  0  0  0
    3.3280    0.8652    0.8188 H   0  0  0  0  0  0  0  0  0  0  0  0
    3.3852   -2.6091   -1.6220 H   0  0  0  0  0  0  0  0  0  0  0  0
    5.8608   -2.4830   -1.7382 H   0  0  0  0  0  0  0  0  0  0  0  0
    1.7409   -0.1242    1.6434 H   0  0  0  0  0  0  0  0  0  0  0  0
   -0.7315   -0.2302    1.8703 H   0  0  0  0  0  0  0  0  0  0  0  0
   -1.0263   -1.9036   -2.0483 H   0  0  0  0  0  0  0  0  0  0  0  0
    1.4575   -1.7806   -2.2327 H   0  0  0  0  0  0  0  0  0  0  0  0
   -1.9881    1.6870    0.2446 H   0  0  0  0  0  0  0  0  0  0  0  0
   -2.1936    1.3054   -1.4798 H   0  0  0  0  0  0  0  0  0  0  0  0
   -4.2754    1.9462   -2.6135 H   0  0  0  0  0  0  0  0  0  0  0  0
   -6.1890    3.5728   -2.6174 H   0  0  0  0  0  0  0  0  0  0  0  0
   -6.7586    4.8192   -0.5191 H   0  0  0  0  0  0  0  0  0  0  0  0
   -5.4522    4.4465    1.5205 H   0  0  0  0  0  0  0  0  0  0  0  0
   -3.5983    2.8659    1.5090 H   0  0  0  0  0  0  0  0  0  0  0  0
   -6.4590   -2.9854    0.9544 H   0  0  0  0  0  0  0  0  0  0  0  0
   -5.5032   -5.2684    1.4138 H   0  0  0  0  0  0  0  0  0  0  0  0
   -3.0351   -5.5333    1.2196 H   0  0  0  0  0  0  0  0  0  0  0  0
   -1.6351   -3.7269    0.6307 H   0  0  0  0  0  0  0  0  0  0  0  0
  1  2  1  0
  2  3  1  0
  2  4  2  0
  2  5  1  0
  5  6  1  0
  5  7  1  0
  5  8  1  0
  8  9  2  0
  9 10  1  0
 10 11  2  0
 11 12  1  0
 12 13  2  0
 13 14  1  0
 10 15  1  0
 15 16  2  0
 16 17  1  0
 17 18  2  0
 18 19  1  0
 19 20  2  0
 18 21  1  0
 21 22  2  0
 22 23  1  0
 23 24  1  0
 24 25  2  0
 25 26  1  0
 26 27  2  0
 27 28  1  0
 28 29  2  0
 22 30  1  0
 30 31  1  0
 31 32  2  0
 32 33  1  0
 33 34  2  0
 34 35  1  0
 35 36  2  0
 13  8  1  0
 20 15  1  0
 36 21  1  0
 29 24  1  0
 36 31  1  0
  1 37  1  0
  3 38  1  0
  9 39  1  0
 11 40  1  0
 12 41  1  0
 16 42  1  0
 17 43  1  0
 19 44  1  0
 20 45  1  0
 23 46  1  0
 23 47  1  0
 25 48  1  0
 26 49  1  0
 27 50  1  0
 28 51  1  0
 29 52  1  0
 32 53  1  0
 33 54  1  0
 34 55  1  0
 35 56  1  0
M  END
$$$$
