[H]OC([H])([H])[C@@]1([H])O[C@@]([H])(n2c([H])nc3c(N([H])[H])nc([H])nc32)[C@]([H])(O[H])[C@@]([H])(O[H])[C@]1([H])O[H]
     RDKit          3D

 36 38  0  0  0  0  0  0  0  0999 V2000
   -2.8022   -1.8154    2.4114 O   0  0  0  0  0  0  0  0  0  0  0  0
   -3.1473   -1.4143    1.1400 C   0  0  0  0  0  0  0  0  0  0  0  0
   -2.4448   -0.0861    0.8256 C   0  0  1  0  0  0  0  0  0  0  0  0
   -1.0890   -0.3539    0.9269 O   0  0  0  0  0  0  0  0  0  0  0  0
   -0.2892    0.6251    0.3768 C   0  0  2  0  0  0  0  0  0  0  0  0
   -0.5425    0.6629   -1.1018 C   0  0  2  0  0  0  0  0  0  0  0  0
    0.2957    1.5689   -1.7593 O   0  0  0  0  0  0  0  0  0  0  0  0
   -1.9596    1.2315   -1.2609 C   0  0  1  0  0  0  0  0  0  0  0  0
   -2.3330    1.2064   -2.6161 O   0  0  0  0  0  0  0  0  0  0  0  0
   -2.8957    0.3466   -0.5188 C   0  0  2  0  0  0  0  0  0  0  0  0
   -4.1179    1.0440   -0.3788 O   0  0  0  0  0  0  0  0  0  0  0  0
    1.0792    0.3620    0.7380 N   0  0  0  0  0  0  0  0  0  0  0  0
    1.6331    0.7515    1.8784 C   0  0  0  0  0  0  0  0  0  0  0  0
    2.9146    0.3440    1.8947 N   0  0  0  0  0  0  0  0  0  0  0  0
    3.1851   -0.3083    0.7637 C   0  0  0  0  0  0  0  0  0  0  0  0
    4.3164   -0.9332    0.2468 C   0  0  0  0  0  0  0  0  0  0  0  0
    5.5074   -0.9444    0.9984 N   0  0  0  0  0  0  0  0  0  0  0  0
    4.2023   -1.5036   -0.9697 N   0  0  0  0  0  0  0  0  0  0  0  0
    3.0594   -1.4769   -1.6589 C   0  0  0  0  0  0  0  0  0  0  0  0
    1.9570   -0.8815   -1.1826 N   0  0  0  0  0  0  0  0  0  0  0  0
    2.0215   -0.2985    0.0271 C   0  0  0  0  0  0  0  0  0  0  0  0
   -2.7835   -1.0700    3.0616 H   0  0  0  0  0  0  0  0  0  0  0  0
   -2.7220   -2.1473    0.4159 H   0  0  0  0  0  0  0  0  0  0  0  0
   -4.2365   -1.3413    0.9747 H   0  0  0  0  0  0  0  0  0  0  0  0
   -2.8010    0.6369    1.5877 H   0  0  0  0  0  0  0  0  0  0  0  0
   -0.5448    1.6476    0.7657 H   0  0  0  0  0  0  0  0  0  0  0  0
   -0.5424   -0.3395   -1.5797 H   0  0  0  0  0  0  0  0  0  0  0  0
    0.3896    1.2606   -2.6959 H   0  0  0  0  0  0  0  0  0  0  0  0
   -1.9163    2.2747   -0.8871 H   0  0  0  0  0  0  0  0  0  0  0  0
   -2.2074    2.1043   -2.9976 H   0  0  0  0  0  0  0  0  0  0  0  0
   -3.1414   -0.5297   -1.1849 H   0  0  0  0  0  0  0  0  0  0  0  0
   -4.0979    1.9138   -0.8389 H   0  0  0  0  0  0  0  0  0  0  0  0
    1.1583    1.3141    2.6970 H   0  0  0  0  0  0  0  0  0  0  0  0
    6.2494   -0.2622    0.7939 H   0  0  0  0  0  0  0  0  0  0  0  0
    5.6317   -1.6355    1.7503 H   0  0  0  0  0  0  0  0  0  0  0  0
    3.0135   -1.9536   -2.6435 H   0  0  0  0  0  0  0  0  0  0  0  0
  1  2  1  0
  2  3  1  0
  3  4  1  0
  4  5  1  0
  5  6  1  0
  6  7  1  0
  6  8  1  0
  8  9  1  0
  8 10  1  0
 10 11  1  0
  5 12  1  0
 12 13  1  0
 13 14  2  0
 14 15  1  0
 15 16  2  0
 16 17  1  0
 16 18  1  0
 18 19  2  0
 19 20  1  0
 20 21  2  0
 10  3  1  0
 21 12  1  0
 21 15  1  0
  1 22  1  0
  2 23  1  0
  2 24  1  0
  3 25  1  1
  5 26  1  1
  6 27  1  6
  7 28  1  0
  8 29  1  1
  9 30  1  0
 10 31  1  6
 11 32  1  0
 13 33  1  0
 17 34  1  0
 17 35  1  0
 19 36  1  0
M  END
$$$$
[H]OC([H])([H])[C@@]1([H])O[C@@]([H])(n2c([H])nc3c(N([H])[H])nc(-c4c([H])c([H])c([H])c([H])c4[H])nc32)[C@]([H])(O[H])[C@]1([H])O[H]
     RDKit          3D

 42 45  0  0  0  0  0  0  0  0999 V2000
    5.4212    2.6142   -0.3706 O   0  0  0  0  0  0  0  0  0  0  0  0
    4.3974    1.9002   -0.9924 C   0  0  0  0  0  0  0  0  0  0  0  0
    3.2778    1.5684    0.0028 C   0  0  1  0  0  0  0  0  0  0  0  0
    2.3211    0.8718   -0.6876 O   0  0  0  0  0  0  0  0  0  0  0  0
    1.8422   -0.1137    0.1788 C   0  0  2  0  0  0  0  0  0  0  0  0
    3.1378   -0.6522    0.7460 C   0  0  2  0  0  0  0  0  0  0  0  0
    2.9625   -1.3769    1.9016 O   0  0  0  0  0  0  0  0  0  0  0  0
    3.8014    0.6822    1.1051 C   0  0  2  0  0  0  0  0  0  0  0  0
    3.2544    1.0957    2.3018 O   0  0  0  0  0  0  0  0  0  0  0  0
    1.0801   -1.1164   -0.5136 N   0  0  0  0  0  0  0  0  0  0  0  0
    1.5475   -2.1732   -1.1890 C   0  0  0  0  0  0  0  0  0  0  0  0
    0.4815   -2.8414   -1.6741 N   0  0  0  0  0  0  0  0  0  0  0  0
   -0.6380   -2.2240   -1.3156 C   0  0  0  0  0  0  0  0  0  0  0  0
   -1.9793   -2.5054   -1.5580 C   0  0  0  0  0  0  0  0  0  0  0  0
   -2.3294   -3.6411   -2.3202 N   0  0  0  0  0  0  0  0  0  0  0  0
   -2.8829   -1.6575   -1.0386 N   0  0  0  0  0  0  0  0  0  0  0  0
   -2.5481   -0.5779   -0.3140 C   0  0  0  0  0  0  0  0  0  0  0  0
   -1.2398   -0.3413   -0.1025 N   0  0  0  0  0  0  0  0  0  0  0  0
   -0.2651   -1.1182   -0.5721 C   0  0  0  0  0  0  0  0  0  0  0  0
   -3.5767    0.3194    0.2325 C   0  0  0  0  0  0  0  0  0  0  0  0
   -3.2768    1.4208    0.9701 C   0  0  0  0  0  0  0  0  0  0  0  0
   -4.2746    2.2343    1.4628 C   0  0  0  0  0  0  0  0  0  0  0  0
   -5.6015    1.9575    1.2239 C   0  0  0  0  0  0  0  0  0  0  0  0
   -5.9052    0.8389    0.4750 C   0  0  0  0  0  0  0  0  0  0  0  0
   -4.8979    0.0289   -0.0150 C   0  0  0  0  0  0  0  0  0  0  0  0
    5.2381    2.7497    0.5846 H   0  0  0  0  0  0  0  0  0  0  0  0
    3.9398    2.4891   -1.8141 H   0  0  0  0  0  0  0  0  0  0  0  0
    4.7912    0.9821   -1.4338 H   0  0  0  0  0  0  0  0  0  0  0  0
    2.8266    2.5074    0.3760 H   0  0  0  0  0  0  0  0  0  0  0  0
    1.2833    0.3423    0.9943 H   0  0  0  0  0  0  0  0  0  0  0  0
    3.7726   -1.1317   -0.0091 H   0  0  0  0  0  0  0  0  0  0  0  0
    2.9124   -2.3521    1.7525 H   0  0  0  0  0  0  0  0  0  0  0  0
    4.8926    0.5987    1.1159 H   0  0  0  0  0  0  0  0  0  0  0  0
    3.3924    2.0429    2.5132 H   0  0  0  0  0  0  0  0  0  0  0  0
    2.5733   -2.4488   -1.3266 H   0  0  0  0  0  0  0  0  0  0  0  0
   -2.1879   -3.6161   -3.3453 H   0  0  0  0  0  0  0  0  0  0  0  0
   -2.7193   -4.4739   -1.8434 H   0  0  0  0  0  0  0  0  0  0  0  0
   -2.2258    1.6362    1.1567 H   0  0  0  0  0  0  0  0  0  0  0  0
   -4.0376    3.1098    2.0489 H   0  0  0  0  0  0  0  0  0  0  0  0
   -6.4032    2.5780    1.5980 H   0  0  0  0  0  0  0  0  0  0  0  0
   -6.9577    0.6336    0.2949 H   0  0  0  0  0  0  0  0  0  0  0  0
   -5.2006   -0.8402   -0.5998 H   0  0  0  0  0  0  0  0  0  0  0  0
  1  2  1  0
  2  3  1  0
  3  4  1  0
  4  5  1  0
  5  6  1  0
  6  7  1  0
  6  8  1  0
  8  9  1  0
  5 10  1  0
 10 11  1  0
 11 12  2  0
 12 13  1  0
 13 14  2  0
 14 15  1  0
 14 16  1  0
 16 17  2  0
 17 18  1  0
 18 19  2  0
 17 20  1  0
 20 21  2  0
 21 22  1  0
 22 23  2  0
 23 24  1  0
 24 25  2  0
  8  3  1  0
 19 10  1  0
 25 20  1  0
 19 13  1  0
  1 26  1  0
  2 27  1  0
  2 28  1  0
  3 29  1  1
  5 30  1  1
  6 31  1  6
  7 32  1  0
  8 33  1  1
  9 34  1  0
 11 35  1  0
 15 36  1  0
 15 37  1  0
 21 38  1  0
 22 39  1  0
 23 40  1  0
 24 41  1  0
 25 42  1  0
M  END
$$$$
[H]OC([H])([H])[C@@]1([H])O[C@@]([H])(n2c([H])nc3c(N([H])C([H])([H])c4c([H])c([H])c([H])c(Cl)c4[H])nc([H])nc32)[C@]([H])(O[H])[C@]1([H])O[H]
     RDKit          3D

 45 48  0  0  0  0  0  0  0  0999 V2000
   -6.4343   -0.8853    2.5138 O   0  0  0  0  0  0  0  0  0  0  0  0
   -5.0809   -1.1391    2.3740 C   0  0  0  0  0  0  0  0  0  0  0  0
   -4.4792   -0.2442    1.3132 C   0  0  1  0  0  0  0  0  0  0  0  0
   -3.1151   -0.4810    1.1543 O   0  0  0  0  0  0  0  0  0  0  0  0
   -2.8113    0.2453    0.0290 C   0  0  2  0  0  0  0  0  0  0  0  0
   -3.9384   -0.0095   -0.9617 C   0  0  2  0  0  0  0  0  0  0  0  0
   -4.3159    1.1731   -1.5780 O   0  0  0  0  0  0  0  0  0  0  0  0
   -5.0095   -0.5674   -0.0602 C   0  0  2  0  0  0  0  0  0  0  0  0
   -6.2304    0.0366   -0.3103 O   0  0  0  0  0  0  0  0  0  0  0  0
   -1.5240   -0.1166   -0.5460 N   0  0  0  0  0  0  0  0  0  0  0  0
   -1.2734   -1.2173   -1.2777 C   0  0  0  0  0  0  0  0  0  0  0  0
    0.0287   -1.2356   -1.6502 N   0  0  0  0  0  0  0  0  0  0  0  0
    0.6245   -0.1460   -1.1602 C   0  0  0  0  0  0  0  0  0  0  0  0
    1.9264    0.3037   -1.2511 C   0  0  0  0  0  0  0  0  0  0  0  0
    2.9277   -0.4010   -1.9586 N   0  0  0  0  0  0  0  0  0  0  0  0
    4.2930   -0.0263   -2.1070 C   0  0  0  0  0  0  0  0  0  0  0  0
    4.9462    0.0084   -0.7781 C   0  0  0  0  0  0  0  0  0  0  0  0
    5.3341    1.2163   -0.2373 C   0  0  0  0  0  0  0  0  0  0  0  0
    5.9431    1.2894    0.9925 C   0  0  0  0  0  0  0  0  0  0  0  0
    6.1530    0.1000    1.6705 C   0  0  0  0  0  0  0  0  0  0  0  0
    5.7711   -1.1159    1.1437 C   0  0  0  0  0  0  0  0  0  0  0  0
    6.0407   -2.6150    2.0083 Cl  0  0  0  0  0  0  0  0  0  0  0  0
    5.1598   -1.1894   -0.0910 C   0  0  0  0  0  0  0  0  0  0  0  0
    2.1773    1.4639   -0.6228 N   0  0  0  0  0  0  0  0  0  0  0  0
    1.2491    2.1632    0.0557 C   0  0  0  0  0  0  0  0  0  0  0  0
   -0.0128    1.7021    0.1286 N   0  0  0  0  0  0  0  0  0  0  0  0
   -0.3533    0.5435   -0.4739 C   0  0  0  0  0  0  0  0  0  0  0  0
   -6.6901    0.0460    2.2974 H   0  0  0  0  0  0  0  0  0  0  0  0
   -4.9161   -2.1980    2.0256 H   0  0  0  0  0  0  0  0  0  0  0  0
   -4.5322   -1.0341    3.3262 H   0  0  0  0  0  0  0  0  0  0  0  0
   -4.6305    0.8130    1.5764 H   0  0  0  0  0  0  0  0  0  0  0  0
   -2.8617    1.3225    0.2799 H   0  0  0  0  0  0  0  0  0  0  0  0
   -3.6693   -0.7918   -1.6973 H   0  0  0  0  0  0  0  0  0  0  0  0
   -3.7797    1.3374   -2.3846 H   0  0  0  0  0  0  0  0  0  0  0  0
   -5.0545   -1.6712   -0.1400 H   0  0  0  0  0  0  0  0  0  0  0  0
   -6.1360    0.9371   -0.7108 H   0  0  0  0  0  0  0  0  0  0  0  0
   -2.0186   -1.9781   -1.5285 H   0  0  0  0  0  0  0  0  0  0  0  0
    2.6124   -1.3071   -2.4254 H   0  0  0  0  0  0  0  0  0  0  0  0
    4.3799    0.9660   -2.6079 H   0  0  0  0  0  0  0  0  0  0  0  0
    4.8605   -0.7236   -2.7719 H   0  0  0  0  0  0  0  0  0  0  0  0
    5.1489    2.1261   -0.8062 H   0  0  0  0  0  0  0  0  0  0  0  0
    6.2512    2.2469    1.4222 H   0  0  0  0  0  0  0  0  0  0  0  0
    6.6247    0.0834    2.6383 H   0  0  0  0  0  0  0  0  0  0  0  0
    4.8462   -2.1235   -0.5368 H   0  0  0  0  0  0  0  0  0  0  0  0
    1.5688    3.0931    0.5263 H   0  0  0  0  0  0  0  0  0  0  0  0
  1  2  1  0
  2  3  1  0
  3  4  1  0
  4  5  1  0
  5  6  1  0
  6  7  1  0
  6  8  1  0
  8  9  1  0
  5 10  1  0
 10 11  1  0
 11 12  2  0
 12 13  1  0
 13 14  2  0
 14 15  1  0
 15 16  1  0
 16 17  1  0
 17 18  2  0
 18 19  1  0
 19 20  2  0
 20 21  1  0
 21 22  1  0
 21 23  2  0
 14 24  1  0
 24 25  2  0
 25 26  1  0
 26 27  2  0
  8  3  1  0
 27 10  1  0
 27 13  1  0
 23 17  1  0
  1 28  1  0
  2 29  1  0
  2 30  1  0
  3 31  1  1
  5 32  1  1
  6 33  1  6
  7 34  1  0
  8 35  1  1
  9 36  1  0
 11 37  1  0
 15 38  1  0
 16 39  1  0
 16 40  1  0
 18 41  1  0
 19 42  1  0
 20 43  1  0
 23 44  1  0
 25 45  1  0
M  END
$$$$
[H]OC([H])([H])[C@@]1([H])O[C@@]([H])(n2c([H])nc3c(N([H])[H])nc([H])nc32)[C@]([H])(O[H])[C@]1([H])O[H]
     RDKit          3D

 32 34  0  0  0  0  0  0  0  0999 V2000
   -3.1138    2.0980    1.5217 O   0  0  0  0  0  0  0  0  0  0  0  0
   -2.8354    0.7363    1.7185 C   0  0  0  0  0  0  0  0  0  0  0  0
   -2.4916    0.1609    0.3752 C   0  0  1  0  0  0  0  0  0  0  0  0
   -1.3772    0.8456   -0.1084 O   0  0  0  0  0  0  0  0  0  0  0  0
   -0.7944    0.0724   -1.0794 C   0  0  2  0  0  0  0  0  0  0  0  0
   -1.1613   -1.3716   -0.8016 C   0  0  2  0  0  0  0  0  0  0  0  0
   -1.9626   -1.8139   -1.8617 O   0  0  0  0  0  0  0  0  0  0  0  0
   -2.0313   -1.2767    0.4596 C   0  0  2  0  0  0  0  0  0  0  0  0
   -3.0583   -2.1873    0.3954 O   0  0  0  0  0  0  0  0  0  0  0  0
    0.6498    0.1867   -1.1117 N   0  0  0  0  0  0  0  0  0  0  0  0
    1.3752    0.0960   -2.2368 C   0  0  0  0  0  0  0  0  0  0  0  0
    2.6692    0.2489   -1.8874 N   0  0  0  0  0  0  0  0  0  0  0  0
    2.7431    0.4333   -0.5534 C   0  0  0  0  0  0  0  0  0  0  0  0
    3.8199    0.6364    0.3047 C   0  0  0  0  0  0  0  0  0  0  0  0
    5.1218    0.6704   -0.2407 N   0  0  0  0  0  0  0  0  0  0  0  0
    3.5963    0.7952    1.6302 N   0  0  0  0  0  0  0  0  0  0  0  0
    2.3282    0.7505    2.0755 C   0  0  0  0  0  0  0  0  0  0  0  0
    1.2656    0.5557    1.2707 N   0  0  0  0  0  0  0  0  0  0  0  0
    1.4578    0.3938   -0.0589 C   0  0  0  0  0  0  0  0  0  0  0  0
   -4.1016    2.1773    1.3695 H   0  0  0  0  0  0  0  0  0  0  0  0
   -3.6869    0.2137    2.2031 H   0  0  0  0  0  0  0  0  0  0  0  0
   -1.9126    0.7106    2.3444 H   0  0  0  0  0  0  0  0  0  0  0  0
   -3.3580    0.2224   -0.2822 H   0  0  0  0  0  0  0  0  0  0  0  0
   -1.2108    0.4190   -2.0663 H   0  0  0  0  0  0  0  0  0  0  0  0
   -0.2793   -1.9936   -0.6361 H   0  0  0  0  0  0  0  0  0  0  0  0
   -1.3607   -1.9693   -2.6245 H   0  0  0  0  0  0  0  0  0  0  0  0
   -1.4016   -1.4777    1.3471 H   0  0  0  0  0  0  0  0  0  0  0  0
   -3.2871   -2.5112   -0.4904 H   0  0  0  0  0  0  0  0  0  0  0  0
    1.0193   -0.0702   -3.2618 H   0  0  0  0  0  0  0  0  0  0  0  0
    5.5910   -0.2124   -0.4947 H   0  0  0  0  0  0  0  0  0  0  0  0
    5.5923    1.5761   -0.3804 H   0  0  0  0  0  0  0  0  0  0  0  0
    2.1950    0.8846    3.1607 H   0  0  0  0  0  0  0  0  0  0  0  0
  1  2  1  0
  2  3  1  0
  3  4  1  0
  4  5  1  0
  5  6  1  0
  6  7  1  0
  6  8  1  0
  8  9  1  0
  5 10  1  0
 10 11  1  0
 11 12  2  0
 12 13  1  0
 13 14  2  0
 14 15  1  0
 14 16  1  0
 16 17  2  0
 17 18  1  0
 18 19  2  0
  8  3  1  0
 19 10  1  0
 19 13  1  0
  1 20  1  0
  2 21  1  0
  2 22  1  0
  3 23  1  6
  5 24  1  6
  6 25  1  1
  7 26  1  0
  8 27  1  1
  9 28  1  0
 11 29  1  0
 15 30  1  0
 15 31  1  0
 17 32  1  0
M  END
$$$$
[H]OC([H])([H])[C@@]1([H])O[C@@]([H])(n2c([H])nc3c(N([H])[H])nc(-c4c([H])c([H])c([H])c([H])c4[H])c([H])c32)[C@]([H])(O[H])[C@]1([H])O[H]
     RDKit          3D

 43 46  0  0  0  0  0  0  0  0999 V2000
    5.7820    2.0690   -0.8399 O   0  0  0  0  0  0  0  0  0  0  0  0
    4.9821    1.0535   -1.3521 C   0  0  0  0  0  0  0  0  0  0  0  0
    3.5878    1.2341   -0.7952 C   0  0  1  0  0  0  0  0  0  0  0  0
    2.7054    0.2829   -1.2347 O   0  0  0  0  0  0  0  0  0  0  0  0
    1.8714   -0.0145   -0.1617 C   0  0  2  0  0  0  0  0  0  0  0  0
    2.9203   -0.1776    0.9488 C   0  0  2  0  0  0  0  0  0  0  0  0
    2.3517   -0.2415    2.1937 O   0  0  0  0  0  0  0  0  0  0  0  0
    3.6847    1.1177    0.7110 C   0  0  2  0  0  0  0  0  0  0  0  0
    2.9273    2.1424    1.2536 O   0  0  0  0  0  0  0  0  0  0  0  0
    1.1269   -1.2276   -0.3557 N   0  0  0  0  0  0  0  0  0  0  0  0
    1.5676   -2.4562   -0.5762 C   0  0  0  0  0  0  0  0  0  0  0  0
    0.5265   -3.2984   -0.7003 N   0  0  0  0  0  0  0  0  0  0  0  0
   -0.6218   -2.5792   -0.5532 C   0  0  0  0  0  0  0  0  0  0  0  0
   -1.9581   -2.9126   -0.5837 C   0  0  0  0  0  0  0  0  0  0  0  0
   -2.3428   -4.2690   -0.8096 N   0  0  0  0  0  0  0  0  0  0  0  0
   -2.8631   -1.9376   -0.3975 N   0  0  0  0  0  0  0  0  0  0  0  0
   -2.5440   -0.6471   -0.1816 C   0  0  0  0  0  0  0  0  0  0  0  0
   -1.2139   -0.3266   -0.1532 C   0  0  0  0  0  0  0  0  0  0  0  0
   -0.2229   -1.2898   -0.3392 C   0  0  0  0  0  0  0  0  0  0  0  0
   -3.5990    0.3503    0.0115 C   0  0  0  0  0  0  0  0  0  0  0  0
   -3.3356    1.6811    0.2355 C   0  0  0  0  0  0  0  0  0  0  0  0
   -4.3928    2.5825    0.4121 C   0  0  0  0  0  0  0  0  0  0  0  0
   -5.7077    2.1995    0.3727 C   0  0  0  0  0  0  0  0  0  0  0  0
   -5.9769    0.8657    0.1483 C   0  0  0  0  0  0  0  0  0  0  0  0
   -4.9419   -0.0268   -0.0264 C   0  0  0  0  0  0  0  0  0  0  0  0
    5.2872    2.9154   -0.7096 H   0  0  0  0  0  0  0  0  0  0  0  0
    4.9376    1.2149   -2.4627 H   0  0  0  0  0  0  0  0  0  0  0  0
    5.4167    0.0857   -1.0928 H   0  0  0  0  0  0  0  0  0  0  0  0
    3.2320    2.2345   -1.1189 H   0  0  0  0  0  0  0  0  0  0  0  0
    1.2417    0.8261    0.1252 H   0  0  0  0  0  0  0  0  0  0  0  0
    3.5801   -1.0466    0.7124 H   0  0  0  0  0  0  0  0  0  0  0  0
    2.8107   -0.9737    2.6942 H   0  0  0  0  0  0  0  0  0  0  0  0
    4.7082    1.0757    1.0824 H   0  0  0  0  0  0  0  0  0  0  0  0
    2.9173    2.9393    0.6577 H   0  0  0  0  0  0  0  0  0  0  0  0
    2.6223   -2.7251   -0.6438 H   0  0  0  0  0  0  0  0  0  0  0  0
   -1.7604   -4.9268   -1.3781 H   0  0  0  0  0  0  0  0  0  0  0  0
   -3.2420   -4.5727   -0.3749 H   0  0  0  0  0  0  0  0  0  0  0  0
   -0.8798    0.6706    0.0118 H   0  0  0  0  0  0  0  0  0  0  0  0
   -2.3203    2.0483    0.2783 H   0  0  0  0  0  0  0  0  0  0  0  0
   -4.1884    3.6348    0.5893 H   0  0  0  0  0  0  0  0  0  0  0  0
   -6.4997    2.9225    0.5132 H   0  0  0  0  0  0  0  0  0  0  0  0
   -7.0190    0.5690    0.1182 H   0  0  0  0  0  0  0  0  0  0  0  0
   -5.1575   -1.0661   -0.2011 H   0  0  0  0  0  0  0  0  0  0  0  0
  1  2  1  0
  2  3  1  0
  3  4  1  0
  4  5  1  0
  5  6  1  0
  6  7  1  0
  6  8  1  0
  8  9  1  0
  5 10  1  0
 10 11  1  0
 11 12  2  0
 12 13  1  0
 13 14  2  0
 14 15  1  0
 14 16  1  0
 16 17  2  0
 17 18  1  0
 18 19  2  0
 17 20  1  0
 20 21  2  0
 21 22  1  0
 22 23  2  0
 23 24  1  0
 24 25  2  0
  8  3  1  0
 19 10  1  0
 25 20  1  0
 19 13  1  0
  1 26  1  0
  2 27  1  0
  2 28  1  0
  3 29  1  1
  5 30  1  1
  6 31  1  6
  7 32  1  0
  8 33  1  6
  9 34  1  0
 11 35  1  0
 15 36  1  0
 15 37  1  0
 18 38  1  0
 21 39  1  0
 22 40  1  0
 23 41  1  0
 24 42  1  0
 25 43  1  0
M  END
$$$$
[H]OC([H])([H])[C@@]1([H])O[C@@]([H])(n2c([H])nc3c(N([H])C([H])([H])c4c([H])c([H])c([H])c([H])c4[H])nc([H])nc32)[C@]([H])(O[H])[C@]1([H])O[H]
     RDKit          3D

 45 48  0  0  0  0  0  0  0  0999 V2000
   -5.1765    2.0805    1.4665 O   0  0  0  0  0  0  0  0  0  0  0  0
   -5.3802    0.7211    1.4119 C   0  0  0  0  0  0  0  0  0  0  0  0
   -5.0454    0.1768    0.0264 C   0  0  1  0  0  0  0  0  0  0  0  0
   -3.7195    0.4487   -0.2458 O   0  0  0  0  0  0  0  0  0  0  0  0
   -3.2286   -0.6152   -0.9944 C   0  0  2  0  0  0  0  0  0  0  0  0
   -3.8098   -1.8022   -0.2545 C   0  0  2  0  0  0  0  0  0  0  0  0
   -3.7755   -2.9657   -0.9863 O   0  0  0  0  0  0  0  0  0  0  0  0
   -5.2408   -1.3022   -0.0265 C   0  0  2  0  0  0  0  0  0  0  0  0
   -5.9716   -1.6013   -1.1732 O   0  0  0  0  0  0  0  0  0  0  0  0
   -1.7659   -0.6141   -0.9338 N   0  0  0  0  0  0  0  0  0  0  0  0
   -0.9592   -1.5567   -1.4498 C   0  0  0  0  0  0  0  0  0  0  0  0
    0.3248   -1.2376   -1.2113 N   0  0  0  0  0  0  0  0  0  0  0  0
    0.3517   -0.0797   -0.5356 C   0  0  0  0  0  0  0  0  0  0  0  0
    1.3977    0.7054   -0.0353 C   0  0  0  0  0  0  0  0  0  0  0  0
    2.7546    0.2863   -0.2239 N   0  0  0  0  0  0  0  0  0  0  0  0
    3.7697    1.1565    0.3247 C   0  0  0  0  0  0  0  0  0  0  0  0
    5.1458    0.6607    0.1184 C   0  0  0  0  0  0  0  0  0  0  0  0
    5.4315   -0.6666   -0.0279 C   0  0  0  0  0  0  0  0  0  0  0  0
    6.7327   -1.1366   -0.2282 C   0  0  0  0  0  0  0  0  0  0  0  0
    7.7437   -0.2011   -0.2750 C   0  0  0  0  0  0  0  0  0  0  0  0
    7.4915    1.1295   -0.1325 C   0  0  0  0  0  0  0  0  0  0  0  0
    6.2126    1.5683    0.0624 C   0  0  0  0  0  0  0  0  0  0  0  0
    1.0633    1.8299    0.6061 N   0  0  0  0  0  0  0  0  0  0  0  0
   -0.2350    2.1908    0.7631 C   0  0  0  0  0  0  0  0  0  0  0  0
   -1.2319    1.4306    0.2793 N   0  0  0  0  0  0  0  0  0  0  0  0
   -0.9625    0.2984   -0.3692 C   0  0  0  0  0  0  0  0  0  0  0  0
   -6.0349    2.5664    1.3759 H   0  0  0  0  0  0  0  0  0  0  0  0
   -6.4750    0.5188    1.5779 H   0  0  0  0  0  0  0  0  0  0  0  0
   -4.7849    0.2344    2.1948 H   0  0  0  0  0  0  0  0  0  0  0  0
   -5.6568    0.7143   -0.7154 H   0  0  0  0  0  0  0  0  0  0  0  0
   -3.5875   -0.6149   -2.0387 H   0  0  0  0  0  0  0  0  0  0  0  0
   -3.2718   -1.8750    0.7225 H   0  0  0  0  0  0  0  0  0  0  0  0
   -3.5202   -3.7172   -0.3628 H   0  0  0  0  0  0  0  0  0  0  0  0
   -5.6765   -1.6894    0.8935 H   0  0  0  0  0  0  0  0  0  0  0  0
   -5.8361   -0.8837   -1.8655 H   0  0  0  0  0  0  0  0  0  0  0  0
   -1.2464   -2.4633   -1.9898 H   0  0  0  0  0  0  0  0  0  0  0  0
    2.9458   -0.6052   -0.7387 H   0  0  0  0  0  0  0  0  0  0  0  0
    3.5272    1.2746    1.4094 H   0  0  0  0  0  0  0  0  0  0  0  0
    3.6208    2.1619   -0.1553 H   0  0  0  0  0  0  0  0  0  0  0  0
    4.6227   -1.4064    0.0142 H   0  0  0  0  0  0  0  0  0  0  0  0
    6.9332   -2.1833   -0.3406 H   0  0  0  0  0  0  0  0  0  0  0  0
    8.7558   -0.5366   -0.4283 H   0  0  0  0  0  0  0  0  0  0  0  0
    8.2972    1.8728   -0.1700 H   0  0  0  0  0  0  0  0  0  0  0  0
    5.9728    2.6244    0.1804 H   0  0  0  0  0  0  0  0  0  0  0  0
   -0.5027    3.1028    1.2834 H   0  0  0  0  0  0  0  0  0  0  0  0
  1  2  1  0
  2  3  1  0
  3  4  1  0
  4  5  1  0
  5  6  1  0
  6  7  1  0
  6  8  1  0
  8  9  1  0
  5 10  1  0
 10 11  1  0
 11 12  2  0
 12 13  1  0
 13 14  2  0
 14 15  1  0
 15 16  1  0
 16 17  1  0
 17 18  2  0
 18 19  1  0
 19 20  2  0
 20 21  1  0
 21 22  2  0
 14 23  1  0
 23 24  2  0
 24 25  1  0
 25 26  2  0
  8  3  1  0
 26 10  1  0
 26 13  1  0
 22 17  1  0
  1 27  1  0
  2 28  1  0
  2 29  1  0
  3 30  1  6
  5 31  1  6
  6 32  1  1
  7 33  1  0
  8 34  1  1
  9 35  1  0
 11 36  1  0
 15 37  1  0
 16 38  1  0
 16 39  1  0
 18 40  1  0
 19 41  1  0
 20 42  1  0
 21 43  1  0
 22 44  1  0
 24 45  1  0
M  END
$$$$
[H]OC([H])([H])[C@@]1([H])O[C@@]([H])(n2c([H])nc3c(N([H])[H])nc(N4C([H])([H])C([H])([H])OC([H])([H])C4([H])[H])nc32)[C@]([H])(O[H])[C@]1([H])O[H]
     RDKit          3D

 45 48  0  0  0  0  0  0  0  0999 V2000
    5.1633   -0.4524    2.5107 O   0  0  0  0  0  0  0  0  0  0  0  0
    4.1898   -1.0554    1.7274 C   0  0  0  0  0  0  0  0  0  0  0  0
    3.7243   -0.0894    0.6591 C   0  0  1  0  0  0  0  0  0  0  0  0
    2.7438   -0.6654   -0.1492 O   0  0  0  0  0  0  0  0  0  0  0  0
    2.3344    0.4484   -0.8924 C   0  0  2  0  0  0  0  0  0  0  0  0
    1.9214    1.4030    0.1855 C   0  0  2  0  0  0  0  0  0  0  0  0
    2.0838    2.7255   -0.2342 O   0  0  0  0  0  0  0  0  0  0  0  0
    2.9711    1.0790    1.2605 C   0  0  2  0  0  0  0  0  0  0  0  0
    3.8046    2.1762    1.4675 O   0  0  0  0  0  0  0  0  0  0  0  0
    1.3528    0.1620   -1.8709 N   0  0  0  0  0  0  0  0  0  0  0  0
    1.5715    0.2008   -3.2012 C   0  0  0  0  0  0  0  0  0  0  0  0
    0.4559   -0.1181   -3.8814 N   0  0  0  0  0  0  0  0  0  0  0  0
   -0.4994   -0.3670   -2.9735 C   0  0  0  0  0  0  0  0  0  0  0  0
   -1.8313   -0.7363   -3.0705 C   0  0  0  0  0  0  0  0  0  0  0  0
   -2.3884   -0.9108   -4.3494 N   0  0  0  0  0  0  0  0  0  0  0  0
   -2.5117   -0.9058   -1.9254 N   0  0  0  0  0  0  0  0  0  0  0  0
   -1.9447   -0.7298   -0.7189 C   0  0  0  0  0  0  0  0  0  0  0  0
   -0.6515   -0.3714   -0.6344 N   0  0  0  0  0  0  0  0  0  0  0  0
    0.0584   -0.1932   -1.7448 C   0  0  0  0  0  0  0  0  0  0  0  0
   -2.7292   -0.9272    0.4700 N   0  0  0  0  0  0  0  0  0  0  0  0
   -2.1752   -0.7534    1.7809 C   0  0  0  0  0  0  0  0  0  0  0  0
   -3.1655   -0.1749    2.7648 C   0  0  0  0  0  0  0  0  0  0  0  0
   -4.4616   -0.5697    2.5382 O   0  0  0  0  0  0  0  0  0  0  0  0
   -4.9057   -0.3478    1.2484 C   0  0  0  0  0  0  0  0  0  0  0  0
   -4.1214   -1.3134    0.3505 C   0  0  0  0  0  0  0  0  0  0  0  0
    4.7659    0.3832    2.8595 H   0  0  0  0  0  0  0  0  0  0  0  0
    3.2790   -1.2795    2.3503 H   0  0  0  0  0  0  0  0  0  0  0  0
    4.5030   -2.0269    1.2973 H   0  0  0  0  0  0  0  0  0  0  0  0
    4.5445    0.2316   -0.0041 H   0  0  0  0  0  0  0  0  0  0  0  0
    3.2527    0.8582   -1.3572 H   0  0  0  0  0  0  0  0  0  0  0  0
    0.9542    1.2118    0.6392 H   0  0  0  0  0  0  0  0  0  0  0  0
    2.8906    2.7341   -0.8258 H   0  0  0  0  0  0  0  0  0  0  0  0
    2.5188    0.7416    2.1923 H   0  0  0  0  0  0  0  0  0  0  0  0
    3.3847    2.7120    2.2034 H   0  0  0  0  0  0  0  0  0  0  0  0
    2.5192    0.4542   -3.7023 H   0  0  0  0  0  0  0  0  0  0  0  0
   -2.3932   -0.1114   -5.0142 H   0  0  0  0  0  0  0  0  0  0  0  0
   -2.7915   -1.8219   -4.6338 H   0  0  0  0  0  0  0  0  0  0  0  0
   -1.3140   -0.0595    1.7282 H   0  0  0  0  0  0  0  0  0  0  0  0
   -1.7490   -1.7210    2.1765 H   0  0  0  0  0  0  0  0  0  0  0  0
   -2.8715   -0.5639    3.7691 H   0  0  0  0  0  0  0  0  0  0  0  0
   -3.0608    0.9398    2.8406 H   0  0  0  0  0  0  0  0  0  0  0  0
   -5.9815   -0.5052    1.1870 H   0  0  0  0  0  0  0  0  0  0  0  0
   -4.6822    0.6789    0.8971 H   0  0  0  0  0  0  0  0  0  0  0  0
   -4.4785   -1.2416   -0.6985 H   0  0  0  0  0  0  0  0  0  0  0  0
   -4.2794   -2.3254    0.7780 H   0  0  0  0  0  0  0  0  0  0  0  0
  1  2  1  0
  2  3  1  0
  3  4  1  0
  4  5  1  0
  5  6  1  0
  6  7  1  0
  6  8  1  0
  8  9  1  0
  5 10  1  0
 10 11  1  0
 11 12  2  0
 12 13  1  0
 13 14  2  0
 14 15  1  0
 14 16  1  0
 16 17  2  0
 17 18  1  0
 18 19  2  0
 17 20  1  0
 20 21  1  0
 21 22  1  0
 22 23  1  0
 23 24  1  0
 24 25  1  0
  8  3  1  0
 19 10  1  0
 25 20  1  0
 19 13  1  0
  1 26  1  0
  2 27  1  0
  2 28  1  0
  3 29  1  6
  5 30  1  6
  6 31  1  1
  7 32  1  0
  8 33  1  1
  9 34  1  0
 11 35  1  0
 15 36  1  0
 15 37  1  0
 21 38  1  0
 21 39  1  0
 22 40  1  0
 22 41  1  0
 24 42  1  0
 24 43  1  0
 25 44  1  0
 25 45  1  0
M  END
$$$$
[H]OC([H])([H])[C@@]1([H])O[C@@]([H])(n2c([H])nc3c(N([H])[H])nc([H])nc32)[C@@]([H])(O[H])[C@]1([H])O[H]
     RDKit          3D

 32 34  0  0  0  0  0  0  0  0999 V2000
   -3.0229    2.0526    1.8595 O   0  0  0  0  0  0  0  0  0  0  0  0
   -2.7318    0.6829    1.8726 C   0  0  0  0  0  0  0  0  0  0  0  0
   -2.4836    0.2695    0.4553 C   0  0  1  0  0  0  0  0  0  0  0  0
   -1.4283    0.9823   -0.0476 O   0  0  0  0  0  0  0  0  0  0  0  0
   -0.8808    0.2968   -1.1066 C   0  0  2  0  0  0  0  0  0  0  0  0
   -1.3890   -1.1173   -1.0655 C   0  0  1  0  0  0  0  0  0  0  0  0
   -0.4067   -2.0695   -1.2066 O   0  0  0  0  0  0  0  0  0  0  0  0
   -2.0402   -1.1650    0.3228 C   0  0  2  0  0  0  0  0  0  0  0  0
   -3.0752   -2.0658    0.2832 O   0  0  0  0  0  0  0  0  0  0  0  0
    0.5561    0.3319   -1.1219 N   0  0  0  0  0  0  0  0  0  0  0  0
    1.3036    0.3194   -2.2382 C   0  0  0  0  0  0  0  0  0  0  0  0
    2.6003    0.3599   -1.9335 N   0  0  0  0  0  0  0  0  0  0  0  0
    2.6845    0.3996   -0.5821 C   0  0  0  0  0  0  0  0  0  0  0  0
    3.7687    0.4502    0.2741 C   0  0  0  0  0  0  0  0  0  0  0  0
    5.0703    0.4672   -0.2727 N   0  0  0  0  0  0  0  0  0  0  0  0
    3.5390    0.4814    1.6012 N   0  0  0  0  0  0  0  0  0  0  0  0
    2.2728    0.4625    2.0473 C   0  0  0  0  0  0  0  0  0  0  0  0
    1.2105    0.4133    1.2219 N   0  0  0  0  0  0  0  0  0  0  0  0
    1.3960    0.3813   -0.0945 C   0  0  0  0  0  0  0  0  0  0  0  0
   -3.9902    2.1361    1.5803 H   0  0  0  0  0  0  0  0  0  0  0  0
   -3.5844    0.1507    2.3416 H   0  0  0  0  0  0  0  0  0  0  0  0
   -1.8196    0.5511    2.4849 H   0  0  0  0  0  0  0  0  0  0  0  0
   -3.4145    0.3810   -0.1205 H   0  0  0  0  0  0  0  0  0  0  0  0
   -1.2557    0.7913   -2.0411 H   0  0  0  0  0  0  0  0  0  0  0  0
   -2.2184   -1.2365   -1.8036 H   0  0  0  0  0  0  0  0  0  0  0  0
   -0.3830   -2.3567   -2.1591 H   0  0  0  0  0  0  0  0  0  0  0  0
   -1.3267   -1.4745    1.0982 H   0  0  0  0  0  0  0  0  0  0  0  0
   -3.1049   -2.5777   -0.5711 H   0  0  0  0  0  0  0  0  0  0  0  0
    0.9148    0.2811   -3.2677 H   0  0  0  0  0  0  0  0  0  0  0  0
    5.4917   -0.4133   -0.6149 H   0  0  0  0  0  0  0  0  0  0  0  0
    5.5937    1.3447   -0.3302 H   0  0  0  0  0  0  0  0  0  0  0  0
    2.1537    0.4897    3.1346 H   0  0  0  0  0  0  0  0  0  0  0  0
  1  2  1  0
  2  3  1  0
  3  4  1  0
  4  5  1  0
  5  6  1  0
  6  7  1  0
  6  8  1  0
  8  9  1  0
  5 10  1  0
 10 11  1  0
 11 12  2  0
 12 13  1  0
 13 14  2  0
 14 15  1  0
 14 16  1  0
 16 17  2  0
 17 18  1  0
 18 19  2  0
  8  3  1  0
 19 10  1  0
 19 13  1  0
  1 20  1  0
  2 21  1  0
  2 22  1  0
  3 23  1  6
  5 24  1  6
  6 25  1  6
  7 26  1  0
  8 27  1  1
  9 28  1  0
 11 29  1  0
 15 30  1  0
 15 31  1  0
 17 32  1  0
M  END
$$$$
[H]OC([H])([H])[C@@]1([H])O[C@@]([H])(n2c([H])nc3c(N([H])C([H])([H])c4c([H])c([H])c([H])c([H])c4[H])nc([H])nc32)[C@@]([H])(O[H])[C@]1([H])O[H]
     RDKit          3D

 45 48  0  0  0  0  0  0  0  0999 V2000
   -5.6270    1.5903    1.7774 O   0  0  0  0  0  0  0  0  0  0  0  0
   -5.8359    0.2789    1.4037 C   0  0  0  0  0  0  0  0  0  0  0  0
   -5.0559   -0.0188    0.1426 C   0  0  1  0  0  0  0  0  0  0  0  0
   -3.6890    0.1643    0.3037 O   0  0  0  0  0  0  0  0  0  0  0  0
   -3.1645   -0.5184   -0.7838 C   0  0  2  0  0  0  0  0  0  0  0  0
   -3.8387   -1.8717   -0.6467 C   0  0  1  0  0  0  0  0  0  0  0  0
   -3.2895   -2.5028    0.4808 O   0  0  0  0  0  0  0  0  0  0  0  0
   -5.2742   -1.4212   -0.3429 C   0  0  2  0  0  0  0  0  0  0  0  0
   -5.9339   -1.3424   -1.5845 O   0  0  0  0  0  0  0  0  0  0  0  0
   -1.7337   -0.6038   -0.7791 N   0  0  0  0  0  0  0  0  0  0  0  0
   -0.9359   -1.6122   -1.2253 C   0  0  0  0  0  0  0  0  0  0  0  0
    0.3400   -1.2829   -1.0317 N   0  0  0  0  0  0  0  0  0  0  0  0
    0.4111   -0.0593   -0.4580 C   0  0  0  0  0  0  0  0  0  0  0  0
    1.4561    0.7551   -0.0451 C   0  0  0  0  0  0  0  0  0  0  0  0
    2.8037    0.2928   -0.2191 N   0  0  0  0  0  0  0  0  0  0  0  0
    3.8463    1.1836    0.2294 C   0  0  0  0  0  0  0  0  0  0  0  0
    5.2096    0.6618    0.0525 C   0  0  0  0  0  0  0  0  0  0  0  0
    5.4985   -0.6672   -0.0698 C   0  0  0  0  0  0  0  0  0  0  0  0
    6.8072   -1.1374   -0.2430 C   0  0  0  0  0  0  0  0  0  0  0  0
    7.8388   -0.2253   -0.2912 C   0  0  0  0  0  0  0  0  0  0  0  0
    7.5879    1.1253   -0.1713 C   0  0  0  0  0  0  0  0  0  0  0  0
    6.2928    1.5442   -0.0032 C   0  0  0  0  0  0  0  0  0  0  0  0
    1.1596    1.9294    0.4942 N   0  0  0  0  0  0  0  0  0  0  0  0
   -0.1025    2.3366    0.6450 C   0  0  0  0  0  0  0  0  0  0  0  0
   -1.0991    1.5392    0.2416 N   0  0  0  0  0  0  0  0  0  0  0  0
   -0.9111    0.3305   -0.3171 C   0  0  0  0  0  0  0  0  0  0  0  0
   -6.3218    2.1578    1.3328 H   0  0  0  0  0  0  0  0  0  0  0  0
   -5.5321   -0.4589    2.1752 H   0  0  0  0  0  0  0  0  0  0  0  0
   -6.8991    0.0983    1.1781 H   0  0  0  0  0  0  0  0  0  0  0  0
   -5.3818    0.7470   -0.6185 H   0  0  0  0  0  0  0  0  0  0  0  0
   -3.5711   -0.0489   -1.7050 H   0  0  0  0  0  0  0  0  0  0  0  0
   -3.7772   -2.4830   -1.5477 H   0  0  0  0  0  0  0  0  0  0  0  0
   -3.4675   -1.8620    1.2379 H   0  0  0  0  0  0  0  0  0  0  0  0
   -5.7768   -2.0805    0.3626 H   0  0  0  0  0  0  0  0  0  0  0  0
   -5.7442   -0.4501   -2.0131 H   0  0  0  0  0  0  0  0  0  0  0  0
   -1.2937   -2.5155   -1.6583 H   0  0  0  0  0  0  0  0  0  0  0  0
    2.9688   -0.6374   -0.6516 H   0  0  0  0  0  0  0  0  0  0  0  0
    3.6261    1.4004    1.3074 H   0  0  0  0  0  0  0  0  0  0  0  0
    3.7139    2.1548   -0.3220 H   0  0  0  0  0  0  0  0  0  0  0  0
    4.7071   -1.4058   -0.0317 H   0  0  0  0  0  0  0  0  0  0  0  0
    6.9979   -2.2011   -0.3366 H   0  0  0  0  0  0  0  0  0  0  0  0
    8.8470   -0.5943   -0.4251 H   0  0  0  0  0  0  0  0  0  0  0  0
    8.4324    1.8010   -0.2157 H   0  0  0  0  0  0  0  0  0  0  0  0
    6.0889    2.6192    0.0926 H   0  0  0  0  0  0  0  0  0  0  0  0
   -0.3774    3.2907    1.0821 H   0  0  0  0  0  0  0  0  0  0  0  0
  1  2  1  0
  2  3  1  0
  3  4  1  0
  4  5  1  0
  5  6  1  0
  6  7  1  0
  6  8  1  0
  8  9  1  0
  5 10  1  0
 10 11  1  0
 11 12  2  0
 12 13  1  0
 13 14  2  0
 14 15  1  0
 15 16  1  0
 16 17  1  0
 17 18  2  0
 18 19  1  0
 19 20  2  0
 20 21  1  0
 21 22  2  0
 14 23  1  0
 23 24  2  0
 24 25  1  0
 25 26  2  0
  8  3  1  0
 26 10  1  0
 26 13  1  0
 22 17  1  0
  1 27  1  0
  2 28  1  0
  2 29  1  0
  3 30  1  6
  5 31  1  6
  6 32  1  6
  7 33  1  0
  8 34  1  1
  9 35  1  0
 11 36  1  0
 15 37  1  0
 16 38  1  0
 16 39  1  0
 18 40  1  0
 19 41  1  0
 20 42  1  0
 21 43  1  0
 22 44  1  0
 24 45  1  0
M  END
$$$$
[H]OC([H])([H])[C@@]1([H])O[C@@]([H])(O[H])[C@@]([H])(O[H])[C@@]([H])(O[H])[C@]1([H])O[H]
     RDKit          3D

 24 24  0  0  0  0  0  0  0  0999 V2000
    3.2279    0.1282   -0.5157 O   0  0  0  0  0  0  0  0  0  0  0  0
    2.1897    1.0439   -0.5389 C   0  0  0  0  0  0  0  0  0  0  0  0
    0.9316    0.5128    0.1110 C   0  0  1  0  0  0  0  0  0  0  0  0
   -0.0299    1.4840    0.0386 O   0  0  0  0  0  0  0  0  0  0  0  0
   -1.2337    1.1511    0.6293 C   0  0  1  0  0  0  0  0  0  0  0  0
   -2.0939    2.2350    0.5407 O   0  0  0  0  0  0  0  0  0  0  0  0
   -1.7796   -0.0594   -0.1259 C   0  0  1  0  0  0  0  0  0  0  0  0
   -1.6018    0.1872   -1.4844 O   0  0  0  0  0  0  0  0  0  0  0  0
   -0.7983   -1.1826    0.2296 C   0  0  1  0  0  0  0  0  0  0  0  0
   -1.2563   -2.4175   -0.1192 O   0  0  0  0  0  0  0  0  0  0  0  0
    0.4967   -0.8010   -0.4993 C   0  0  2  0  0  0  0  0  0  0  0  0
    1.4061   -1.7930   -0.2433 O   0  0  0  0  0  0  0  0  0  0  0  0
    3.3793   -0.2533    0.3970 H   0  0  0  0  0  0  0  0  0  0  0  0
    2.0134    1.3086   -1.6023 H   0  0  0  0  0  0  0  0  0  0  0  0
    2.4877    1.9817   -0.0284 H   0  0  0  0  0  0  0  0  0  0  0  0
    1.1538    0.3187    1.1793 H   0  0  0  0  0  0  0  0  0  0  0  0
   -1.0745    0.9099    1.6979 H   0  0  0  0  0  0  0  0  0  0  0  0
   -1.8365    2.8788    1.2457 H   0  0  0  0  0  0  0  0  0  0  0  0
   -2.8063   -0.2998    0.1454 H   0  0  0  0  0  0  0  0  0  0  0  0
   -2.2931   -0.2317   -2.0509 H   0  0  0  0  0  0  0  0  0  0  0  0
   -0.5587   -1.0728    1.3154 H   0  0  0  0  0  0  0  0  0  0  0  0
   -1.3579   -2.9625    0.7231 H   0  0  0  0  0  0  0  0  0  0  0  0
    0.2640   -0.7087   -1.5719 H   0  0  0  0  0  0  0  0  0  0  0  0
    1.1704   -2.3573    0.5271 H   0  0  0  0  0  0  0  0  0  0  0  0
  1  2  1  0
  2  3  1  0
  3  4  1  0
  4  5  1  0
  5  6  1  0
  5  7  1  0
  7  8  1  0
  7  9  1  0
  9 10  1  0
  9 11  1  0
 11 12  1  0
 11  3  1  0
  1 13  1  0
  2 14  1  0
  2 15  1  0
  3 16  1  1
  5 17  1  1
  6 18  1  0
  7 19  1  6
  8 20  1  0
  9 21  1  1
 10 22  1  0
 11 23  1  6
 12 24  1  0
M  END
$$$$
[H]OC([H])([H])[C@@]1([H])O[C@@]([H])(O[H])[C@]([H])(O[H])[C@@]([H])(O[H])[C@]1([H])O[H]
     RDKit          3D

 24 24  0  0  0  0  0  0  0  0999 V2000
    3.2405   -0.0435   -0.5603 O   0  0  0  0  0  0  0  0  0  0  0  0
    2.2775    0.9585   -0.5181 C   0  0  0  0  0  0  0  0  0  0  0  0
    1.0449    0.4926    0.2704 C   0  0  1  0  0  0  0  0  0  0  0  0
    0.1527    1.5195    0.2681 O   0  0  0  0  0  0  0  0  0  0  0  0
   -1.1346    1.2199    0.5951 C   0  0  1  0  0  0  0  0  0  0  0  0
   -1.9062    2.3820    0.3878 O   0  0  0  0  0  0  0  0  0  0  0  0
   -1.6720    0.0985   -0.3007 C   0  0  2  0  0  0  0  0  0  0  0  0
   -3.0108   -0.1171   -0.1238 O   0  0  0  0  0  0  0  0  0  0  0  0
   -0.8297   -1.1283    0.0694 C   0  0  1  0  0  0  0  0  0  0  0  0
   -1.2817   -2.2672   -0.5415 O   0  0  0  0  0  0  0  0  0  0  0  0
    0.5815   -0.7778   -0.3442 C   0  0  2  0  0  0  0  0  0  0  0  0
    1.4138   -1.8234    0.0541 O   0  0  0  0  0  0  0  0  0  0  0  0
    3.5793   -0.2721    0.3371 H   0  0  0  0  0  0  0  0  0  0  0  0
    1.9907    1.1618   -1.5857 H   0  0  0  0  0  0  0  0  0  0  0  0
    2.6784    1.8955   -0.1167 H   0  0  0  0  0  0  0  0  0  0  0  0
    1.4349    0.2653    1.3026 H   0  0  0  0  0  0  0  0  0  0  0  0
   -1.2969    0.9242    1.6475 H   0  0  0  0  0  0  0  0  0  0  0  0
   -1.5837    3.0239    1.0818 H   0  0  0  0  0  0  0  0  0  0  0  0
   -1.3823    0.3456   -1.3494 H   0  0  0  0  0  0  0  0  0  0  0  0
   -3.3636   -0.5487   -0.9470 H   0  0  0  0  0  0  0  0  0  0  0  0
   -0.8385   -1.1640    1.1786 H   0  0  0  0  0  0  0  0  0  0  0  0
   -1.5663   -2.9026    0.1657 H   0  0  0  0  0  0  0  0  0  0  0  0
    0.5649   -0.6932   -1.4670 H   0  0  0  0  0  0  0  0  0  0  0  0
    0.9073   -2.5495    0.4961 H   0  0  0  0  0  0  0  0  0  0  0  0
  1  2  1  0
  2  3  1  0
  3  4  1  0
  4  5  1  0
  5  6  1  0
  5  7  1  0
  7  8  1  0
  7  9  1  0
  9 10  1  0
  9 11  1  0
 11 12  1  0
 11  3  1  0
  1 13  1  0
  2 14  1  0
  2 15  1  0
  3 16  1  1
  5 17  1  1
  6 18  1  0
  7 19  1  6
  8 20  1  0
  9 21  1  1
 10 22  1  0
 11 23  1  6
 12 24  1  0
M  END
$$$$
[H]OC([H])([H])[C@@]1([H])O[C@@]([H])(O[H])[C@@]([H])(O[H])[C@@]([H])(O[H])[C@@]1([H])O[H]
     RDKit          3D

 24 24  0  0  0  0  0  0  0  0999 V2000
    3.1562    1.1858   -0.0399 O   0  0  0  0  0  0  0  0  0  0  0  0
    2.5483   -0.0661    0.0261 C   0  0  0  0  0  0  0  0  0  0  0  0
    1.0824    0.1322    0.3201 C   0  0  1  0  0  0  0  0  0  0  0  0
    0.4444    0.8806   -0.6535 O   0  0  0  0  0  0  0  0  0  0  0  0
   -0.6981    1.4288   -0.0770 C   0  0  1  0  0  0  0  0  0  0  0  0
   -1.2815    2.3753   -0.9311 O   0  0  0  0  0  0  0  0  0  0  0  0
   -1.6600    0.3548    0.3195 C   0  0  1  0  0  0  0  0  0  0  0  0
   -2.8124    0.4893   -0.4536 O   0  0  0  0  0  0  0  0  0  0  0  0
   -1.0884   -1.0255    0.0971 C   0  0  1  0  0  0  0  0  0  0  0  0
   -1.1094   -1.2624   -1.2768 O   0  0  0  0  0  0  0  0  0  0  0  0
    0.3439   -1.1377    0.5774 C   0  0  1  0  0  0  0  0  0  0  0  0
    0.9345   -2.2078   -0.0812 O   0  0  0  0  0  0  0  0  0  0  0  0
    2.4769    1.8748   -0.1634 H   0  0  0  0  0  0  0  0  0  0  0  0
    2.7056   -0.5403   -0.9770 H   0  0  0  0  0  0  0  0  0  0  0  0
    2.9877   -0.6513    0.8369 H   0  0  0  0  0  0  0  0  0  0  0  0
    1.0362    0.7437    1.2641 H   0  0  0  0  0  0  0  0  0  0  0  0
   -0.3566    1.9735    0.8490 H   0  0  0  0  0  0  0  0  0  0  0  0
   -1.2417    3.2749   -0.5568 H   0  0  0  0  0  0  0  0  0  0  0  0
   -1.9550    0.4269    1.3675 H   0  0  0  0  0  0  0  0  0  0  0  0
   -2.7816   -0.0697   -1.2816 H   0  0  0  0  0  0  0  0  0  0  0  0
   -1.6719   -1.7850    0.6607 H   0  0  0  0  0  0  0  0  0  0  0  0
   -1.6495   -2.0764   -1.4942 H   0  0  0  0  0  0  0  0  0  0  0  0
    0.3008   -1.3511    1.6739 H   0  0  0  0  0  0  0  0  0  0  0  0
    0.2894   -2.9672   -0.0061 H   0  0  0  0  0  0  0  0  0  0  0  0
  1  2  1  0
  2  3  1  0
  3  4  1  0
  4  5  1  0
  5  6  1  0
  5  7  1  0
  7  8  1  0
  7  9  1  0
  9 10  1  0
  9 11  1  0
 11 12  1  0
 11  3  1  0
  1 13  1  0
  2 14  1  0
  2 15  1  0
  3 16  1  1
  5 17  1  1
  6 18  1  0
  7 19  1  1
  8 20  1  0
  9 21  1  1
 10 22  1  0
 11 23  1  1
 12 24  1  0
M  END
$$$$
[H]OC([H])([H])[C@@]1([H])O[C@@]([H])(O[H])[C@@]([H])(O[H])[C@]([H])(O[H])[C@]1([H])O[H]
     RDKit          3D

 24 24  0  0  0  0  0  0  0  0999 V2000
    3.2173    0.2520   -0.1271 O   0  0  0  0  0  0  0  0  0  0  0  0
    2.1440    1.1139   -0.1139 C   0  0  0  0  0  0  0  0  0  0  0  0
    0.8624    0.4345    0.3779 C   0  0  1  0  0  0  0  0  0  0  0  0
   -0.1288    1.3996    0.3430 O   0  0  0  0  0  0  0  0  0  0  0  0
   -1.3777    0.8928    0.6848 C   0  0  1  0  0  0  0  0  0  0  0  0
   -2.2781    1.9270    0.8441 O   0  0  0  0  0  0  0  0  0  0  0  0
   -1.7821   -0.0680   -0.4119 C   0  0  1  0  0  0  0  0  0  0  0  0
   -1.5846    0.5470   -1.6530 O   0  0  0  0  0  0  0  0  0  0  0  0
   -0.8262   -1.2534   -0.3170 C   0  0  2  0  0  0  0  0  0  0  0  0
   -1.0405   -1.8170    0.9522 O   0  0  0  0  0  0  0  0  0  0  0  0
    0.5726   -0.7555   -0.4905 C   0  0  2  0  0  0  0  0  0  0  0  0
    1.4584   -1.7831   -0.1349 O   0  0  0  0  0  0  0  0  0  0  0  0
    3.2758   -0.2798   -0.9623 H   0  0  0  0  0  0  0  0  0  0  0  0
    1.9492    1.5467   -1.1179 H   0  0  0  0  0  0  0  0  0  0  0  0
    2.3841    1.9344    0.6172 H   0  0  0  0  0  0  0  0  0  0  0  0
    0.9983    0.0746    1.4094 H   0  0  0  0  0  0  0  0  0  0  0  0
   -1.3070    0.3415    1.6507 H   0  0  0  0  0  0  0  0  0  0  0  0
   -2.1224    2.3580    1.7164 H   0  0  0  0  0  0  0  0  0  0  0  0
   -2.8241   -0.3813   -0.3561 H   0  0  0  0  0  0  0  0  0  0  0  0
   -1.9217   -0.0182   -2.3756 H   0  0  0  0  0  0  0  0  0  0  0  0
   -1.0623   -2.0168   -1.0756 H   0  0  0  0  0  0  0  0  0  0  0  0
   -0.3773   -1.4744    1.6176 H   0  0  0  0  0  0  0  0  0  0  0  0
    0.7449   -0.5530   -1.5567 H   0  0  0  0  0  0  0  0  0  0  0  0
    1.0259   -2.4215    0.4793 H   0  0  0  0  0  0  0  0  0  0  0  0
  1  2  1  0
  2  3  1  0
  3  4  1  0
  4  5  1  0
  5  6  1  0
  5  7  1  0
  7  8  1  0
  7  9  1  0
  9 10  1  0
  9 11  1  0
 11 12  1  0
 11  3  1  0
  1 13  1  0
  2 14  1  0
  2 15  1  0
  3 16  1  1
  5 17  1  1
  6 18  1  0
  7 19  1  1
  8 20  1  0
  9 21  1  6
 10 22  1  0
 11 23  1  6
 12 24  1  0
M  END
$$$$
[H]OC([H])([H])[C@@]1([H])O[C@@]([H])(O[H])[C@@]([H])(O[H])[C@]1([H])O[H]
     RDKit          3D

 20 20  0  0  0  0  0  0  0  0999 V2000
   -2.9609    0.4344    0.5469 O   0  0  0  0  0  0  0  0  0  0  0  0
   -1.9641   -0.5407    0.6054 C   0  0  0  0  0  0  0  0  0  0  0  0
   -0.7639   -0.0054   -0.1077 C   0  0  1  0  0  0  0  0  0  0  0  0
   -0.2705    1.1674    0.4547 O   0  0  0  0  0  0  0  0  0  0  0  0
    0.8808    1.3957   -0.2940 C   0  0  1  0  0  0  0  0  0  0  0  0
    1.7861    2.2088    0.3808 O   0  0  0  0  0  0  0  0  0  0  0  0
    1.4940    0.0485   -0.5823 C   0  0  1  0  0  0  0  0  0  0  0  0
    2.7325   -0.1127   -0.0111 O   0  0  0  0  0  0  0  0  0  0  0  0
    0.4526   -0.8979    0.0262 C   0  0  2  0  0  0  0  0  0  0  0  0
    0.3488   -2.0759   -0.6619 O   0  0  0  0  0  0  0  0  0  0  0  0
   -3.6869    0.2841    1.1874 H   0  0  0  0  0  0  0  0  0  0  0  0
   -1.7467   -0.8086    1.6442 H   0  0  0  0  0  0  0  0  0  0  0  0
   -2.3435   -1.4048    0.0197 H   0  0  0  0  0  0  0  0  0  0  0  0
   -0.9588    0.1707   -1.1655 H   0  0  0  0  0  0  0  0  0  0  0  0
    0.5427    1.8774   -1.2434 H   0  0  0  0  0  0  0  0  0  0  0  0
    1.3314    2.5489    1.2106 H   0  0  0  0  0  0  0  0  0  0  0  0
    1.4826   -0.1786   -1.6842 H   0  0  0  0  0  0  0  0  0  0  0  0
    2.9711   -1.0503    0.1380 H   0  0  0  0  0  0  0  0  0  0  0  0
    0.7256   -1.0779    1.0759 H   0  0  0  0  0  0  0  0  0  0  0  0
   -0.0529   -1.9834   -1.5397 H   0  0  0  0  0  0  0  0  0  0  0  0
  1  2  1  0
  2  3  1  0
  3  4  1  0
  4  5  1  0
  5  6  1  0
  5  7  1  0
  7  8  1  0
  7  9  1  0
  9 10  1  0
  9  3  1  0
  1 11  1  0
  2 12  1  0
  2 13  1  0
  3 14  1  6
  5 15  1  6
  6 16  1  0
  7 17  1  6
  8 18  1  0
  9 19  1  1
 10 20  1  0
M  END
$$$$
[H]c1nc2c(c([H])c1-c1c([H])c([H])c(S(=O)(=O)N([H])[H])c([H])c1[H])c(-c1c([H])c([H])c([H])c([H])c1[H])c([H])n2[H]
     RDKit          3D

 40 43  0  0  0  0  0  0  0  0999 V2000
    6.5156   -1.5253   -1.2412 N   0  0  0  0  0  0  0  0  0  0  0  0
    5.5551   -2.1092    0.0819 S   0  0  0  0  0  0  0  0  0  0  0  0
    6.3904   -1.9721    1.3171 O   0  0  0  0  0  0  0  0  0  0  0  0
    5.1429   -3.5210   -0.1069 O   0  0  0  0  0  0  0  0  0  0  0  0
    4.1139   -1.1131    0.1650 C   0  0  0  0  0  0  0  0  0  0  0  0
    2.9593   -1.4292   -0.5212 C   0  0  0  0  0  0  0  0  0  0  0  0
    1.8244   -0.6460   -0.4568 C   0  0  0  0  0  0  0  0  0  0  0  0
    1.8006    0.5039    0.3103 C   0  0  0  0  0  0  0  0  0  0  0  0
    2.9558    0.8188    0.9959 C   0  0  0  0  0  0  0  0  0  0  0  0
    4.0886    0.0369    0.9315 C   0  0  0  0  0  0  0  0  0  0  0  0
    0.6021    1.3467    0.3885 C   0  0  0  0  0  0  0  0  0  0  0  0
    0.7211    2.7124    0.5724 C   0  0  0  0  0  0  0  0  0  0  0  0
   -0.3520    3.5211    0.6496 N   0  0  0  0  0  0  0  0  0  0  0  0
   -1.5947    3.0179    0.5488 C   0  0  0  0  0  0  0  0  0  0  0  0
   -2.8373    3.5257    0.5793 N   0  0  0  0  0  0  0  0  0  0  0  0
   -3.7477    2.5561    0.4248 C   0  0  0  0  0  0  0  0  0  0  0  0
   -3.0839    1.3314    0.2828 C   0  0  0  0  0  0  0  0  0  0  0  0
   -3.6850    0.0202    0.0995 C   0  0  0  0  0  0  0  0  0  0  0  0
   -3.2359   -1.0178    0.8841 C   0  0  0  0  0  0  0  0  0  0  0  0
   -3.8063   -2.2824    0.7084 C   0  0  0  0  0  0  0  0  0  0  0  0
   -4.8013   -2.5134   -0.2256 C   0  0  0  0  0  0  0  0  0  0  0  0
   -5.2385   -1.4457   -1.0074 C   0  0  0  0  0  0  0  0  0  0  0  0
   -4.6740   -0.2017   -0.8311 C   0  0  0  0  0  0  0  0  0  0  0  0
   -1.7422    1.6612    0.3653 C   0  0  0  0  0  0  0  0  0  0  0  0
   -0.6563    0.7917    0.2803 C   0  0  0  0  0  0  0  0  0  0  0  0
    6.5901   -0.4766   -1.0853 H   0  0  0  0  0  0  0  0  0  0  0  0
    7.4999   -1.8787   -1.0990 H   0  0  0  0  0  0  0  0  0  0  0  0
    2.9672   -2.3385   -1.1321 H   0  0  0  0  0  0  0  0  0  0  0  0
    0.9206   -0.9189   -1.0111 H   0  0  0  0  0  0  0  0  0  0  0  0
    2.9422    1.7176    1.5972 H   0  0  0  0  0  0  0  0  0  0  0  0
    4.9852    0.3309    1.4972 H   0  0  0  0  0  0  0  0  0  0  0  0
    1.7439    3.0976    0.6516 H   0  0  0  0  0  0  0  0  0  0  0  0
   -3.0361    4.5454    0.7078 H   0  0  0  0  0  0  0  0  0  0  0  0
   -4.8234    2.6314    0.4031 H   0  0  0  0  0  0  0  0  0  0  0  0
   -2.4692   -0.9321    1.6389 H   0  0  0  0  0  0  0  0  0  0  0  0
   -3.4920   -3.1224    1.2940 H   0  0  0  0  0  0  0  0  0  0  0  0
   -5.2512   -3.4788   -0.3741 H   0  0  0  0  0  0  0  0  0  0  0  0
   -6.0099   -1.5757   -1.7470 H   0  0  0  0  0  0  0  0  0  0  0  0
   -5.0302    0.6052   -1.4480 H   0  0  0  0  0  0  0  0  0  0  0  0
   -0.7521   -0.2737    0.1336 H   0  0  0  0  0  0  0  0  0  0  0  0
  1  2  1  0
  2  3  2  0
  2  4  2  0
  2  5  1  0
  5  6  2  0
  6  7  1  0
  7  8  2  0
  8  9  1  0
  9 10  2  0
  8 11  1  0
 11 12  2  0
 12 13  1  0
 13 14  2  0
 14 15  1  0
 15 16  1  0
 16 17  2  0
 17 18  1  0
 18 19  2  0
 19 20  1  0
 20 21  2  0
 21 22  1  0
 22 23  2  0
 17 24  1  0
 24 25  2  0
 10  5  1  0
 25 11  1  0
 24 14  1  0
 23 18  1  0
  1 26  1  0
  1 27  1  0
  6 28  1  0
  7 29  1  0
  9 30  1  0
 10 31  1  0
 12 32  1  0
 15 33  1  0
 16 34  1  0
 19 35  1  0
 20 36  1  0
 21 37  1  0
 22 38  1  0
 23 39  1  0
 25 40  1  0
M  END
$$$$
[H]OC([H])([H])[C@@]1([H])O[C@@]([H])(O[H])[C@@]([H])(O[H])[C@@]1([H])O[H]
     RDKit          3D

 20 20  0  0  0  0  0  0  0  0999 V2000
   -3.0221    0.1558    0.9083 O   0  0  0  0  0  0  0  0  0  0  0  0
   -2.0359   -0.7463    0.5425 C   0  0  0  0  0  0  0  0  0  0  0  0
   -0.9134    0.0289   -0.1045 C   0  0  1  0  0  0  0  0  0  0  0  0
   -0.3682    0.9727    0.7639 O   0  0  0  0  0  0  0  0  0  0  0  0
    0.7192    1.4323    0.0207 C   0  0  1  0  0  0  0  0  0  0  0  0
    1.5283    2.2886    0.7625 O   0  0  0  0  0  0  0  0  0  0  0  0
    1.4136    0.1649   -0.3692 C   0  0  1  0  0  0  0  0  0  0  0  0
    2.3486   -0.2247    0.5930 O   0  0  0  0  0  0  0  0  0  0  0  0
    0.2615   -0.8174   -0.4632 C   0  0  1  0  0  0  0  0  0  0  0  0
    0.4361   -1.9189    0.3580 O   0  0  0  0  0  0  0  0  0  0  0  0
   -3.2207    0.7225    0.1005 H   0  0  0  0  0  0  0  0  0  0  0  0
   -1.6233   -1.1738    1.4908 H   0  0  0  0  0  0  0  0  0  0  0  0
   -2.4253   -1.5489   -0.0743 H   0  0  0  0  0  0  0  0  0  0  0  0
   -1.2501    0.5591   -1.0045 H   0  0  0  0  0  0  0  0  0  0  0  0
    0.3067    1.9689   -0.8584 H   0  0  0  0  0  0  0  0  0  0  0  0
    2.3458    2.4346    0.2530 H   0  0  0  0  0  0  0  0  0  0  0  0
    1.9008    0.3021   -1.3700 H   0  0  0  0  0  0  0  0  0  0  0  0
    3.1119   -0.6701    0.1135 H   0  0  0  0  0  0  0  0  0  0  0  0
    0.1900   -1.1691   -1.5230 H   0  0  0  0  0  0  0  0  0  0  0  0
    0.2965   -2.7611   -0.1396 H   0  0  0  0  0  0  0  0  0  0  0  0
  1  2  1  0
  2  3  1  0
  3  4  1  0
  4  5  1  0
  5  6  1  0
  5  7  1  0
  7  8  1  0
  7  9  1  0
  9 10  1  0
  9  3  1  0
  1 11  1  0
  2 12  1  0
  2 13  1  0
  3 14  1  6
  5 15  1  6
  6 16  1  0
  7 17  1  6
  8 18  1  0
  9 19  1  6
 10 20  1  0
M  END
$$$$
[H]OC([H])([H])[C@@]1([H])O[C@@]([H])(O[H])[C@]([H])(O[H])[C@]1([H])O[H]
     RDKit          3D

 20 20  0  0  0  0  0  0  0  0999 V2000
   -2.9967    0.5328    0.0703 O   0  0  0  0  0  0  0  0  0  0  0  0
   -1.9862   -0.2894    0.5279 C   0  0  0  0  0  0  0  0  0  0  0  0
   -0.7621   -0.0673   -0.3337 C   0  0  1  0  0  0  0  0  0  0  0  0
   -0.3119    1.2422   -0.2949 O   0  0  0  0  0  0  0  0  0  0  0  0
    1.0585    1.1250   -0.6129 C   0  0  1  0  0  0  0  0  0  0  0  0
    1.7401    2.2988   -0.4923 O   0  0  0  0  0  0  0  0  0  0  0  0
    1.4421    0.1030    0.4676 C   0  0  2  0  0  0  0  0  0  0  0  0
    2.7149   -0.3564    0.3227 O   0  0  0  0  0  0  0  0  0  0  0  0
    0.3754   -0.9358    0.1801 C   0  0  2  0  0  0  0  0  0  0  0  0
    0.7692   -1.7866   -0.8448 O   0  0  0  0  0  0  0  0  0  0  0  0
   -3.7630    0.5072    0.6909 H   0  0  0  0  0  0  0  0  0  0  0  0
   -1.7318   -0.0705    1.5845 H   0  0  0  0  0  0  0  0  0  0  0  0
   -2.2746   -1.3537    0.3953 H   0  0  0  0  0  0  0  0  0  0  0  0
   -0.9973   -0.3099   -1.3883 H   0  0  0  0  0  0  0  0  0  0  0  0
    1.1012    0.6637   -1.6051 H   0  0  0  0  0  0  0  0  0  0  0  0
    1.4456    2.8283    0.2657 H   0  0  0  0  0  0  0  0  0  0  0  0
    1.2136    0.5820    1.4349 H   0  0  0  0  0  0  0  0  0  0  0  0
    2.8242   -1.2940    0.1040 H   0  0  0  0  0  0  0  0  0  0  0  0
    0.0733   -1.5000    1.0624 H   0  0  0  0  0  0  0  0  0  0  0  0
    0.0653   -1.9194   -1.5342 H   0  0  0  0  0  0  0  0  0  0  0  0
  1  2  1  0
  2  3  1  0
  3  4  1  0
  4  5  1  0
  5  6  1  0
  5  7  1  0
  7  8  1  0
  7  9  1  0
  9 10  1  0
  9  3  1  0
  1 11  1  0
  2 12  1  0
  2 13  1  0
  3 14  1  6
  5 15  1  6
  6 16  1  0
  7 17  1  1
  8 18  1  0
  9 19  1  1
 10 20  1  0
M  END
$$$$
[H]c1nc2c(c([H])c1-c1c([H])c([H])c(S(=O)(=O)N([H])[H])c([H])c1[H])c([H])c([H])n2[H]
     RDKit          3D

 30 32  0  0  0  0  0  0  0  0999 V2000
    5.4155    0.8586    0.2819 N   0  0  0  0  0  0  0  0  0  0  0  0
    4.5790    0.6333   -1.2056 S   0  0  0  0  0  0  0  0  0  0  0  0
    5.0785   -0.5925   -1.9365 O   0  0  0  0  0  0  0  0  0  0  0  0
    4.8089    1.8552   -2.0486 O   0  0  0  0  0  0  0  0  0  0  0  0
    2.8596    0.4739   -0.8760 C   0  0  0  0  0  0  0  0  0  0  0  0
    2.3500   -0.7800   -0.6496 C   0  0  0  0  0  0  0  0  0  0  0  0
    0.9997   -0.8838   -0.3913 C   0  0  0  0  0  0  0  0  0  0  0  0
    0.2156    0.2330   -0.3663 C   0  0  0  0  0  0  0  0  0  0  0  0
    0.7413    1.4677   -0.5937 C   0  0  0  0  0  0  0  0  0  0  0  0
    2.0954    1.6182   -0.8577 C   0  0  0  0  0  0  0  0  0  0  0  0
   -1.2078    0.1171   -0.0919 C   0  0  0  0  0  0  0  0  0  0  0  0
   -2.1039    1.0036   -0.6482 C   0  0  0  0  0  0  0  0  0  0  0  0
   -3.4005    0.8739   -0.3786 N   0  0  0  0  0  0  0  0  0  0  0  0
   -3.8808   -0.1109    0.4341 C   0  0  0  0  0  0  0  0  0  0  0  0
   -5.1142   -0.4442    0.8504 N   0  0  0  0  0  0  0  0  0  0  0  0
   -5.0852   -1.5155    1.6617 C   0  0  0  0  0  0  0  0  0  0  0  0
   -3.7674   -1.8969    1.7780 C   0  0  0  0  0  0  0  0  0  0  0  0
   -3.0246   -1.0199    1.0127 C   0  0  0  0  0  0  0  0  0  0  0  0
   -1.6763   -0.9001    0.7437 C   0  0  0  0  0  0  0  0  0  0  0  0
    5.6213    1.8644    0.4783 H   0  0  0  0  0  0  0  0  0  0  0  0
    6.2110    0.2246    0.4182 H   0  0  0  0  0  0  0  0  0  0  0  0
    2.9664   -1.6875   -0.6668 H   0  0  0  0  0  0  0  0  0  0  0  0
    0.5881   -1.8889   -0.2090 H   0  0  0  0  0  0  0  0  0  0  0  0
    0.1540    2.3724   -0.5823 H   0  0  0  0  0  0  0  0  0  0  0  0
    2.5375    2.5861   -1.0418 H   0  0  0  0  0  0  0  0  0  0  0  0
   -1.7134    1.7980   -1.3038 H   0  0  0  0  0  0  0  0  0  0  0  0
   -5.9846    0.0813    0.5656 H   0  0  0  0  0  0  0  0  0  0  0  0
   -5.9299   -2.0150    2.1531 H   0  0  0  0  0  0  0  0  0  0  0  0
   -3.3716   -2.7372    2.3649 H   0  0  0  0  0  0  0  0  0  0  0  0
   -0.9616   -1.5890    1.1738 H   0  0  0  0  0  0  0  0  0  0  0  0
  1  2  1  0
  2  3  2  0
  2  4  2  0
  2  5  1  0
  5  6  2  0
  6  7  1  0
  7  8  2  0
  8  9  1  0
  9 10  2  0
  8 11  1  0
 11 12  2  0
 12 13  1  0
 13 14  2  0
 14 15  1  0
 15 16  1  0
 16 17  2  0
 17 18  1  0
 18 19  2  0
 10  5  1  0
 19 11  1  0
 18 14  1  0
  1 20  1  0
  1 21  1  0
  6 22  1  0
  7 23  1  0
  9 24  1  0
 10 25  1  0
 12 26  1  0
 15 27  1  0
 16 28  1  0
 17 29  1  0
 19 30  1  0
M  END
$$$$
[H]OC([H])([H])[C@@]1([H])O[C@@]([H])(O[H])[C@]([H])(O[H])[C@@]1([H])O[H]
     RDKit          3D

 20 20  0  0  0  0  0  0  0  0999 V2000
   -3.1034    0.3686    0.1968 O   0  0  0  0  0  0  0  0  0  0  0  0
   -1.9959   -0.4658    0.3084 C   0  0  0  0  0  0  0  0  0  0  0  0
   -0.8390    0.0233   -0.5633 C   0  0  1  0  0  0  0  0  0  0  0  0
   -0.4393    1.2883   -0.2051 O   0  0  0  0  0  0  0  0  0  0  0  0
    0.9650    1.2933   -0.1987 C   0  0  1  0  0  0  0  0  0  0  0  0
    1.4862    2.3681    0.4506 O   0  0  0  0  0  0  0  0  0  0  0  0
    1.2065   -0.0243    0.5515 C   0  0  2  0  0  0  0  0  0  0  0  0
    2.5317   -0.3893    0.5341 O   0  0  0  0  0  0  0  0  0  0  0  0
    0.3269   -0.9112   -0.3042 C   0  0  1  0  0  0  0  0  0  0  0  0
   -0.0264   -2.0856    0.2902 O   0  0  0  0  0  0  0  0  0  0  0  0
   -3.2248    0.9783    0.9473 H   0  0  0  0  0  0  0  0  0  0  0  0
   -1.6396   -0.3694    1.3725 H   0  0  0  0  0  0  0  0  0  0  0  0
   -2.2144   -1.5197    0.0677 H   0  0  0  0  0  0  0  0  0  0  0  0
   -1.1170    0.0356   -1.6284 H   0  0  0  0  0  0  0  0  0  0  0  0
    1.2870    1.1803   -1.2477 H   0  0  0  0  0  0  0  0  0  0  0  0
    2.1569    2.7996   -0.1534 H   0  0  0  0  0  0  0  0  0  0  0  0
    0.7995    0.0379    1.5572 H   0  0  0  0  0  0  0  0  0  0  0  0
    2.8483   -0.7047   -0.3240 H   0  0  0  0  0  0  0  0  0  0  0  0
    0.8226   -1.0713   -1.2947 H   0  0  0  0  0  0  0  0  0  0  0  0
    0.1693   -2.8321   -0.3568 H   0  0  0  0  0  0  0  0  0  0  0  0
  1  2  1  0
  2  3  1  0
  3  4  1  0
  4  5  1  0
  5  6  1  0
  5  7  1  0
  7  8  1  0
  7  9  1  0
  9 10  1  0
  9  3  1  0
  1 11  1  0
  2 12  1  0
  2 13  1  0
  3 14  1  6
  5 15  1  6
  6 16  1  0
  7 17  1  1
  8 18  1  0
  9 19  1  6
 10 20  1  0
M  END
$$$$
