[H]c1c([H])c(Cl)c(-c2c([H])c3c([H])nc(N([H])c4c([H])c([H])c(C([H])([H])N5C([H])([H])C([H])([H])N(C([H])([H])C([H])([H])[H])C([H])([H])C5([H])[H])c(C(=O)N([H])[H])c4[H])nc3n(C([H])([H])[H])c2=O)c(Cl)c1[H]
     RDKit          3D

 68 72  0  0  0  0  0  0  0  0999 V2000
   -8.4849   -2.1021   -1.0056 C   0  0  0  0  0  0  0  0  0  0  0  0
   -7.2156   -1.9337   -0.2112 C   0  0  0  0  0  0  0  0  0  0  0  0
   -6.0284   -2.3000   -0.9215 N   0  0  0  0  0  0  0  0  0  0  0  0
   -5.7177   -1.4158   -2.0122 C   0  0  0  0  0  0  0  0  0  0  0  0
   -5.3094   -0.0509   -1.5645 C   0  0  0  0  0  0  0  0  0  0  0  0
   -4.0809   -0.1172   -0.7339 N   0  0  0  0  0  0  0  0  0  0  0  0
   -4.0036    1.2538   -0.1675 C   0  0  0  0  0  0  0  0  0  0  0  0
   -2.6976    1.5139    0.4646 C   0  0  0  0  0  0  0  0  0  0  0  0
   -1.6895    0.5776    0.3960 C   0  0  0  0  0  0  0  0  0  0  0  0
   -0.4193    0.7803    0.9433 C   0  0  0  0  0  0  0  0  0  0  0  0
   -0.1144    1.9499    1.5866 C   0  0  0  0  0  0  0  0  0  0  0  0
    1.1217    2.2989    2.1488 N   0  0  0  0  0  0  0  0  0  0  0  0
    2.3467    1.7778    1.7956 C   0  0  0  0  0  0  0  0  0  0  0  0
    3.4716    2.2103    2.4554 N   0  0  0  0  0  0  0  0  0  0  0  0
    4.6937    1.7546    2.1374 C   0  0  0  0  0  0  0  0  0  0  0  0
    4.8513    0.8306    1.1285 C   0  0  0  0  0  0  0  0  0  0  0  0
    6.0828    0.3212    0.7488 C   0  0  0  0  0  0  0  0  0  0  0  0
    6.1964   -0.6017   -0.2677 C   0  0  0  0  0  0  0  0  0  0  0  0
    7.4716   -1.1684   -0.7029 C   0  0  0  0  0  0  0  0  0  0  0  0
    8.2299   -0.5845   -1.6973 C   0  0  0  0  0  0  0  0  0  0  0  0
    7.6264    0.8734   -2.4401 Cl  0  0  0  0  0  0  0  0  0  0  0  0
    9.4341   -1.1156   -2.1120 C   0  0  0  0  0  0  0  0  0  0  0  0
    9.9319   -2.2662   -1.5401 C   0  0  0  0  0  0  0  0  0  0  0  0
    9.1788   -2.8573   -0.5431 C   0  0  0  0  0  0  0  0  0  0  0  0
    7.9659   -2.3207   -0.1269 C   0  0  0  0  0  0  0  0  0  0  0  0
    7.0161   -3.0661    1.1306 Cl  0  0  0  0  0  0  0  0  0  0  0  0
    5.0234   -0.9976   -0.8931 C   0  0  0  0  0  0  0  0  0  0  0  0
    5.0853   -1.8312   -1.8178 O   0  0  0  0  0  0  0  0  0  0  0  0
    3.8049   -0.5052   -0.5311 N   0  0  0  0  0  0  0  0  0  0  0  0
    2.5773   -0.9138   -1.1846 C   0  0  0  0  0  0  0  0  0  0  0  0
    3.7198    0.3938    0.4631 C   0  0  0  0  0  0  0  0  0  0  0  0
    2.5327    0.8871    0.8288 N   0  0  0  0  0  0  0  0  0  0  0  0
   -1.1279    2.9030    1.6605 C   0  0  0  0  0  0  0  0  0  0  0  0
   -2.3895    2.6859    1.1106 C   0  0  0  0  0  0  0  0  0  0  0  0
   -3.3880    3.7480    1.2277 C   0  0  0  0  0  0  0  0  0  0  0  0
   -3.0550    4.9646    1.9393 N   0  0  0  0  0  0  0  0  0  0  0  0
   -4.5100    3.6095    0.7225 O   0  0  0  0  0  0  0  0  0  0  0  0
   -4.4730   -0.9499    0.4133 C   0  0  0  0  0  0  0  0  0  0  0  0
   -4.9126   -2.3170    0.0083 C   0  0  0  0  0  0  0  0  0  0  0  0
   -8.5167   -1.4961   -1.9256 H   0  0  0  0  0  0  0  0  0  0  0  0
   -9.3199   -1.7136   -0.3650 H   0  0  0  0  0  0  0  0  0  0  0  0
   -8.7133   -3.1508   -1.2746 H   0  0  0  0  0  0  0  0  0  0  0  0
   -7.2080   -0.9098    0.1967 H   0  0  0  0  0  0  0  0  0  0  0  0
   -7.2978   -2.6222    0.6713 H   0  0  0  0  0  0  0  0  0  0  0  0
   -6.6235   -1.2976   -2.6459 H   0  0  0  0  0  0  0  0  0  0  0  0
   -4.8895   -1.8881   -2.5877 H   0  0  0  0  0  0  0  0  0  0  0  0
   -6.0793    0.3822   -0.8994 H   0  0  0  0  0  0  0  0  0  0  0  0
   -5.1433    0.5979   -2.4204 H   0  0  0  0  0  0  0  0  0  0  0  0
   -4.8434    1.3094    0.5891 H   0  0  0  0  0  0  0  0  0  0  0  0
   -4.2681    1.9638   -0.9790 H   0  0  0  0  0  0  0  0  0  0  0  0
   -1.8880   -0.3526   -0.1240 H   0  0  0  0  0  0  0  0  0  0  0  0
    0.3131   -0.0205    0.8584 H   0  0  0  0  0  0  0  0  0  0  0  0
    1.1025    3.0357    2.9247 H   0  0  0  0  0  0  0  0  0  0  0  0
    5.5547    2.1132    2.6751 H   0  0  0  0  0  0  0  0  0  0  0  0
    6.9752    0.6554    1.2620 H   0  0  0  0  0  0  0  0  0  0  0  0
   10.0266   -0.6427   -2.9019 H   0  0  0  0  0  0  0  0  0  0  0  0
   10.8797   -2.6830   -1.8709 H   0  0  0  0  0  0  0  0  0  0  0  0
    9.5602   -3.7676   -0.0828 H   0  0  0  0  0  0  0  0  0  0  0  0
    2.0745   -1.7443   -0.6764 H   0  0  0  0  0  0  0  0  0  0  0  0
    1.9053   -0.0116   -1.2827 H   0  0  0  0  0  0  0  0  0  0  0  0
    2.8276   -1.1939   -2.2256 H   0  0  0  0  0  0  0  0  0  0  0  0
   -0.9341    3.8622    2.1676 H   0  0  0  0  0  0  0  0  0  0  0  0
   -2.9210    5.8086    1.3685 H   0  0  0  0  0  0  0  0  0  0  0  0
   -2.9709    4.9148    2.9787 H   0  0  0  0  0  0  0  0  0  0  0  0
   -5.3552   -0.3849    0.8521 H   0  0  0  0  0  0  0  0  0  0  0  0
   -3.6820   -0.9788    1.1363 H   0  0  0  0  0  0  0  0  0  0  0  0
   -5.2318   -2.8552    0.9099 H   0  0  0  0  0  0  0  0  0  0  0  0
   -4.0787   -2.8493   -0.4797 H   0  0  0  0  0  0  0  0  0  0  0  0
  1  2  1  0
  2  3  1  0
  3  4  1  0
  4  5  1  0
  5  6  1  0
  6  7  1  0
  7  8  1  0
  8  9  2  0
  9 10  1  0
 10 11  2  0
 11 12  1  0
 12 13  1  0
 13 14  2  0
 14 15  1  0
 15 16  2  0
 16 17  1  0
 17 18  2  0
 18 19  1  0
 19 20  2  0
 20 21  1  0
 20 22  1  0
 22 23  2  0
 23 24  1  0
 24 25  2  0
 25 26  1  0
 18 27  1  0
 27 28  2  0
 27 29  1  0
 29 30  1  0
 29 31  1  0
 31 32  2  0
 11 33  1  0
 33 34  2  0
 34 35  1  0
 35 36  1  0
 35 37  2  0
  6 38  1  0
 38 39  1  0
 39  3  1  0
 34  8  1  0
 32 13  1  0
 31 16  1  0
 25 19  1  0
  1 40  1  0
  1 41  1  0
  1 42  1  0
  2 43  1  0
  2 44  1  0
  4 45  1  0
  4 46  1  0
  5 47  1  0
  5 48  1  0
  7 49  1  0
  7 50  1  0
  9 51  1  0
 10 52  1  0
 12 53  1  0
 15 54  1  0
 17 55  1  0
 22 56  1  0
 23 57  1  0
 24 58  1  0
 30 59  1  0
 30 60  1  0
 30 61  1  0
 33 62  1  0
 36 63  1  0
 36 64  1  0
 38 65  1  0
 38 66  1  0
 39 67  1  0
 39 68  1  0
M  END
$$$$
[H]/C(=C1/Oc2c([H])c([H])c([H])c([H])c2C1=O)c1c(C(=O)N([H])[H])c2c([H])nc([H])c([H])c2n1C([H])([H])[H]
     RDKit          3D

 37 40  0  0  0  0  0  0  0  0999 V2000
   -1.5262   -2.8095    1.2622 C   0  0  0  0  0  0  0  0  0  0  0  0
   -1.8289   -1.5443    0.6262 N   0  0  0  0  0  0  0  0  0  0  0  0
   -1.0237   -0.9262   -0.2951 C   0  0  0  0  0  0  0  0  0  0  0  0
    0.2389   -1.4559   -0.7828 C   0  0  0  0  0  0  0  0  0  0  0  0
    1.3853   -0.8347   -0.6024 C   0  0  0  0  0  0  0  0  0  0  0  0
    1.6030    0.3646    0.0479 O   0  0  0  0  0  0  0  0  0  0  0  0
    2.9270    0.7207    0.0507 C   0  0  0  0  0  0  0  0  0  0  0  0
    3.5316    1.8430    0.5987 C   0  0  0  0  0  0  0  0  0  0  0  0
    4.8980    1.9793    0.4699 C   0  0  0  0  0  0  0  0  0  0  0  0
    5.6759    1.0445   -0.1800 C   0  0  0  0  0  0  0  0  0  0  0  0
    5.0362   -0.0547   -0.7095 C   0  0  0  0  0  0  0  0  0  0  0  0
    3.6783   -0.2367   -0.6081 C   0  0  0  0  0  0  0  0  0  0  0  0
    2.7202   -1.2516   -1.0414 C   0  0  0  0  0  0  0  0  0  0  0  0
    2.9896   -2.2881   -1.6727 O   0  0  0  0  0  0  0  0  0  0  0  0
   -1.6866    0.2379   -0.6379 C   0  0  0  0  0  0  0  0  0  0  0  0
   -1.2425    1.1711   -1.6474 C   0  0  0  0  0  0  0  0  0  0  0  0
   -1.8167    2.4545   -1.7413 N   0  0  0  0  0  0  0  0  0  0  0  0
   -0.3291    0.9059   -2.4933 O   0  0  0  0  0  0  0  0  0  0  0  0
   -2.8891    0.3371    0.0700 C   0  0  0  0  0  0  0  0  0  0  0  0
   -3.8987    1.2709    0.1028 C   0  0  0  0  0  0  0  0  0  0  0  0
   -4.9565    1.0459    0.9285 N   0  0  0  0  0  0  0  0  0  0  0  0
   -5.0120   -0.0593    1.6908 C   0  0  0  0  0  0  0  0  0  0  0  0
   -4.0202   -0.9997    1.6735 C   0  0  0  0  0  0  0  0  0  0  0  0
   -2.9247   -0.8096    0.8465 C   0  0  0  0  0  0  0  0  0  0  0  0
   -0.8311   -3.4312    0.6497 H   0  0  0  0  0  0  0  0  0  0  0  0
   -1.0457   -2.6815    2.2449 H   0  0  0  0  0  0  0  0  0  0  0  0
   -2.4751   -3.3811    1.4278 H   0  0  0  0  0  0  0  0  0  0  0  0
    0.2047   -2.4015   -1.3128 H   0  0  0  0  0  0  0  0  0  0  0  0
    2.9232    2.5801    1.1103 H   0  0  0  0  0  0  0  0  0  0  0  0
    5.3481    2.8612    0.9043 H   0  0  0  0  0  0  0  0  0  0  0  0
    6.7633    1.1745   -0.2703 H   0  0  0  0  0  0  0  0  0  0  0  0
    5.6118   -0.8193   -1.2320 H   0  0  0  0  0  0  0  0  0  0  0  0
   -2.5688    2.5853   -2.4608 H   0  0  0  0  0  0  0  0  0  0  0  0
   -1.5536    3.2745   -1.1564 H   0  0  0  0  0  0  0  0  0  0  0  0
   -3.8980    2.1686   -0.4915 H   0  0  0  0  0  0  0  0  0  0  0  0
   -5.8996   -0.1580    2.3247 H   0  0  0  0  0  0  0  0  0  0  0  0
   -4.1080   -1.8768    2.3064 H   0  0  0  0  0  0  0  0  0  0  0  0
  1  2  1  0
  2  3  1  0
  3  4  1  0
  4  5  2  0
  5  6  1  0
  6  7  1  0
  7  8  2  0
  8  9  1  0
  9 10  2  0
 10 11  1  0
 11 12  2  0
 12 13  1  0
 13 14  2  0
  3 15  2  0
 15 16  1  0
 16 17  1  0
 16 18  2  0
 15 19  1  0
 19 20  2  0
 20 21  1  0
 21 22  2  0
 22 23  1  0
 23 24  2  0
 24  2  1  0
 13  5  1  0
 24 19  1  0
 12  7  1  0
  1 25  1  0
  1 26  1  0
  1 27  1  0
  4 28  1  0
  8 29  1  0
  9 30  1  0
 10 31  1  0
 11 32  1  0
 17 33  1  0
 17 34  1  0
 20 35  1  0
 22 36  1  0
 23 37  1  0
M  END
$$$$
[H]OC(=O)C1(C([H])([H])[C@]2([H])N([H])[C@@]([H])(C(=O)N([H])c3c([H])c([H])c(C#N)c([H])c3OC([H])([H])[H])[C@]([H])(c3c([H])c([H])c(Cl)c([H])c3[H])[C@@]2(C#N)c2c([H])c([H])c3c(c2[H])OC([H])([H])O3)C([H])([H])C1([H])[H]
     RDKit          3D

 70 75  0  0  0  0  0  0  0  0999 V2000
    5.6459    2.0932    2.1490 C   0  0  0  0  0  0  0  0  0  0  0  0
    4.7407    1.4146    1.2858 O   0  0  0  0  0  0  0  0  0  0  0  0
    5.1799    0.2290    0.7156 C   0  0  0  0  0  0  0  0  0  0  0  0
    6.4249   -0.2878    0.9276 C   0  0  0  0  0  0  0  0  0  0  0  0
    6.8381   -1.4854    0.3476 C   0  0  0  0  0  0  0  0  0  0  0  0
    5.9258   -2.1296   -0.4555 C   0  0  0  0  0  0  0  0  0  0  0  0
    4.6490   -1.6043   -0.6744 C   0  0  0  0  0  0  0  0  0  0  0  0
    4.2641   -0.4299   -0.0993 C   0  0  0  0  0  0  0  0  0  0  0  0
    2.9890    0.1909   -0.3892 N   0  0  0  0  0  0  0  0  0  0  0  0
    1.8173   -0.5695   -0.5790 C   0  0  0  0  0  0  0  0  0  0  0  0
    1.7790   -1.8159   -0.4774 O   0  0  0  0  0  0  0  0  0  0  0  0
    0.5533    0.2121   -0.9041 C   0  0  2  0  0  0  0  0  0  0  0  0
    0.2842    0.9638    0.2704 N   0  0  0  0  0  0  0  0  0  0  0  0
   -1.2097    1.2125    0.3147 C   0  0  1  0  0  0  0  0  0  0  0  0
   -1.3533    2.5327   -0.2663 C   0  0  0  0  0  0  0  0  0  0  0  0
   -2.5276    3.4003   -0.2628 C   0  0  0  0  0  0  0  0  0  0  0  0
   -3.9133    3.2659   -0.7397 C   0  0  0  0  0  0  0  0  0  0  0  0
   -2.9203    3.8698   -1.6792 C   0  0  0  0  0  0  0  0  0  0  0  0
   -2.3430    4.6764    0.6121 C   0  0  0  0  0  0  0  0  0  0  0  0
   -3.4562    5.3077    1.0419 O   0  0  0  0  0  0  0  0  0  0  0  0
   -1.2055    5.0547    0.8711 O   0  0  0  0  0  0  0  0  0  0  0  0
   -1.7505   -0.0576   -0.1831 C   0  0  1  0  0  0  0  0  0  0  0  0
   -2.7942   -0.0777   -1.1823 C   0  0  0  0  0  0  0  0  0  0  0  0
   -3.6413   -0.1459   -2.0054 N   0  0  0  0  0  0  0  0  0  0  0  0
   -0.6159   -0.8159   -0.8319 C   0  0  1  0  0  0  0  0  0  0  0  0
   -0.9272   -1.4285   -2.1252 C   0  0  0  0  0  0  0  0  0  0  0  0
   -1.3149   -2.7879   -2.1161 C   0  0  0  0  0  0  0  0  0  0  0  0
   -1.6207   -3.4962   -3.2365 C   0  0  0  0  0  0  0  0  0  0  0  0
   -1.5567   -2.8782   -4.4655 C   0  0  0  0  0  0  0  0  0  0  0  0
   -1.9451   -3.7451   -5.9543 Cl  0  0  0  0  0  0  0  0  0  0  0  0
   -1.1772   -1.5452   -4.4898 C   0  0  0  0  0  0  0  0  0  0  0  0
   -0.8640   -0.8142   -3.3555 C   0  0  0  0  0  0  0  0  0  0  0  0
   -2.3391   -0.7280    1.0119 C   0  0  0  0  0  0  0  0  0  0  0  0
   -3.3520   -0.0251    1.6399 C   0  0  0  0  0  0  0  0  0  0  0  0
   -3.9623   -0.4937    2.7878 C   0  0  0  0  0  0  0  0  0  0  0  0
   -3.5632   -1.6942    3.3377 C   0  0  0  0  0  0  0  0  0  0  0  0
   -3.9325   -2.4589    4.4516 O   0  0  0  0  0  0  0  0  0  0  0  0
   -3.4473   -3.7964    4.2216 C   0  0  0  0  0  0  0  0  0  0  0  0
   -2.2831   -3.5814    3.3990 O   0  0  0  0  0  0  0  0  0  0  0  0
   -2.5559   -2.4045    2.7209 C   0  0  0  0  0  0  0  0  0  0  0  0
   -1.9519   -1.8963    1.5458 C   0  0  0  0  0  0  0  0  0  0  0  0
    8.1667   -2.0103    0.5835 C   0  0  0  0  0  0  0  0  0  0  0  0
    9.2178   -2.4323    0.7895 N   0  0  0  0  0  0  0  0  0  0  0  0
    6.6113    2.2523    1.6807 H   0  0  0  0  0  0  0  0  0  0  0  0
    5.1375    3.0420    2.4755 H   0  0  0  0  0  0  0  0  0  0  0  0
    5.7730    1.4819    3.1050 H   0  0  0  0  0  0  0  0  0  0  0  0
    7.1306    0.2216    1.5562 H   0  0  0  0  0  0  0  0  0  0  0  0
    6.1862   -3.0620   -0.9446 H   0  0  0  0  0  0  0  0  0  0  0  0
    3.9589   -2.1443   -1.3346 H   0  0  0  0  0  0  0  0  0  0  0  0
    3.0214    1.2263   -0.4379 H   0  0  0  0  0  0  0  0  0  0  0  0
    0.6733    0.6867   -1.8387 H   0  0  0  0  0  0  0  0  0  0  0  0
    0.7688    1.8776    0.1988 H   0  0  0  0  0  0  0  0  0  0  0  0
   -1.3416    1.3311    1.4489 H   0  0  0  0  0  0  0  0  0  0  0  0
   -0.9622    2.5421   -1.3643 H   0  0  0  0  0  0  0  0  0  0  0  0
   -0.4934    3.2050    0.1678 H   0  0  0  0  0  0  0  0  0  0  0  0
   -4.6413    4.0711   -0.3081 H   0  0  0  0  0  0  0  0  0  0  0  0
   -4.4286    2.3378   -0.8874 H   0  0  0  0  0  0  0  0  0  0  0  0
   -2.6245    3.2318   -2.5421 H   0  0  0  0  0  0  0  0  0  0  0  0
   -2.9349    4.9384   -1.9044 H   0  0  0  0  0  0  0  0  0  0  0  0
   -3.4908    6.3091    1.2142 H   0  0  0  0  0  0  0  0  0  0  0  0
   -0.2137   -1.6121   -0.2165 H   0  0  0  0  0  0  0  0  0  0  0  0
   -1.3652   -3.3035   -1.1559 H   0  0  0  0  0  0  0  0  0  0  0  0
   -1.9031   -4.5353   -3.1460 H   0  0  0  0  0  0  0  0  0  0  0  0
   -1.1220   -1.0478   -5.4296 H   0  0  0  0  0  0  0  0  0  0  0  0
   -0.5758    0.2229   -3.3693 H   0  0  0  0  0  0  0  0  0  0  0  0
   -3.7185    0.9138    1.2688 H   0  0  0  0  0  0  0  0  0  0  0  0
   -4.7490    0.0373    3.2953 H   0  0  0  0  0  0  0  0  0  0  0  0
   -3.2143   -4.2339    5.1845 H   0  0  0  0  0  0  0  0  0  0  0  0
   -4.2474   -4.3119    3.6431 H   0  0  0  0  0  0  0  0  0  0  0  0
   -1.1862   -2.4651    1.0875 H   0  0  0  0  0  0  0  0  0  0  0  0
  1  2  1  0
  2  3  1  0
  3  4  2  0
  4  5  1  0
  5  6  2  0
  6  7  1  0
  7  8  2  0
  8  9  1  0
  9 10  1  0
 10 11  2  0
 10 12  1  0
 12 13  1  0
 13 14  1  0
 14 15  1  0
 15 16  1  0
 16 17  1  0
 17 18  1  0
 16 19  1  0
 19 20  1  0
 19 21  2  0
 14 22  1  0
 22 23  1  6
 23 24  3  0
 22 25  1  0
 25 26  1  0
 26 27  2  0
 27 28  1  0
 28 29  2  0
 29 30  1  0
 29 31  1  0
 31 32  2  0
 22 33  1  0
 33 34  2  0
 34 35  1  0
 35 36  2  0
 36 37  1  0
 37 38  1  0
 38 39  1  0
 39 40  1  0
 40 41  2  0
  5 42  1  0
 42 43  3  0
  8  3  1  0
 25 12  1  0
 32 26  1  0
 41 33  1  0
 18 16  1  0
 40 36  1  0
  1 44  1  0
  1 45  1  0
  1 46  1  0
  4 47  1  0
  6 48  1  0
  7 49  1  0
  9 50  1  0
 12 51  1  6
 13 52  1  0
 14 53  1  1
 15 54  1  0
 15 55  1  0
 17 56  1  0
 17 57  1  0
 18 58  1  0
 18 59  1  0
 20 60  1  0
 25 61  1  1
 27 62  1  0
 28 63  1  0
 31 64  1  0
 32 65  1  0
 34 66  1  0
 35 67  1  0
 38 68  1  0
 38 69  1  0
 41 70  1  0
M  END
$$$$
[H]c1nc([H])c2c(c1[H])c(=O)n(C1([H])C([H])([H])C([H])([H])C([H])([H])C([H])([H])C1([H])[H])c(=O)n2C([H])([H])C([H])(C([H])([H])[H])C([H])([H])[H]
     RDKit          3D

 45 47  0  0  0  0  0  0  0  0999 V2000
   -4.9062   -1.2483   -0.6108 C   0  0  0  0  0  0  0  0  0  0  0  0
   -3.6311   -0.8135    0.0522 C   0  0  0  0  0  0  0  0  0  0  0  0
   -2.9574   -1.9859    0.6466 C   0  0  0  0  0  0  0  0  0  0  0  0
   -2.8188   -0.0307   -0.9552 C   0  0  0  0  0  0  0  0  0  0  0  0
   -1.5770    0.4581   -0.4955 N   0  0  0  0  0  0  0  0  0  0  0  0
   -1.4948    1.6639    0.0901 C   0  0  0  0  0  0  0  0  0  0  0  0
   -2.5833    2.4794    0.2849 C   0  0  0  0  0  0  0  0  0  0  0  0
   -2.4630    3.6768    0.8746 N   0  0  0  0  0  0  0  0  0  0  0  0
   -1.2338    4.0999    1.2927 C   0  0  0  0  0  0  0  0  0  0  0  0
   -0.1372    3.2988    1.1064 C   0  0  0  0  0  0  0  0  0  0  0  0
   -0.2135    2.0576    0.5037 C   0  0  0  0  0  0  0  0  0  0  0  0
    0.8923    1.2550    0.3198 C   0  0  0  0  0  0  0  0  0  0  0  0
    1.9845    1.7176    0.7325 O   0  0  0  0  0  0  0  0  0  0  0  0
    0.7618    0.0545   -0.2717 N   0  0  0  0  0  0  0  0  0  0  0  0
    1.9418   -0.7767   -0.4559 C   0  0  0  0  0  0  0  0  0  0  0  0
    2.4317   -1.1865    0.8752 C   0  0  0  0  0  0  0  0  0  0  0  0
    3.8974   -1.1806    1.0954 C   0  0  0  0  0  0  0  0  0  0  0  0
    4.6915   -1.4009   -0.1783 C   0  0  0  0  0  0  0  0  0  0  0  0
    4.3368   -0.2092   -1.0436 C   0  0  0  0  0  0  0  0  0  0  0  0
    2.9001   -0.1389   -1.3871 C   0  0  0  0  0  0  0  0  0  0  0  0
   -0.4663   -0.3214   -0.6676 C   0  0  0  0  0  0  0  0  0  0  0  0
   -0.5404   -1.4534   -1.2173 O   0  0  0  0  0  0  0  0  0  0  0  0
   -4.6669   -1.4772   -1.6740 H   0  0  0  0  0  0  0  0  0  0  0  0
   -5.3035   -2.1895   -0.1646 H   0  0  0  0  0  0  0  0  0  0  0  0
   -5.7242   -0.5013   -0.5289 H   0  0  0  0  0  0  0  0  0  0  0  0
   -3.9352   -0.1317    0.8973 H   0  0  0  0  0  0  0  0  0  0  0  0
   -2.8067   -2.8313   -0.0567 H   0  0  0  0  0  0  0  0  0  0  0  0
   -2.0462   -1.7404    1.2379 H   0  0  0  0  0  0  0  0  0  0  0  0
   -3.6738   -2.3983    1.4195 H   0  0  0  0  0  0  0  0  0  0  0  0
   -3.5320    0.6612   -1.3949 H   0  0  0  0  0  0  0  0  0  0  0  0
   -2.6097   -0.7755   -1.7849 H   0  0  0  0  0  0  0  0  0  0  0  0
   -3.5437    2.1439   -0.0419 H   0  0  0  0  0  0  0  0  0  0  0  0
   -1.2134    5.0663    1.7550 H   0  0  0  0  0  0  0  0  0  0  0  0
    0.8313    3.6332    1.4363 H   0  0  0  0  0  0  0  0  0  0  0  0
    1.5628   -1.7103   -0.9725 H   0  0  0  0  0  0  0  0  0  0  0  0
    1.9769   -0.5480    1.6929 H   0  0  0  0  0  0  0  0  0  0  0  0
    2.0692   -2.2235    1.1559 H   0  0  0  0  0  0  0  0  0  0  0  0
    4.2869   -0.2409    1.5432 H   0  0  0  0  0  0  0  0  0  0  0  0
    4.2188   -1.9934    1.7962 H   0  0  0  0  0  0  0  0  0  0  0  0
    5.7751   -1.2913    0.0788 H   0  0  0  0  0  0  0  0  0  0  0  0
    4.4729   -2.3582   -0.6613 H   0  0  0  0  0  0  0  0  0  0  0  0
    5.0031   -0.2223   -1.9211 H   0  0  0  0  0  0  0  0  0  0  0  0
    4.6093    0.6962   -0.4469 H   0  0  0  0  0  0  0  0  0  0  0  0
    2.6374    0.9540   -1.5136 H   0  0  0  0  0  0  0  0  0  0  0  0
    2.7962   -0.5374   -2.4427 H   0  0  0  0  0  0  0  0  0  0  0  0
  1  2  1  0
  2  3  1  0
  2  4  1  0
  4  5  1  0
  5  6  1  0
  6  7  2  0
  7  8  1  0
  8  9  2  0
  9 10  1  0
 10 11  2  0
 11 12  1  0
 12 13  2  0
 12 14  1  0
 14 15  1  0
 15 16  1  0
 16 17  1  0
 17 18  1  0
 18 19  1  0
 19 20  1  0
 14 21  1  0
 21 22  2  0
 21  5  1  0
 11  6  1  0
 20 15  1  0
  1 23  1  0
  1 24  1  0
  1 25  1  0
  2 26  1  0
  3 27  1  0
  3 28  1  0
  3 29  1  0
  4 30  1  0
  4 31  1  0
  7 32  1  0
  9 33  1  0
 10 34  1  0
 15 35  1  0
 16 36  1  0
 16 37  1  0
 17 38  1  0
 17 39  1  0
 18 40  1  0
 18 41  1  0
 19 42  1  0
 19 43  1  0
 20 44  1  0
 20 45  1  0
M  END
$$$$
[H]OC(c1c([H])c([H])c(N2C(=O)C(C([H])([H])[H])(C([H])([H])[H])c3c([H])c([H])c(C(=O)N([H])S(=O)(=O)c4c([H])c([H])c([H])c(Cl)c4[H])c([H])c32)c([H])c1[H])(c1c([H])c([H])c([N+](=O)[O-])c([H])c1[H])C([H])([H])N([H])S(=O)(=O)c1c([H])c([H])c(N(C([H])([H])[H])C([H])([H])C([H])([H])[H])c([H])c1[H]
     RDKit          3D

 95100  0  0  0  0  0  0  0  0999 V2000
   -9.4381    3.8154   -1.8601 C   0  0  0  0  0  0  0  0  0  0  0  0
   -8.8987    2.4328   -2.1597 C   0  0  0  0  0  0  0  0  0  0  0  0
   -7.8389    2.4499   -3.1285 N   0  0  0  0  0  0  0  0  0  0  0  0
   -8.1505    2.8116   -4.4961 C   0  0  0  0  0  0  0  0  0  0  0  0
   -6.4968    2.1256   -2.8094 C   0  0  0  0  0  0  0  0  0  0  0  0
   -5.5944    3.0661   -2.3979 C   0  0  0  0  0  0  0  0  0  0  0  0
   -4.2725    2.7297   -2.0893 C   0  0  0  0  0  0  0  0  0  0  0  0
   -3.8497    1.4233   -2.1960 C   0  0  0  0  0  0  0  0  0  0  0  0
   -4.7576    0.4686   -2.6110 C   0  0  0  0  0  0  0  0  0  0  0  0
   -6.0666    0.8224   -2.9133 C   0  0  0  0  0  0  0  0  0  0  0  0
   -2.2252    0.9526   -1.8300 S   0  0  0  0  0  0  0  0  0  0  0  0
   -1.3294    2.1568   -2.0865 O   0  0  0  0  0  0  0  0  0  0  0  0
   -1.7106   -0.1419   -2.7075 O   0  0  0  0  0  0  0  0  0  0  0  0
   -2.0232    0.5342   -0.1843 N   0  0  0  0  0  0  0  0  0  0  0  0
   -2.8429   -0.5965    0.2098 C   0  0  0  0  0  0  0  0  0  0  0  0
   -2.5683   -0.8517    1.6653 C   0  0  0  0  0  0  0  0  0  0  0  0
   -2.9103    0.3134    2.3484 O   0  0  0  0  0  0  0  0  0  0  0  0
   -3.4269   -1.9228    2.2300 C   0  0  0  0  0  0  0  0  0  0  0  0
   -3.2786   -2.2002    3.5765 C   0  0  0  0  0  0  0  0  0  0  0  0
   -4.0128   -3.1666    4.2223 C   0  0  0  0  0  0  0  0  0  0  0  0
   -4.9311   -3.8950    3.5279 C   0  0  0  0  0  0  0  0  0  0  0  0
   -5.0930   -3.6292    2.1743 C   0  0  0  0  0  0  0  0  0  0  0  0
   -4.3462   -2.6518    1.5347 C   0  0  0  0  0  0  0  0  0  0  0  0
   -5.6875   -4.8899    4.1934 N   0  0  0  0  0  0  0  0  0  0  0  0
   -6.6294   -5.6507    3.5353 O   0  0  0  0  0  0  0  0  0  0  0  0
   -5.5183   -5.1053    5.4079 O   0  0  0  0  0  0  0  0  0  0  0  0
   -1.1179   -1.1906    1.8269 C   0  0  0  0  0  0  0  0  0  0  0  0
   -0.2932   -0.4441    2.6438 C   0  0  0  0  0  0  0  0  0  0  0  0
    1.0495   -0.7561    2.8090 C   0  0  0  0  0  0  0  0  0  0  0  0
    1.6078   -1.8332    2.1551 C   0  0  0  0  0  0  0  0  0  0  0  0
    0.7841   -2.5787    1.3387 C   0  0  0  0  0  0  0  0  0  0  0  0
   -0.5539   -2.2657    1.1757 C   0  0  0  0  0  0  0  0  0  0  0  0
    2.9990   -2.1885    2.3116 N   0  0  0  0  0  0  0  0  0  0  0  0
    3.5032   -3.0811    3.2923 C   0  0  0  0  0  0  0  0  0  0  0  0
    2.8216   -3.6951    4.1690 O   0  0  0  0  0  0  0  0  0  0  0  0
    4.9664   -3.1927    3.1402 C   0  0  0  0  0  0  0  0  0  0  0  0
    5.4072   -4.6172    2.8823 C   0  0  0  0  0  0  0  0  0  0  0  0
    5.5865   -2.6515    4.4185 C   0  0  0  0  0  0  0  0  0  0  0  0
    5.2610   -2.3009    1.9989 C   0  0  0  0  0  0  0  0  0  0  0  0
    6.4422   -1.9514    1.3407 C   0  0  0  0  0  0  0  0  0  0  0  0
    6.4092   -1.0698    0.2792 C   0  0  0  0  0  0  0  0  0  0  0  0
    5.2411   -0.5030   -0.1753 C   0  0  0  0  0  0  0  0  0  0  0  0
    4.0763   -0.8471    0.4730 C   0  0  0  0  0  0  0  0  0  0  0  0
    4.0938   -1.7427    1.5546 C   0  0  0  0  0  0  0  0  0  0  0  0
    5.2058    0.4416   -1.3102 C   0  0  0  0  0  0  0  0  0  0  0  0
    4.0932    0.9400   -1.6393 O   0  0  0  0  0  0  0  0  0  0  0  0
    6.3533    0.8095   -2.0380 N   0  0  0  0  0  0  0  0  0  0  0  0
    6.2345    1.9110   -3.3414 S   0  0  0  0  0  0  0  0  0  0  0  0
    4.8319    2.5025   -3.3222 O   0  0  0  0  0  0  0  0  0  0  0  0
    6.4503    1.2091   -4.6708 O   0  0  0  0  0  0  0  0  0  0  0  0
    7.4085    3.1969   -3.2357 C   0  0  0  0  0  0  0  0  0  0  0  0
    8.6775    3.1099   -3.7765 C   0  0  0  0  0  0  0  0  0  0  0  0
    9.5862    4.1398   -3.6821 C   0  0  0  0  0  0  0  0  0  0  0  0
    9.2425    5.3017   -3.0337 C   0  0  0  0  0  0  0  0  0  0  0  0
    7.9846    5.4202   -2.4836 C   0  0  0  0  0  0  0  0  0  0  0  0
    7.5455    6.9149   -1.6511 Cl  0  0  0  0  0  0  0  0  0  0  0  0
    7.0873    4.3692   -2.5918 C   0  0  0  0  0  0  0  0  0  0  0  0
   -9.1233    4.1822   -0.8663 H   0  0  0  0  0  0  0  0  0  0  0  0
   -9.0988    4.5711   -2.5974 H   0  0  0  0  0  0  0  0  0  0  0  0
  -10.5603    3.7968   -1.9112 H   0  0  0  0  0  0  0  0  0  0  0  0
   -9.7356    1.8041   -2.5782 H   0  0  0  0  0  0  0  0  0  0  0  0
   -8.5948    1.9289   -1.2059 H   0  0  0  0  0  0  0  0  0  0  0  0
   -7.9855    3.8902   -4.6603 H   0  0  0  0  0  0  0  0  0  0  0  0
   -7.5646    2.2060   -5.2261 H   0  0  0  0  0  0  0  0  0  0  0  0
   -9.2267    2.6195   -4.7284 H   0  0  0  0  0  0  0  0  0  0  0  0
   -5.9258    4.1013   -2.3119 H   0  0  0  0  0  0  0  0  0  0  0  0
   -3.5965    3.5101   -1.7678 H   0  0  0  0  0  0  0  0  0  0  0  0
   -4.4101   -0.5523   -2.6902 H   0  0  0  0  0  0  0  0  0  0  0  0
   -6.7320    0.0337   -3.2332 H   0  0  0  0  0  0  0  0  0  0  0  0
   -2.0535    1.3170    0.4741 H   0  0  0  0  0  0  0  0  0  0  0  0
   -2.5683   -1.4697   -0.4195 H   0  0  0  0  0  0  0  0  0  0  0  0
   -3.9316   -0.4183    0.0649 H   0  0  0  0  0  0  0  0  0  0  0  0
   -2.7254    0.1688    3.2979 H   0  0  0  0  0  0  0  0  0  0  0  0
   -2.5573   -1.6506    4.1890 H   0  0  0  0  0  0  0  0  0  0  0  0
   -3.8542   -3.3395    5.2722 H   0  0  0  0  0  0  0  0  0  0  0  0
   -5.8259   -4.2200    1.6509 H   0  0  0  0  0  0  0  0  0  0  0  0
   -4.4711   -2.4436    0.4802 H   0  0  0  0  0  0  0  0  0  0  0  0
   -0.7092    0.4065    3.1670 H   0  0  0  0  0  0  0  0  0  0  0  0
    1.6955   -0.1758    3.4449 H   0  0  0  0  0  0  0  0  0  0  0  0
    1.2250   -3.4404    0.8132 H   0  0  0  0  0  0  0  0  0  0  0  0
   -1.1813   -2.8638    0.5304 H   0  0  0  0  0  0  0  0  0  0  0  0
    5.4915   -4.7701    1.7736 H   0  0  0  0  0  0  0  0  0  0  0  0
    6.3999   -4.7759    3.3781 H   0  0  0  0  0  0  0  0  0  0  0  0
    4.6855   -5.3529    3.2431 H   0  0  0  0  0  0  0  0  0  0  0  0
    5.3236   -1.5750    4.4792 H   0  0  0  0  0  0  0  0  0  0  0  0
    6.6743   -2.7280    4.3380 H   0  0  0  0  0  0  0  0  0  0  0  0
    5.1426   -3.1897    5.2696 H   0  0  0  0  0  0  0  0  0  0  0  0
    7.3432   -2.4022    1.7082 H   0  0  0  0  0  0  0  0  0  0  0  0
    7.3386   -0.8126   -0.2166 H   0  0  0  0  0  0  0  0  0  0  0  0
    3.1542   -0.4132    0.1296 H   0  0  0  0  0  0  0  0  0  0  0  0
    7.2837    0.4276   -1.8065 H   0  0  0  0  0  0  0  0  0  0  0  0
    8.9708    2.2070   -4.2902 H   0  0  0  0  0  0  0  0  0  0  0  0
   10.5689    4.0558   -4.1079 H   0  0  0  0  0  0  0  0  0  0  0  0
    9.9433    6.1298   -2.9460 H   0  0  0  0  0  0  0  0  0  0  0  0
    6.1037    4.4792   -2.1546 H   0  0  0  0  0  0  0  0  0  0  0  0
  1  2  1  0
  2  3  1  0
  3  4  1  0
  3  5  1  0
  5  6  2  0
  6  7  1  0
  7  8  2  0
  8  9  1  0
  9 10  2  0
  8 11  1  0
 11 12  2  0
 11 13  2  0
 11 14  1  0
 14 15  1  0
 15 16  1  0
 16 17  1  0
 16 18  1  0
 18 19  2  0
 19 20  1  0
 20 21  2  0
 21 22  1  0
 22 23  2  0
 21 24  1  0
 24 25  1  0
 24 26  2  0
 16 27  1  0
 27 28  2  0
 28 29  1  0
 29 30  2  0
 30 31  1  0
 31 32  2  0
 30 33  1  0
 33 34  1  0
 34 35  2  0
 34 36  1  0
 36 37  1  0
 36 38  1  0
 36 39  1  0
 39 40  2  0
 40 41  1  0
 41 42  2  0
 42 43  1  0
 43 44  2  0
 42 45  1  0
 45 46  2  0
 45 47  1  0
 47 48  1  0
 48 49  2  0
 48 50  2  0
 48 51  1  0
 51 52  2  0
 52 53  1  0
 53 54  2  0
 54 55  1  0
 55 56  1  0
 55 57  2  0
 10  5  1  0
 23 18  1  0
 32 27  1  0
 44 33  1  0
 57 51  1  0
 44 39  1  0
  1 58  1  0
  1 59  1  0
  1 60  1  0
  2 61  1  0
  2 62  1  0
  4 63  1  0
  4 64  1  0
  4 65  1  0
  6 66  1  0
  7 67  1  0
  9 68  1  0
 10 69  1  0
 14 70  1  0
 15 71  1  0
 15 72  1  0
 17 73  1  0
 19 74  1  0
 20 75  1  0
 22 76  1  0
 23 77  1  0
 28 78  1  0
 29 79  1  0
 31 80  1  0
 32 81  1  0
 37 82  1  0
 37 83  1  0
 37 84  1  0
 38 85  1  0
 38 86  1  0
 38 87  1  0
 40 88  1  0
 41 89  1  0
 43 90  1  0
 47 91  1  0
 52 92  1  0
 53 93  1  0
 54 94  1  0
 57 95  1  0
M  CHG  2  24   1  25  -1
M  END
$$$$
[H]N=C(N([H])[H])C([H])([H])C([H])([H])N([H])C(=O)[C@@]([H])(N([H])C(=O)[C@@]([H])(N([H])C(=O)[C@@]([H])(N([H])C(=O)[C@@]([H])(N([H])C(=O)C([H])([H])[H])C([H])([H])C([H])([H])C(=O)N([H])[H])C([H])([H])C([H])([H])C(=O)N([H])[H])C([H])([H])C([H])(C([H])([H])[H])C([H])([H])[H])C([H])([H])c1c([H])c([H])c([H])c([H])c1[H]
     RDKit          3D

 93 93  0  0  0  0  0  0  0  0999 V2000
    0.8838   -3.5645    0.4400 C   0  0  0  0  0  0  0  0  0  0  0  0
    0.4486   -2.9716    1.7236 C   0  0  0  0  0  0  0  0  0  0  0  0
    0.8930   -4.0713    2.7819 C   0  0  0  0  0  0  0  0  0  0  0  0
    0.9950   -1.7325    2.2421 C   0  0  0  0  0  0  0  0  0  0  0  0
    0.9565   -0.4061    1.6734 C   0  0  2  0  0  0  0  0  0  0  0  0
   -0.3289    0.1525    1.4600 N   0  0  0  0  0  0  0  0  0  0  0  0
   -1.6252   -0.0764    1.8324 C   0  0  0  0  0  0  0  0  0  0  0  0
   -2.0167   -1.0158    2.5573 O   0  0  0  0  0  0  0  0  0  0  0  0
   -2.7614    0.8236    1.3709 C   0  0  2  0  0  0  0  0  0  0  0  0
   -3.2199    1.4008    2.7448 C   0  0  0  0  0  0  0  0  0  0  0  0
   -4.2962    2.4101    2.6450 C   0  0  0  0  0  0  0  0  0  0  0  0
   -4.6296    2.8402    4.0254 C   0  0  0  0  0  0  0  0  0  0  0  0
   -3.8776    3.9110    4.6426 N   0  0  0  0  0  0  0  0  0  0  0  0
   -5.5772    2.2502    4.6174 O   0  0  0  0  0  0  0  0  0  0  0  0
   -3.8032    0.0753    0.7880 N   0  0  0  0  0  0  0  0  0  0  0  0
   -4.8340    0.4955   -0.0965 C   0  0  0  0  0  0  0  0  0  0  0  0
   -4.8755    1.7193   -0.4115 O   0  0  0  0  0  0  0  0  0  0  0  0
   -5.8369   -0.4135   -0.6498 C   0  0  2  0  0  0  0  0  0  0  0  0
   -5.6132   -0.7032   -2.1320 C   0  0  0  0  0  0  0  0  0  0  0  0
   -5.7264    0.5140   -2.9621 C   0  0  0  0  0  0  0  0  0  0  0  0
   -5.5738    0.1728   -4.4318 C   0  0  0  0  0  0  0  0  0  0  0  0
   -6.1394    1.0860   -5.3951 N   0  0  0  0  0  0  0  0  0  0  0  0
   -4.9635   -0.8723   -4.7214 O   0  0  0  0  0  0  0  0  0  0  0  0
   -7.2052    0.1171   -0.6518 N   0  0  0  0  0  0  0  0  0  0  0  0
   -8.2602   -0.7686   -0.4012 C   0  0  0  0  0  0  0  0  0  0  0  0
   -9.6898   -0.4049   -0.3864 C   0  0  0  0  0  0  0  0  0  0  0  0
   -7.9924   -1.9877   -0.1751 O   0  0  0  0  0  0  0  0  0  0  0  0
    1.7661   -0.1072    0.4403 C   0  0  0  0  0  0  0  0  0  0  0  0
    0.9723   -0.2149   -0.6208 O   0  0  0  0  0  0  0  0  0  0  0  0
    3.0390    0.2347    0.2322 N   0  0  0  0  0  0  0  0  0  0  0  0
    4.3664    0.5923    0.0056 C   0  0  1  0  0  0  0  0  0  0  0  0
    5.2578   -0.4623   -0.5278 C   0  0  0  0  0  0  0  0  0  0  0  0
    5.5104   -1.6281    0.3061 C   0  0  0  0  0  0  0  0  0  0  0  0
    6.7110   -1.5993    1.0413 C   0  0  0  0  0  0  0  0  0  0  0  0
    7.0679   -2.6327    1.8851 C   0  0  0  0  0  0  0  0  0  0  0  0
    6.2052   -3.7273    1.9970 C   0  0  0  0  0  0  0  0  0  0  0  0
    5.0468   -3.7538    1.2864 C   0  0  0  0  0  0  0  0  0  0  0  0
    4.7023   -2.6962    0.4391 C   0  0  0  0  0  0  0  0  0  0  0  0
    4.5345    1.8600   -0.7498 C   0  0  0  0  0  0  0  0  0  0  0  0
    3.8510    2.8732   -0.3952 O   0  0  0  0  0  0  0  0  0  0  0  0
    5.4080    2.0258   -1.8555 N   0  0  0  0  0  0  0  0  0  0  0  0
    5.4914    3.3313   -2.4875 C   0  0  0  0  0  0  0  0  0  0  0  0
    6.4241    3.2942   -3.6542 C   0  0  0  0  0  0  0  0  0  0  0  0
    7.7660    2.8616   -3.2259 C   0  0  0  0  0  0  0  0  0  0  0  0
    8.2047    1.5471   -3.4631 N   0  0  0  0  0  0  0  0  0  0  0  0
    8.5669    3.7186   -2.6244 N   0  0  0  0  0  0  0  0  0  0  0  0
    0.2251   -4.4898    0.2481 H   0  0  0  0  0  0  0  0  0  0  0  0
    0.7238   -2.9531   -0.4606 H   0  0  0  0  0  0  0  0  0  0  0  0
    1.9009   -4.0330    0.5037 H   0  0  0  0  0  0  0  0  0  0  0  0
   -0.6699   -3.0798    1.7650 H   0  0  0  0  0  0  0  0  0  0  0  0
    1.9931   -4.0005    2.7877 H   0  0  0  0  0  0  0  0  0  0  0  0
    0.5846   -5.0540    2.4484 H   0  0  0  0  0  0  0  0  0  0  0  0
    0.5360   -3.7635    3.7850 H   0  0  0  0  0  0  0  0  0  0  0  0
    2.0586   -1.9866    2.6291 H   0  0  0  0  0  0  0  0  0  0  0  0
    0.5060   -1.6243    3.2919 H   0  0  0  0  0  0  0  0  0  0  0  0
    1.3712    0.2550    2.5567 H   0  0  0  0  0  0  0  0  0  0  0  0
   -0.2640    1.0651    0.7850 H   0  0  0  0  0  0  0  0  0  0  0  0
   -2.4149    1.6582    0.8082 H   0  0  0  0  0  0  0  0  0  0  0  0
   -3.6122    0.4966    3.2826 H   0  0  0  0  0  0  0  0  0  0  0  0
   -2.3625    1.7826    3.3001 H   0  0  0  0  0  0  0  0  0  0  0  0
   -4.0880    3.2411    1.9662 H   0  0  0  0  0  0  0  0  0  0  0  0
   -5.2439    1.8880    2.2818 H   0  0  0  0  0  0  0  0  0  0  0  0
   -3.5760    3.8023    5.6227 H   0  0  0  0  0  0  0  0  0  0  0  0
   -3.6530    4.7504    4.0821 H   0  0  0  0  0  0  0  0  0  0  0  0
   -3.8232   -0.9638    1.0175 H   0  0  0  0  0  0  0  0  0  0  0  0
   -5.8691   -1.4074   -0.1812 H   0  0  0  0  0  0  0  0  0  0  0  0
   -6.4003   -1.4612   -2.4301 H   0  0  0  0  0  0  0  0  0  0  0  0
   -4.6334   -1.2294   -2.2563 H   0  0  0  0  0  0  0  0  0  0  0  0
   -5.0250    1.2946   -2.6935 H   0  0  0  0  0  0  0  0  0  0  0  0
   -6.7902    0.8936   -2.9011 H   0  0  0  0  0  0  0  0  0  0  0  0
   -6.8352    1.7870   -5.0815 H   0  0  0  0  0  0  0  0  0  0  0  0
   -5.7948    0.9929   -6.3728 H   0  0  0  0  0  0  0  0  0  0  0  0
   -7.3304    1.1017   -0.8306 H   0  0  0  0  0  0  0  0  0  0  0  0
  -10.2185   -0.9985   -1.1808 H   0  0  0  0  0  0  0  0  0  0  0  0
  -10.1927   -0.6068    0.5710 H   0  0  0  0  0  0  0  0  0  0  0  0
   -9.8688    0.6415   -0.6645 H   0  0  0  0  0  0  0  0  0  0  0  0
    2.8435    0.2660   -1.1100 H   0  0  0  0  0  0  0  0  0  0  0  0
    4.8657    0.8513    1.0367 H   0  0  0  0  0  0  0  0  0  0  0  0
    6.2248   -0.0169   -0.8185 H   0  0  0  0  0  0  0  0  0  0  0  0
    4.8069   -0.8826   -1.5015 H   0  0  0  0  0  0  0  0  0  0  0  0
    7.3951   -0.7776    0.9753 H   0  0  0  0  0  0  0  0  0  0  0  0
    7.9518   -2.6907    2.4730 H   0  0  0  0  0  0  0  0  0  0  0  0
    6.4487   -4.5534    2.6500 H   0  0  0  0  0  0  0  0  0  0  0  0
    4.3672   -4.6214    1.3858 H   0  0  0  0  0  0  0  0  0  0  0  0
    3.7962   -2.7729   -0.1142 H   0  0  0  0  0  0  0  0  0  0  0  0
    5.9675    1.2342   -2.2478 H   0  0  0  0  0  0  0  0  0  0  0  0
    5.9786    4.0015   -1.7148 H   0  0  0  0  0  0  0  0  0  0  0  0
    4.4864    3.7686   -2.7087 H   0  0  0  0  0  0  0  0  0  0  0  0
    6.4824    4.2966   -4.1531 H   0  0  0  0  0  0  0  0  0  0  0  0
    6.0133    2.6136   -4.3973 H   0  0  0  0  0  0  0  0  0  0  0  0
    7.5811    0.8855   -3.9712 H   0  0  0  0  0  0  0  0  0  0  0  0
    9.1367    1.2006   -3.1522 H   0  0  0  0  0  0  0  0  0  0  0  0
    8.1986    4.7022   -2.4708 H   0  0  0  0  0  0  0  0  0  0  0  0
  1  2  1  0
  2  3  1  0
  2  4  1  0
  4  5  1  0
  5  6  1  0
  6  7  1  0
  7  8  2  0
  7  9  1  0
  9 10  1  0
 10 11  1  0
 11 12  1  0
 12 13  1  0
 12 14  2  0
  9 15  1  0
 15 16  1  0
 16 17  2  0
 16 18  1  0
 18 19  1  0
 19 20  1  0
 20 21  1  0
 21 22  1  0
 21 23  2  0
 18 24  1  0
 24 25  1  0
 25 26  1  0
 25 27  2  0
  5 28  1  0
 28 29  2  0
 28 30  1  0
 30 31  1  0
 31 32  1  0
 32 33  1  0
 33 34  2  0
 34 35  1  0
 35 36  2  0
 36 37  1  0
 37 38  2  0
 31 39  1  0
 39 40  2  0
 39 41  1  0
 41 42  1  0
 42 43  1  0
 43 44  1  0
 44 45  1  0
 44 46  2  3
 38 33  1  0
  1 47  1  0
  1 48  1  0
  1 49  1  0
  2 50  1  0
  3 51  1  0
  3 52  1  0
  3 53  1  0
  4 54  1  0
  4 55  1  0
  5 56  1  1
  6 57  1  0
  9 58  1  6
 10 59  1  0
 10 60  1  0
 11 61  1  0
 11 62  1  0
 13 63  1  0
 13 64  1  0
 15 65  1  0
 18 66  1  1
 19 67  1  0
 19 68  1  0
 20 69  1  0
 20 70  1  0
 22 71  1  0
 22 72  1  0
 24 73  1  0
 26 74  1  0
 26 75  1  0
 26 76  1  0
 30 77  1  0
 31 78  1  1
 32 79  1  0
 32 80  1  0
 34 81  1  0
 35 82  1  0
 36 83  1  0
 37 84  1  0
 38 85  1  0
 41 86  1  0
 42 87  1  0
 42 88  1  0
 43 89  1  0
 43 90  1  0
 45 91  1  0
 45 92  1  0
 46 93  1  0
M  END
$$$$
[H]c1nc2c(OC([H])([H])[H])nc(N([H])[H])nc2n1[H]
     RDKit          3D

 19 20  0  0  0  0  0  0  0  0999 V2000
    3.2244    0.0491    0.0759 C   0  0  0  0  0  0  0  0  0  0  0  0
    2.0231    0.8049    0.1574 O   0  0  0  0  0  0  0  0  0  0  0  0
    0.7732    0.2130    0.0486 C   0  0  0  0  0  0  0  0  0  0  0  0
    0.5784   -1.0953   -0.1392 N   0  0  0  0  0  0  0  0  0  0  0  0
   -0.6455   -1.6520   -0.2425 C   0  0  0  0  0  0  0  0  0  0  0  0
   -0.7962   -3.0679   -0.4445 N   0  0  0  0  0  0  0  0  0  0  0  0
   -1.7069   -0.8318   -0.1491 N   0  0  0  0  0  0  0  0  0  0  0  0
   -1.6020    0.4973    0.0397 C   0  0  0  0  0  0  0  0  0  0  0  0
   -2.4573    1.5281    0.1669 N   0  0  0  0  0  0  0  0  0  0  0  0
   -1.7948    2.6849    0.3429 C   0  0  0  0  0  0  0  0  0  0  0  0
   -0.4889    2.3633    0.3246 N   0  0  0  0  0  0  0  0  0  0  0  0
   -0.3276    1.0434    0.1426 C   0  0  0  0  0  0  0  0  0  0  0  0
    4.0388    0.5459    0.6525 H   0  0  0  0  0  0  0  0  0  0  0  0
    3.1028   -0.9788    0.4438 H   0  0  0  0  0  0  0  0  0  0  0  0
    3.4839   -0.0014   -1.0111 H   0  0  0  0  0  0  0  0  0  0  0  0
   -0.3915   -3.7384    0.2607 H   0  0  0  0  0  0  0  0  0  0  0  0
   -1.2974   -3.4628   -1.2734 H   0  0  0  0  0  0  0  0  0  0  0  0
   -3.5046    1.4088    0.1286 H   0  0  0  0  0  0  0  0  0  0  0  0
   -2.2119    3.6898    0.4755 H   0  0  0  0  0  0  0  0  0  0  0  0
  1  2  1  0
  2  3  1  0
  3  4  2  0
  4  5  1  0
  5  6  1  0
  5  7  2  0
  7  8  1  0
  8  9  1  0
  9 10  1  0
 10 11  2  0
 11 12  1  0
 12  3  1  0
 12  8  2  0
  1 13  1  0
  1 14  1  0
  1 15  1  0
  6 16  1  0
  6 17  1  0
  9 18  1  0
 10 19  1  0
M  END
$$$$
[H]OC(=O)c1c([H])c(F)c([H])c(C([H])([H])N2C([H])([H])C([H])([H])C([H])([H])[C@@]([H])(S(=O)(=O)c3c([H])c([H])c(OC([H])([H])F)c([H])c3[H])C2([H])[H])c1[H]
     RDKit          3D

 50 52  0  0  0  0  0  0  0  0999 V2000
   -7.6411   -0.7417    1.6849 O   0  0  0  0  0  0  0  0  0  0  0  0
   -7.5625    0.2463    0.7204 C   0  0  0  0  0  0  0  0  0  0  0  0
   -8.5837    0.9309    0.4821 O   0  0  0  0  0  0  0  0  0  0  0  0
   -6.3085    0.4593    0.0179 C   0  0  0  0  0  0  0  0  0  0  0  0
   -6.2574    1.4560   -0.9436 C   0  0  0  0  0  0  0  0  0  0  0  0
   -5.0764    1.6698   -1.6176 C   0  0  0  0  0  0  0  0  0  0  0  0
   -5.0485    2.6473   -2.5517 F   0  0  0  0  0  0  0  0  0  0  0  0
   -3.9829    0.8831   -1.3120 C   0  0  0  0  0  0  0  0  0  0  0  0
   -4.0178   -0.1055   -0.3643 C   0  0  0  0  0  0  0  0  0  0  0  0
   -2.8501   -0.9673   -0.0093 C   0  0  0  0  0  0  0  0  0  0  0  0
   -1.6546   -0.3058   -0.3873 N   0  0  0  0  0  0  0  0  0  0  0  0
   -1.3901    0.9420    0.2307 C   0  0  0  0  0  0  0  0  0  0  0  0
   -0.3111    0.9227    1.2714 C   0  0  0  0  0  0  0  0  0  0  0  0
    0.9317    0.2097    0.8576 C   0  0  0  0  0  0  0  0  0  0  0  0
    0.7984   -0.4883   -0.4658 C   0  0  2  0  0  0  0  0  0  0  0  0
   -0.5361   -1.1273   -0.6682 C   0  0  0  0  0  0  0  0  0  0  0  0
    2.0226   -1.8016   -0.4961 S   0  0  0  0  0  0  0  0  0  0  0  0
    1.9820   -2.5041   -1.8295 O   0  0  0  0  0  0  0  0  0  0  0  0
    1.6840   -2.8023    0.5588 O   0  0  0  0  0  0  0  0  0  0  0  0
    3.5734   -1.0844   -0.2418 C   0  0  0  0  0  0  0  0  0  0  0  0
    4.3229   -0.6513   -1.3069 C   0  0  0  0  0  0  0  0  0  0  0  0
    5.5538   -0.0837   -1.0846 C   0  0  0  0  0  0  0  0  0  0  0  0
    6.0883    0.0777    0.1800 C   0  0  0  0  0  0  0  0  0  0  0  0
    7.3337    0.6537    0.3818 O   0  0  0  0  0  0  0  0  0  0  0  0
    8.0552    1.0789   -0.7559 C   0  0  0  0  0  0  0  0  0  0  0  0
    9.2656    1.6298   -0.4375 F   0  0  0  0  0  0  0  0  0  0  0  0
    5.3061   -0.3703    1.2368 C   0  0  0  0  0  0  0  0  0  0  0  0
    4.0680   -0.9430    1.0371 C   0  0  0  0  0  0  0  0  0  0  0  0
   -5.2133   -0.3190    0.3152 C   0  0  0  0  0  0  0  0  0  0  0  0
   -6.9263   -0.8719    2.3997 H   0  0  0  0  0  0  0  0  0  0  0  0
   -7.1504    2.0349   -1.1332 H   0  0  0  0  0  0  0  0  0  0  0  0
   -3.0394    1.0389   -1.8421 H   0  0  0  0  0  0  0  0  0  0  0  0
   -2.8822   -1.2168    1.0833 H   0  0  0  0  0  0  0  0  0  0  0  0
   -2.9032   -1.9384   -0.5342 H   0  0  0  0  0  0  0  0  0  0  0  0
   -1.1353    1.6975   -0.5388 H   0  0  0  0  0  0  0  0  0  0  0  0
   -2.3299    1.2792    0.7555 H   0  0  0  0  0  0  0  0  0  0  0  0
   -0.0874    2.0015    1.5162 H   0  0  0  0  0  0  0  0  0  0  0  0
   -0.6730    0.4871    2.2257 H   0  0  0  0  0  0  0  0  0  0  0  0
    1.2234   -0.5639    1.6043 H   0  0  0  0  0  0  0  0  0  0  0  0
    1.7612    0.9596    0.7551 H   0  0  0  0  0  0  0  0  0  0  0  0
    1.0124    0.2468   -1.2657 H   0  0  0  0  0  0  0  0  0  0  0  0
   -0.5924   -1.4223   -1.7564 H   0  0  0  0  0  0  0  0  0  0  0  0
   -0.5839   -2.1132   -0.1200 H   0  0  0  0  0  0  0  0  0  0  0  0
    3.9521   -0.7541   -2.3097 H   0  0  0  0  0  0  0  0  0  0  0  0
    6.1563    0.2632   -1.9229 H   0  0  0  0  0  0  0  0  0  0  0  0
    8.2711    0.2165   -1.4448 H   0  0  0  0  0  0  0  0  0  0  0  0
    7.4042    1.7684   -1.3309 H   0  0  0  0  0  0  0  0  0  0  0  0
    5.7299   -0.2420    2.2359 H   0  0  0  0  0  0  0  0  0  0  0  0
    3.4932   -1.2793    1.9126 H   0  0  0  0  0  0  0  0  0  0  0  0
   -5.2526   -1.1037    1.0717 H   0  0  0  0  0  0  0  0  0  0  0  0
  1  2  1  0
  2  3  2  0
  2  4  1  0
  4  5  2  0
  5  6  1  0
  6  7  1  0
  6  8  2  0
  8  9  1  0
  9 10  1  0
 10 11  1  0
 11 12  1  0
 12 13  1  0
 13 14  1  0
 14 15  1  0
 15 16  1  0
 15 17  1  0
 17 18  2  0
 17 19  2  0
 17 20  1  0
 20 21  2  0
 21 22  1  0
 22 23  2  0
 23 24  1  0
 24 25  1  0
 25 26  1  0
 23 27  1  0
 27 28  2  0
  9 29  2  0
 29  4  1  0
 16 11  1  0
 28 20  1  0
  1 30  1  0
  5 31  1  0
  8 32  1  0
 10 33  1  0
 10 34  1  0
 12 35  1  0
 12 36  1  0
 13 37  1  0
 13 38  1  0
 14 39  1  0
 14 40  1  0
 15 41  1  6
 16 42  1  0
 16 43  1  0
 21 44  1  0
 22 45  1  0
 25 46  1  0
 25 47  1  0
 27 48  1  0
 28 49  1  0
 29 50  1  0
M  END
$$$$
[H]OC(=O)C([H])([H])Oc1c([H])c([H])c([H])c2c1c(C(=O)C(=O)N([H])[H])c(C([H])([H])C([H])([H])[H])n2C([H])([H])c1c([H])c([H])c([H])c([H])c1[H]
     RDKit          3D

 48 50  0  0  0  0  0  0  0  0999 V2000
    1.5527    2.5939    1.3463 C   0  0  0  0  0  0  0  0  0  0  0  0
    1.2316    2.3902   -0.1145 C   0  0  0  0  0  0  0  0  0  0  0  0
    0.5790    1.0839   -0.3959 C   0  0  0  0  0  0  0  0  0  0  0  0
   -0.7546    0.8284   -0.0584 C   0  0  0  0  0  0  0  0  0  0  0  0
   -1.6609    1.7647    0.6190 C   0  0  0  0  0  0  0  0  0  0  0  0
   -1.7477    1.7945    1.8709 O   0  0  0  0  0  0  0  0  0  0  0  0
   -2.4924    2.6941   -0.1508 C   0  0  0  0  0  0  0  0  0  0  0  0
   -3.3733    3.6062    0.4909 N   0  0  0  0  0  0  0  0  0  0  0  0
   -2.4103    2.6684   -1.3997 O   0  0  0  0  0  0  0  0  0  0  0  0
   -1.0611   -0.4479   -0.4719 C   0  0  0  0  0  0  0  0  0  0  0  0
   -2.2096   -1.2165   -0.4104 C   0  0  0  0  0  0  0  0  0  0  0  0
   -3.3678   -0.6936    0.1843 O   0  0  0  0  0  0  0  0  0  0  0  0
   -4.5399   -1.4881    0.2430 C   0  0  0  0  0  0  0  0  0  0  0  0
   -5.6270   -0.7484    0.9036 C   0  0  0  0  0  0  0  0  0  0  0  0
   -5.4040    0.5373    1.3587 O   0  0  0  0  0  0  0  0  0  0  0  0
   -6.7580   -1.2805    1.0561 O   0  0  0  0  0  0  0  0  0  0  0  0
   -2.1970   -2.4876   -0.9360 C   0  0  0  0  0  0  0  0  0  0  0  0
   -1.0545   -2.9859   -1.5155 C   0  0  0  0  0  0  0  0  0  0  0  0
    0.0810   -2.2211   -1.5740 C   0  0  0  0  0  0  0  0  0  0  0  0
    0.1000   -0.9407   -1.0541 C   0  0  0  0  0  0  0  0  0  0  0  0
    1.0888   -0.0010   -1.0010 N   0  0  0  0  0  0  0  0  0  0  0  0
    2.4035   -0.1840   -1.5265 C   0  0  0  0  0  0  0  0  0  0  0  0
    3.4196   -0.7157   -0.6031 C   0  0  0  0  0  0  0  0  0  0  0  0
    3.6545   -2.0636   -0.4306 C   0  0  0  0  0  0  0  0  0  0  0  0
    4.6407   -2.5315    0.4547 C   0  0  0  0  0  0  0  0  0  0  0  0
    5.4189   -1.6693    1.1906 C   0  0  0  0  0  0  0  0  0  0  0  0
    5.1956   -0.3267    1.0277 C   0  0  0  0  0  0  0  0  0  0  0  0
    4.2369    0.1140    0.1669 C   0  0  0  0  0  0  0  0  0  0  0  0
    2.6524    2.8010    1.4141 H   0  0  0  0  0  0  0  0  0  0  0  0
    1.0249    3.4672    1.7772 H   0  0  0  0  0  0  0  0  0  0  0  0
    1.3002    1.6632    1.8777 H   0  0  0  0  0  0  0  0  0  0  0  0
    0.5874    3.2322   -0.4352 H   0  0  0  0  0  0  0  0  0  0  0  0
    2.1536    2.4698   -0.7557 H   0  0  0  0  0  0  0  0  0  0  0  0
   -4.3639    3.4363    0.6858 H   0  0  0  0  0  0  0  0  0  0  0  0
   -2.9639    4.5228    0.7831 H   0  0  0  0  0  0  0  0  0  0  0  0
   -4.8680   -1.7258   -0.8094 H   0  0  0  0  0  0  0  0  0  0  0  0
   -4.3288   -2.4634    0.7272 H   0  0  0  0  0  0  0  0  0  0  0  0
   -5.9664    1.3337    1.0917 H   0  0  0  0  0  0  0  0  0  0  0  0
   -3.1234   -3.0668   -0.8696 H   0  0  0  0  0  0  0  0  0  0  0  0
   -1.0424   -3.9898   -1.9318 H   0  0  0  0  0  0  0  0  0  0  0  0
    0.9680   -2.6586   -2.0525 H   0  0  0  0  0  0  0  0  0  0  0  0
    2.7802    0.7494   -2.0479 H   0  0  0  0  0  0  0  0  0  0  0  0
    2.3334   -0.9181   -2.3874 H   0  0  0  0  0  0  0  0  0  0  0  0
    3.0689   -2.7836   -0.9982 H   0  0  0  0  0  0  0  0  0  0  0  0
    4.7716   -3.6025    0.5411 H   0  0  0  0  0  0  0  0  0  0  0  0
    6.1641   -2.0742    1.8582 H   0  0  0  0  0  0  0  0  0  0  0  0
    5.8213    0.3567    1.6193 H   0  0  0  0  0  0  0  0  0  0  0  0
    4.0860    1.1769    0.0546 H   0  0  0  0  0  0  0  0  0  0  0  0
  1  2  1  0
  2  3  1  0
  3  4  2  0
  4  5  1  0
  5  6  2  0
  5  7  1  0
  7  8  1  0
  7  9  2  0
  4 10  1  0
 10 11  2  0
 11 12  1  0
 12 13  1  0
 13 14  1  0
 14 15  1  0
 14 16  2  0
 11 17  1  0
 17 18  2  0
 18 19  1  0
 19 20  2  0
 20 21  1  0
 21 22  1  0
 22 23  1  0
 23 24  2  0
 24 25  1  0
 25 26  2  0
 26 27  1  0
 27 28  2  0
 21  3  1  0
 28 23  1  0
 20 10  1  0
  1 29  1  0
  1 30  1  0
  1 31  1  0
  2 32  1  0
  2 33  1  0
  8 34  1  0
  8 35  1  0
 13 36  1  0
 13 37  1  0
 15 38  1  0
 17 39  1  0
 18 40  1  0
 19 41  1  0
 22 42  1  0
 22 43  1  0
 24 44  1  0
 25 45  1  0
 26 46  1  0
 27 47  1  0
 28 48  1  0
M  END
$$$$
[H]c1c([H])c(OC(F)(F)F)c([H])c(C([H])([H])N2C(=O)n3c([H])c([H])c([H])c3[C@@]2([H])c2c([H])c([H])c(C#N)c([H])c2[H])c1[H]
     RDKit          3D

 43 46  0  0  0  0  0  0  0  0999 V2000
    4.9132   -3.3665   -2.1284 F   0  0  0  0  0  0  0  0  0  0  0  0
    4.6945   -2.1980   -1.4258 C   0  0  0  0  0  0  0  0  0  0  0  0
    4.6634   -2.5391   -0.0865 F   0  0  0  0  0  0  0  0  0  0  0  0
    5.7074   -1.2886   -1.5899 F   0  0  0  0  0  0  0  0  0  0  0  0
    3.4372   -1.6417   -1.7475 O   0  0  0  0  0  0  0  0  0  0  0  0
    2.9782   -0.4660   -1.1766 C   0  0  0  0  0  0  0  0  0  0  0  0
    3.2332    0.7626   -1.7475 C   0  0  0  0  0  0  0  0  0  0  0  0
    2.7662    1.9108   -1.1600 C   0  0  0  0  0  0  0  0  0  0  0  0
    2.0429    1.8287    0.0011 C   0  0  0  0  0  0  0  0  0  0  0  0
    1.7679    0.6346    0.5987 C   0  0  0  0  0  0  0  0  0  0  0  0
    1.0080    0.5674    1.8477 C   0  0  0  0  0  0  0  0  0  0  0  0
   -0.3959    0.8224    1.7827 N   0  0  0  0  0  0  0  0  0  0  0  0
   -1.3931   -0.1977    1.5124 C   0  0  1  0  0  0  0  0  0  0  0  0
   -2.7077    0.5204    1.6938 C   0  0  0  0  0  0  0  0  0  0  0  0
   -4.0547    0.3037    1.6717 C   0  0  0  0  0  0  0  0  0  0  0  0
   -4.6750    1.5117    1.8986 C   0  0  0  0  0  0  0  0  0  0  0  0
   -3.6469    2.4322    2.0531 C   0  0  0  0  0  0  0  0  0  0  0  0
   -2.4455    1.8105    1.9263 N   0  0  0  0  0  0  0  0  0  0  0  0
   -1.0527    2.0671    1.9896 C   0  0  0  0  0  0  0  0  0  0  0  0
   -0.5243    3.2084    2.1955 O   0  0  0  0  0  0  0  0  0  0  0  0
   -1.3712   -0.6413    0.0729 C   0  0  0  0  0  0  0  0  0  0  0  0
   -1.3482   -1.9859   -0.2054 C   0  0  0  0  0  0  0  0  0  0  0  0
   -1.3457   -2.4560   -1.5248 C   0  0  0  0  0  0  0  0  0  0  0  0
   -1.3668   -1.5616   -2.5723 C   0  0  0  0  0  0  0  0  0  0  0  0
   -1.3898   -0.2171   -2.2737 C   0  0  0  0  0  0  0  0  0  0  0  0
   -1.3923    0.2594   -0.9593 C   0  0  0  0  0  0  0  0  0  0  0  0
   -1.3653   -1.9944   -3.9463 C   0  0  0  0  0  0  0  0  0  0  0  0
   -1.3450   -2.3412   -5.0634 N   0  0  0  0  0  0  0  0  0  0  0  0
    2.2434   -0.5159   -0.0018 C   0  0  0  0  0  0  0  0  0  0  0  0
    3.8173    0.8192   -2.6838 H   0  0  0  0  0  0  0  0  0  0  0  0
    2.9885    2.8678   -1.6423 H   0  0  0  0  0  0  0  0  0  0  0  0
    1.6831    2.7580    0.4546 H   0  0  0  0  0  0  0  0  0  0  0  0
    1.4559    1.2630    2.6288 H   0  0  0  0  0  0  0  0  0  0  0  0
    1.2183   -0.4487    2.3078 H   0  0  0  0  0  0  0  0  0  0  0  0
   -1.3102   -1.0755    2.1658 H   0  0  0  0  0  0  0  0  0  0  0  0
   -4.5258   -0.6487    1.5049 H   0  0  0  0  0  0  0  0  0  0  0  0
   -5.7400    1.6673    1.9399 H   0  0  0  0  0  0  0  0  0  0  0  0
   -3.7893    3.4749    2.2437 H   0  0  0  0  0  0  0  0  0  0  0  0
   -1.3315   -2.7014    0.6024 H   0  0  0  0  0  0  0  0  0  0  0  0
   -1.3276   -3.5131   -1.7520 H   0  0  0  0  0  0  0  0  0  0  0  0
   -1.4061    0.4764   -3.0905 H   0  0  0  0  0  0  0  0  0  0  0  0
   -1.4105    1.3180   -0.7350 H   0  0  0  0  0  0  0  0  0  0  0  0
    2.0425   -1.4859    0.4482 H   0  0  0  0  0  0  0  0  0  0  0  0
  1  2  1  0
  2  3  1  0
  2  4  1  0
  2  5  1  0
  5  6  1  0
  6  7  2  0
  7  8  1  0
  8  9  2  0
  9 10  1  0
 10 11  1  0
 11 12  1  0
 12 13  1  0
 13 14  1  0
 14 15  2  0
 15 16  1  0
 16 17  2  0
 17 18  1  0
 18 19  1  0
 19 20  2  0
 13 21  1  0
 21 22  2  0
 22 23  1  0
 23 24  2  0
 24 25  1  0
 25 26  2  0
 24 27  1  0
 27 28  3  0
 10 29  2  0
 29  6  1  0
 19 12  1  0
 26 21  1  0
 18 14  1  0
  7 30  1  0
  8 31  1  0
  9 32  1  0
 11 33  1  0
 11 34  1  0
 13 35  1  1
 15 36  1  0
 16 37  1  0
 17 38  1  0
 22 39  1  0
 23 40  1  0
 25 41  1  0
 26 42  1  0
 29 43  1  0
M  END
$$$$
[H]c1nc(-c2c([H])c([H])c(N([H])C(=O)N([H])c3c(C([H])([H])[H])c([H])c(C([H])([H])[H])c([H])c3C([H])([H])[H])c([H])c2[H])c2c(N([H])[H])nn([H])c2n1
     RDKit          3D

 50 53  0  0  0  0  0  0  0  0999 V2000
   -8.0913   -0.0399    0.0813 C   0  0  0  0  0  0  0  0  0  0  0  0
   -6.6170    0.1104   -0.0257 C   0  0  0  0  0  0  0  0  0  0  0  0
   -5.9358   -0.1129   -1.1982 C   0  0  0  0  0  0  0  0  0  0  0  0
   -4.5555    0.0350   -1.2635 C   0  0  0  0  0  0  0  0  0  0  0  0
   -3.8243   -0.1993   -2.5299 C   0  0  0  0  0  0  0  0  0  0  0  0
   -3.8093    0.4079   -0.1688 C   0  0  0  0  0  0  0  0  0  0  0  0
   -2.4318    0.5201   -0.2086 N   0  0  0  0  0  0  0  0  0  0  0  0
   -1.6340   -0.6422    0.2340 C   0  0  0  0  0  0  0  0  0  0  0  0
   -2.3828   -1.6129    0.6076 O   0  0  0  0  0  0  0  0  0  0  0  0
   -0.3062   -0.6314    0.2229 N   0  0  0  0  0  0  0  0  0  0  0  0
    1.0448   -0.6206    0.2116 C   0  0  0  0  0  0  0  0  0  0  0  0
    1.8075   -0.6386    1.3977 C   0  0  0  0  0  0  0  0  0  0  0  0
    3.1778   -0.6364    1.3734 C   0  0  0  0  0  0  0  0  0  0  0  0
    3.8714   -0.6161    0.1666 C   0  0  0  0  0  0  0  0  0  0  0  0
    3.1503   -0.5993   -0.9951 C   0  0  0  0  0  0  0  0  0  0  0  0
    1.7800   -0.5997   -0.9733 C   0  0  0  0  0  0  0  0  0  0  0  0
    5.3290   -0.7212    0.1683 C   0  0  0  0  0  0  0  0  0  0  0  0
    5.8861   -1.8277    0.7637 N   0  0  0  0  0  0  0  0  0  0  0  0
    7.1950   -2.0070    0.8254 C   0  0  0  0  0  0  0  0  0  0  0  0
    7.9835   -1.0852    0.2945 N   0  0  0  0  0  0  0  0  0  0  0  0
    7.4912    0.0236   -0.3030 C   0  0  0  0  0  0  0  0  0  0  0  0
    8.0811    1.0825   -0.8812 N   0  0  0  0  0  0  0  0  0  0  0  0
    7.1930    1.9304   -1.3043 N   0  0  0  0  0  0  0  0  0  0  0  0
    5.9555    1.4339   -1.0056 C   0  0  0  0  0  0  0  0  0  0  0  0
    4.7209    2.0654   -1.2606 N   0  0  0  0  0  0  0  0  0  0  0  0
    6.1306    0.2337   -0.3789 C   0  0  0  0  0  0  0  0  0  0  0  0
   -4.4950    0.6383    1.0312 C   0  0  0  0  0  0  0  0  0  0  0  0
   -3.7194    1.0408    2.2280 C   0  0  0  0  0  0  0  0  0  0  0  0
   -5.8663    0.4861    1.0687 C   0  0  0  0  0  0  0  0  0  0  0  0
   -8.4752   -0.8734   -0.5541 H   0  0  0  0  0  0  0  0  0  0  0  0
   -8.4253   -0.2931    1.1100 H   0  0  0  0  0  0  0  0  0  0  0  0
   -8.6549    0.8719   -0.2254 H   0  0  0  0  0  0  0  0  0  0  0  0
   -6.5002   -0.4095   -2.0915 H   0  0  0  0  0  0  0  0  0  0  0  0
   -3.7333   -1.2630   -2.7733 H   0  0  0  0  0  0  0  0  0  0  0  0
   -4.4575    0.2474   -3.3546 H   0  0  0  0  0  0  0  0  0  0  0  0
   -2.8670    0.3648   -2.5280 H   0  0  0  0  0  0  0  0  0  0  0  0
   -1.8922    1.3309   -0.5214 H   0  0  0  0  0  0  0  0  0  0  0  0
   -0.2693   -1.9380    0.6197 H   0  0  0  0  0  0  0  0  0  0  0  0
    1.2284   -0.6469    2.3132 H   0  0  0  0  0  0  0  0  0  0  0  0
    3.7764   -0.6476    2.2682 H   0  0  0  0  0  0  0  0  0  0  0  0
    3.6986   -0.6064   -1.9509 H   0  0  0  0  0  0  0  0  0  0  0  0
    1.1997   -0.5829   -1.9024 H   0  0  0  0  0  0  0  0  0  0  0  0
    7.6748   -2.8678    1.2851 H   0  0  0  0  0  0  0  0  0  0  0  0
    9.1329    1.1433   -0.9484 H   0  0  0  0  0  0  0  0  0  0  0  0
    4.4546    2.2709   -2.2409 H   0  0  0  0  0  0  0  0  0  0  0  0
    4.0839    2.3266   -0.4999 H   0  0  0  0  0  0  0  0  0  0  0  0
   -2.9484    1.7762    1.9752 H   0  0  0  0  0  0  0  0  0  0  0  0
   -3.3140    0.1728    2.7991 H   0  0  0  0  0  0  0  0  0  0  0  0
   -4.4271    1.5554    2.9178 H   0  0  0  0  0  0  0  0  0  0  0  0
   -6.4135    0.6512    1.9884 H   0  0  0  0  0  0  0  0  0  0  0  0
  1  2  1  0
  2  3  2  0
  3  4  1  0
  4  5  1  0
  4  6  2  0
  6  7  1  0
  7  8  1  0
  8  9  2  0
  8 10  1  0
 10 11  1  0
 11 12  2  0
 12 13  1  0
 13 14  2  0
 14 15  1  0
 15 16  2  0
 14 17  1  0
 17 18  2  0
 18 19  1  0
 19 20  2  0
 20 21  1  0
 21 22  1  0
 22 23  1  0
 23 24  2  0
 24 25  1  0
 24 26  1  0
  6 27  1  0
 27 28  1  0
 27 29  2  0
 29  2  1  0
 16 11  1  0
 26 17  1  0
 26 21  2  0
  1 30  1  0
  1 31  1  0
  1 32  1  0
  3 33  1  0
  5 34  1  0
  5 35  1  0
  5 36  1  0
  7 37  1  0
 10 38  1  0
 12 39  1  0
 13 40  1  0
 15 41  1  0
 16 42  1  0
 19 43  1  0
 22 44  1  0
 25 45  1  0
 25 46  1  0
 28 47  1  0
 28 48  1  0
 28 49  1  0
 29 50  1  0
M  END
$$$$
[H]c1oc(C(=O)N([H])C([H])(C([H])([H])c2c([H])c([H])c([H])c([H])c2[H])C([H])([H])N(C(=O)c2c([H])c([H])c([H])c([H])c2[H])C([H])([H])[H])c([H])c1[H]
     RDKit          3D

 49 51  0  0  0  0  0  0  0  0999 V2000
    1.6636   -1.4865    1.0762 C   0  0  0  0  0  0  0  0  0  0  0  0
    1.2549   -0.7368   -0.0670 N   0  0  0  0  0  0  0  0  0  0  0  0
    0.0532   -1.2249   -0.7908 C   0  0  0  0  0  0  0  0  0  0  0  0
   -1.2205   -0.6881   -0.2029 C   0  0  0  0  0  0  0  0  0  0  0  0
   -2.3752   -1.2446   -1.0067 C   0  0  0  0  0  0  0  0  0  0  0  0
   -2.4830   -2.6971   -1.0208 C   0  0  0  0  0  0  0  0  0  0  0  0
   -1.9008   -3.5116   -1.9788 C   0  0  0  0  0  0  0  0  0  0  0  0
   -2.0135   -4.8851   -1.9763 C   0  0  0  0  0  0  0  0  0  0  0  0
   -2.7408   -5.5029   -0.9752 C   0  0  0  0  0  0  0  0  0  0  0  0
   -3.3223   -4.7022   -0.0199 C   0  0  0  0  0  0  0  0  0  0  0  0
   -3.2099   -3.3325   -0.0224 C   0  0  0  0  0  0  0  0  0  0  0  0
   -1.3576    0.7377   -0.2288 N   0  0  0  0  0  0  0  0  0  0  0  0
   -1.3917    1.4402    1.0059 C   0  0  0  0  0  0  0  0  0  0  0  0
   -1.3024    0.8172    2.1191 O   0  0  0  0  0  0  0  0  0  0  0  0
   -1.5283    2.8898    1.0805 C   0  0  0  0  0  0  0  0  0  0  0  0
   -1.5751    3.6910    2.1979 C   0  0  0  0  0  0  0  0  0  0  0  0
   -1.7108    4.9786    1.7272 C   0  0  0  0  0  0  0  0  0  0  0  0
   -1.7411    4.9124    0.3543 C   0  0  0  0  0  0  0  0  0  0  0  0
   -1.6295    3.6518    0.0190 O   0  0  0  0  0  0  0  0  0  0  0  0
    1.8457    0.4221   -0.5688 C   0  0  0  0  0  0  0  0  0  0  0  0
    1.2884    0.9070   -1.6632 O   0  0  0  0  0  0  0  0  0  0  0  0
    2.9691    1.2049   -0.1129 C   0  0  0  0  0  0  0  0  0  0  0  0
    3.6876    0.9602    1.0340 C   0  0  0  0  0  0  0  0  0  0  0  0
    4.7847    1.7536    1.4120 C   0  0  0  0  0  0  0  0  0  0  0  0
    5.1251    2.7927    0.5971 C   0  0  0  0  0  0  0  0  0  0  0  0
    4.4295    3.0618   -0.5503 C   0  0  0  0  0  0  0  0  0  0  0  0
    3.3594    2.2928   -0.9251 C   0  0  0  0  0  0  0  0  0  0  0  0
    1.4980   -0.9451    2.0343 H   0  0  0  0  0  0  0  0  0  0  0  0
    1.0432   -2.4368    1.0989 H   0  0  0  0  0  0  0  0  0  0  0  0
    2.6964   -1.8610    1.0581 H   0  0  0  0  0  0  0  0  0  0  0  0
    0.0491   -2.3203   -0.6682 H   0  0  0  0  0  0  0  0  0  0  0  0
    0.1601   -0.9419   -1.8327 H   0  0  0  0  0  0  0  0  0  0  0  0
   -1.3111   -1.0145    0.8676 H   0  0  0  0  0  0  0  0  0  0  0  0
   -3.3143   -0.7277   -0.7240 H   0  0  0  0  0  0  0  0  0  0  0  0
   -2.1818   -0.9158   -2.0703 H   0  0  0  0  0  0  0  0  0  0  0  0
   -1.3191   -3.0555   -2.7841 H   0  0  0  0  0  0  0  0  0  0  0  0
   -1.5445   -5.5071   -2.7440 H   0  0  0  0  0  0  0  0  0  0  0  0
   -2.8356   -6.5882   -0.9647 H   0  0  0  0  0  0  0  0  0  0  0  0
   -3.8914   -5.1711    0.7653 H   0  0  0  0  0  0  0  0  0  0  0  0
   -3.6844   -2.7761    0.7456 H   0  0  0  0  0  0  0  0  0  0  0  0
   -1.4487    1.3095   -1.1017 H   0  0  0  0  0  0  0  0  0  0  0  0
   -1.5148    3.3522    3.2425 H   0  0  0  0  0  0  0  0  0  0  0  0
   -1.7781    5.8513    2.3300 H   0  0  0  0  0  0  0  0  0  0  0  0
   -1.8382    5.7242   -0.3758 H   0  0  0  0  0  0  0  0  0  0  0  0
    3.4445    0.1708    1.6899 H   0  0  0  0  0  0  0  0  0  0  0  0
    5.3394    1.5479    2.3164 H   0  0  0  0  0  0  0  0  0  0  0  0
    5.9739    3.4072    0.8888 H   0  0  0  0  0  0  0  0  0  0  0  0
    4.6896    3.8922   -1.2155 H   0  0  0  0  0  0  0  0  0  0  0  0
    2.8093    2.5043   -1.8327 H   0  0  0  0  0  0  0  0  0  0  0  0
  1  2  1  0
  2  3  1  0
  3  4  1  0
  4  5  1  0
  5  6  1  0
  6  7  2  0
  7  8  1  0
  8  9  2  0
  9 10  1  0
 10 11  2  0
  4 12  1  0
 12 13  1  0
 13 14  2  0
 13 15  1  0
 15 16  2  0
 16 17  1  0
 17 18  2  0
 18 19  1  0
  2 20  1  0
 20 21  2  0
 20 22  1  0
 22 23  2  0
 23 24  1  0
 24 25  2  0
 25 26  1  0
 26 27  2  0
 11  6  1  0
 19 15  1  0
 27 22  1  0
  1 28  1  0
  1 29  1  0
  1 30  1  0
  3 31  1  0
  3 32  1  0
  4 33  1  0
  5 34  1  0
  5 35  1  0
  7 36  1  0
  8 37  1  0
  9 38  1  0
 10 39  1  0
 11 40  1  0
 12 41  1  0
 16 42  1  0
 17 43  1  0
 18 44  1  0
 23 45  1  0
 24 46  1  0
 25 47  1  0
 26 48  1  0
 27 49  1  0
M  END
$$$$
[H]/C(=C1/C(=O)N([H])c2c([H])c([H])c(F)c([H])c21)c1c(C([H])([H])[H])c(C(=O)OC([H])([H])[H])c(C([H])([H])[H])n1[H]
     RDKit          3D

 38 40  0  0  0  0  0  0  0  0999 V2000
   -6.3006    0.7743   -0.0483 C   0  0  0  0  0  0  0  0  0  0  0  0
   -4.9837    0.6188    0.4750 O   0  0  0  0  0  0  0  0  0  0  0  0
   -3.9098    0.2772   -0.3227 C   0  0  0  0  0  0  0  0  0  0  0  0
   -4.1201    0.1052   -1.5310 O   0  0  0  0  0  0  0  0  0  0  0  0
   -2.5529    0.1206    0.2396 C   0  0  0  0  0  0  0  0  0  0  0  0
   -2.1481    0.2733    1.5352 C   0  0  0  0  0  0  0  0  0  0  0  0
   -3.0627    0.6483    2.6616 C   0  0  0  0  0  0  0  0  0  0  0  0
   -0.8348    0.0325    1.5904 N   0  0  0  0  0  0  0  0  0  0  0  0
   -0.3662   -0.2691    0.3877 C   0  0  0  0  0  0  0  0  0  0  0  0
    0.9707   -0.5876   -0.0982 C   0  0  0  0  0  0  0  0  0  0  0  0
    2.0370    0.1495    0.0533 C   0  0  0  0  0  0  0  0  0  0  0  0
    2.1142    1.4334    0.7260 C   0  0  0  0  0  0  0  0  0  0  0  0
    1.1895    2.1002    1.2720 O   0  0  0  0  0  0  0  0  0  0  0  0
    3.5004    1.8197    0.6473 N   0  0  0  0  0  0  0  0  0  0  0  0
    4.2242    0.8137   -0.0431 C   0  0  0  0  0  0  0  0  0  0  0  0
    5.5738    0.7088   -0.3806 C   0  0  0  0  0  0  0  0  0  0  0  0
    6.0724   -0.3723   -1.0669 C   0  0  0  0  0  0  0  0  0  0  0  0
    5.2348   -1.4046   -1.4485 C   0  0  0  0  0  0  0  0  0  0  0  0
    5.7396   -2.4704   -2.1279 F   0  0  0  0  0  0  0  0  0  0  0  0
    3.9015   -1.3015   -1.1150 C   0  0  0  0  0  0  0  0  0  0  0  0
    3.3926   -0.2088   -0.4201 C   0  0  0  0  0  0  0  0  0  0  0  0
   -1.4352   -0.2206   -0.4847 C   0  0  0  0  0  0  0  0  0  0  0  0
   -1.4430   -0.4810   -1.9666 C   0  0  0  0  0  0  0  0  0  0  0  0
   -6.4329    0.1708   -0.9686 H   0  0  0  0  0  0  0  0  0  0  0  0
   -6.5630    1.8211   -0.2558 H   0  0  0  0  0  0  0  0  0  0  0  0
   -7.0046    0.3927    0.7135 H   0  0  0  0  0  0  0  0  0  0  0  0
   -2.4396    0.9601    3.5507 H   0  0  0  0  0  0  0  0  0  0  0  0
   -3.6427   -0.2394    2.9682 H   0  0  0  0  0  0  0  0  0  0  0  0
   -3.6770    1.4942    2.3566 H   0  0  0  0  0  0  0  0  0  0  0  0
   -0.2713    0.0682    2.4964 H   0  0  0  0  0  0  0  0  0  0  0  0
    1.1312   -1.5407   -0.6545 H   0  0  0  0  0  0  0  0  0  0  0  0
    3.8704    2.7021    1.0450 H   0  0  0  0  0  0  0  0  0  0  0  0
    6.2121    1.5147   -0.0791 H   0  0  0  0  0  0  0  0  0  0  0  0
    7.1123   -0.4758   -1.3393 H   0  0  0  0  0  0  0  0  0  0  0  0
    3.2439   -2.1014   -1.4089 H   0  0  0  0  0  0  0  0  0  0  0  0
   -2.1241   -1.3280   -2.1463 H   0  0  0  0  0  0  0  0  0  0  0  0
   -0.4084   -0.6403   -2.3152 H   0  0  0  0  0  0  0  0  0  0  0  0
   -1.7997    0.4405   -2.4975 H   0  0  0  0  0  0  0  0  0  0  0  0
  1  2  1  0
  2  3  1  0
  3  4  2  0
  3  5  1  0
  5  6  2  0
  6  7  1  0
  6  8  1  0
  8  9  1  0
  9 10  1  0
 10 11  2  0
 11 12  1  0
 12 13  2  0
 12 14  1  0
 14 15  1  0
 15 16  2  0
 16 17  1  0
 17 18  2  0
 18 19  1  0
 18 20  1  0
 20 21  2  0
  9 22  2  0
 22 23  1  0
 22  5  1  0
 21 11  1  0
 21 15  1  0
  1 24  1  0
  1 25  1  0
  1 26  1  0
  7 27  1  0
  7 28  1  0
  7 29  1  0
  8 30  1  0
 10 31  1  0
 14 32  1  0
 16 33  1  0
 17 34  1  0
 20 35  1  0
 23 36  1  0
 23 37  1  0
 23 38  1  0
M  END
$$$$
[H]OC(=O)[C@]1([H])N(S(=O)(=O)c2sc3c([H])c([H])c([H])c([H])c3c2C([H])([H])[H])C([H])([H])C([H])([H])C1([H])[H]
     RDKit          3D

 36 38  0  0  0  0  0  0  0  0999 V2000
   -1.5827    0.3817    1.9776 C   0  0  0  0  0  0  0  0  0  0  0  0
   -1.7974    0.4600    0.4694 C   0  0  0  0  0  0  0  0  0  0  0  0
   -0.7958    0.8969   -0.3241 C   0  0  0  0  0  0  0  0  0  0  0  0
   -1.4933    0.8267   -1.8971 S   0  0  0  0  0  0  0  0  0  0  0  0
   -3.0323    0.2432   -1.4820 C   0  0  0  0  0  0  0  0  0  0  0  0
   -4.1686   -0.0723   -2.2320 C   0  0  0  0  0  0  0  0  0  0  0  0
   -5.3089   -0.5397   -1.6150 C   0  0  0  0  0  0  0  0  0  0  0  0
   -5.2672   -0.6765   -0.2409 C   0  0  0  0  0  0  0  0  0  0  0  0
   -4.1528   -0.3640    0.4664 C   0  0  0  0  0  0  0  0  0  0  0  0
   -2.9696    0.1155   -0.1236 C   0  0  0  0  0  0  0  0  0  0  0  0
    0.8617    1.4209    0.0436 S   0  0  0  0  0  0  0  0  0  0  0  0
    0.9416    2.0071    1.4371 O   0  0  0  0  0  0  0  0  0  0  0  0
    1.1904    2.5648   -0.8878 O   0  0  0  0  0  0  0  0  0  0  0  0
    1.8765    0.1268   -0.0953 N   0  0  0  0  0  0  0  0  0  0  0  0
    1.7196   -0.9857    0.7247 C   0  0  0  0  0  0  0  0  0  0  0  0
    3.1153   -1.6212    0.8290 C   0  0  0  0  0  0  0  0  0  0  0  0
    3.7351   -1.2217   -0.4884 C   0  0  0  0  0  0  0  0  0  0  0  0
    3.1527    0.2060   -0.6550 C   0  0  2  0  0  0  0  0  0  0  0  0
    4.0821    1.1979   -0.1285 C   0  0  0  0  0  0  0  0  0  0  0  0
    5.3538    1.3206   -0.6560 O   0  0  0  0  0  0  0  0  0  0  0  0
    3.7409    1.9514    0.8079 O   0  0  0  0  0  0  0  0  0  0  0  0
   -0.9747   -0.4875    2.2551 H   0  0  0  0  0  0  0  0  0  0  0  0
   -2.5698    0.2153    2.4996 H   0  0  0  0  0  0  0  0  0  0  0  0
   -1.1533    1.2900    2.3830 H   0  0  0  0  0  0  0  0  0  0  0  0
   -4.1693    0.0451   -3.2989 H   0  0  0  0  0  0  0  0  0  0  0  0
   -6.2192   -0.8026   -2.1232 H   0  0  0  0  0  0  0  0  0  0  0  0
   -6.1583   -1.0459    0.2787 H   0  0  0  0  0  0  0  0  0  0  0  0
   -4.2235   -0.5093    1.5585 H   0  0  0  0  0  0  0  0  0  0  0  0
    1.1003   -1.7590    0.1977 H   0  0  0  0  0  0  0  0  0  0  0  0
    1.3197   -0.7900    1.7434 H   0  0  0  0  0  0  0  0  0  0  0  0
    3.6637   -1.0821    1.6211 H   0  0  0  0  0  0  0  0  0  0  0  0
    3.0551   -2.7019    0.9804 H   0  0  0  0  0  0  0  0  0  0  0  0
    4.8312   -1.1831   -0.4632 H   0  0  0  0  0  0  0  0  0  0  0  0
    3.3218   -1.8718   -1.2595 H   0  0  0  0  0  0  0  0  0  0  0  0
    3.0388    0.3005   -1.7770 H   0  0  0  0  0  0  0  0  0  0  0  0
    5.9361    2.1440   -0.5259 H   0  0  0  0  0  0  0  0  0  0  0  0
  1  2  1  0
  2  3  2  0
  3  4  1  0
  4  5  1  0
  5  6  2  0
  6  7  1  0
  7  8  2  0
  8  9  1  0
  9 10  2  0
  3 11  1  0
 11 12  2  0
 11 13  2  0
 11 14  1  0
 14 15  1  0
 15 16  1  0
 16 17  1  0
 17 18  1  0
 18 19  1  0
 19 20  1  0
 19 21  2  0
 10  2  1  0
 18 14  1  0
 10  5  1  0
  1 22  1  0
  1 23  1  0
  1 24  1  0
  6 25  1  0
  7 26  1  0
  8 27  1  0
  9 28  1  0
 15 29  1  0
 15 30  1  0
 16 31  1  0
 16 32  1  0
 17 33  1  0
 17 34  1  0
 18 35  1  6
 20 36  1  0
M  END
$$$$
[H]c1c([H])c(N([H])C(=O)c2c(C([H])([H])[H])c(C(=O)C(=O)N([H])C3(C#N)C([H])([H])C(F)(F)C3([H])[H])c3n2C([H])([H])C([H])([H])C3([H])[H])c([H])c(C([H])(F)F)c1F
     RDKit          3D

 54 57  0  0  0  0  0  0  0  0999 V2000
   -0.3457    0.1957   -2.3241 C   0  0  0  0  0  0  0  0  0  0  0  0
   -0.2228   -0.4263   -0.9623 C   0  0  0  0  0  0  0  0  0  0  0  0
   -1.2372   -1.0827   -0.3155 C   0  0  0  0  0  0  0  0  0  0  0  0
   -2.5912   -1.2947   -0.8149 C   0  0  0  0  0  0  0  0  0  0  0  0
   -2.8275   -2.3298   -1.4818 O   0  0  0  0  0  0  0  0  0  0  0  0
   -3.6889   -0.3648   -0.5798 C   0  0  0  0  0  0  0  0  0  0  0  0
   -3.4273    0.6527    0.0837 O   0  0  0  0  0  0  0  0  0  0  0  0
   -4.9750   -0.6023   -1.0751 N   0  0  0  0  0  0  0  0  0  0  0  0
   -6.0767    0.2755   -0.8812 C   0  0  0  0  0  0  0  0  0  0  0  0
   -6.4264    0.6182    0.5532 C   0  0  0  0  0  0  0  0  0  0  0  0
   -6.5445    2.0755    0.1051 C   0  0  0  0  0  0  0  0  0  0  0  0
   -5.8234    2.9392    0.8810 F   0  0  0  0  0  0  0  0  0  0  0  0
   -7.8590    2.4353   -0.1313 F   0  0  0  0  0  0  0  0  0  0  0  0
   -5.8108    1.6960   -1.1889 C   0  0  0  0  0  0  0  0  0  0  0  0
   -7.3080   -0.1604   -1.6118 C   0  0  0  0  0  0  0  0  0  0  0  0
   -8.2528   -0.4834   -2.1898 N   0  0  0  0  0  0  0  0  0  0  0  0
   -0.6993   -1.4949    0.9013 C   0  0  0  0  0  0  0  0  0  0  0  0
   -1.1572   -2.2394    2.1051 C   0  0  0  0  0  0  0  0  0  0  0  0
   -0.0291   -2.1012    3.0551 C   0  0  0  0  0  0  0  0  0  0  0  0
    1.1368   -1.5559    2.3043 C   0  0  0  0  0  0  0  0  0  0  0  0
    0.5751   -1.1192    1.0104 N   0  0  0  0  0  0  0  0  0  0  0  0
    0.8846   -0.4612   -0.1265 C   0  0  0  0  0  0  0  0  0  0  0  0
    2.1665    0.1513   -0.4945 C   0  0  0  0  0  0  0  0  0  0  0  0
    2.2221    0.7496   -1.5942 O   0  0  0  0  0  0  0  0  0  0  0  0
    3.2900    0.0881    0.3191 N   0  0  0  0  0  0  0  0  0  0  0  0
    4.5314    0.6504    0.0446 C   0  0  0  0  0  0  0  0  0  0  0  0
    4.7576    1.6542   -0.8319 C   0  0  0  0  0  0  0  0  0  0  0  0
    6.0546    2.1532   -1.0729 C   0  0  0  0  0  0  0  0  0  0  0  0
    7.1209    1.6103   -0.4022 C   0  0  0  0  0  0  0  0  0  0  0  0
    8.3910    2.0620   -0.6045 F   0  0  0  0  0  0  0  0  0  0  0  0
    6.9289    0.5912    0.4950 C   0  0  0  0  0  0  0  0  0  0  0  0
    5.6543    0.1273    0.7070 C   0  0  0  0  0  0  0  0  0  0  0  0
    8.0785    0.0026    1.2215 C   0  0  0  0  0  0  0  0  0  0  0  0
    8.1540   -1.3594    1.0162 F   0  0  0  0  0  0  0  0  0  0  0  0
    7.9253    0.1880    2.5917 F   0  0  0  0  0  0  0  0  0  0  0  0
   -0.2064    1.2769   -2.3079 H   0  0  0  0  0  0  0  0  0  0  0  0
   -1.2934   -0.0700   -2.7979 H   0  0  0  0  0  0  0  0  0  0  0  0
    0.4539   -0.2998   -2.9506 H   0  0  0  0  0  0  0  0  0  0  0  0
   -5.1654   -1.4806   -1.6300 H   0  0  0  0  0  0  0  0  0  0  0  0
   -7.4112    0.2181    0.8605 H   0  0  0  0  0  0  0  0  0  0  0  0
   -5.6252    0.4399    1.2799 H   0  0  0  0  0  0  0  0  0  0  0  0
   -4.7785    2.0744   -1.2284 H   0  0  0  0  0  0  0  0  0  0  0  0
   -6.3534    2.1185   -2.0735 H   0  0  0  0  0  0  0  0  0  0  0  0
   -1.2933   -3.3311    1.8821 H   0  0  0  0  0  0  0  0  0  0  0  0
   -2.1310   -1.8715    2.4675 H   0  0  0  0  0  0  0  0  0  0  0  0
    0.2911   -3.0520    3.5374 H   0  0  0  0  0  0  0  0  0  0  0  0
   -0.3690   -1.4235    3.8912 H   0  0  0  0  0  0  0  0  0  0  0  0
    1.9205   -2.2793    2.0891 H   0  0  0  0  0  0  0  0  0  0  0  0
    1.4998   -0.6582    2.8873 H   0  0  0  0  0  0  0  0  0  0  0  0
    3.1870   -0.4381    1.2316 H   0  0  0  0  0  0  0  0  0  0  0  0
    3.9677    2.1525   -1.3918 H   0  0  0  0  0  0  0  0  0  0  0  0
    6.2049    2.9648   -1.7878 H   0  0  0  0  0  0  0  0  0  0  0  0
    5.5340   -0.6879    1.4302 H   0  0  0  0  0  0  0  0  0  0  0  0
    8.9992    0.5061    0.9148 H   0  0  0  0  0  0  0  0  0  0  0  0
  1  2  1  0
  2  3  1  0
  3  4  1  0
  4  5  2  0
  4  6  1  0
  6  7  2  0
  6  8  1  0
  8  9  1  0
  9 10  1  0
 10 11  1  0
 11 12  1  0
 11 13  1  0
 11 14  1  0
  9 15  1  0
 15 16  3  0
  3 17  2  0
 17 18  1  0
 18 19  1  0
 19 20  1  0
 20 21  1  0
 21 22  1  0
 22 23  1  0
 23 24  2  0
 23 25  1  0
 25 26  1  0
 26 27  2  0
 27 28  1  0
 28 29  2  0
 29 30  1  0
 29 31  1  0
 31 32  2  0
 31 33  1  0
 33 34  1  0
 33 35  1  0
 22  2  2  0
 32 26  1  0
 14  9  1  0
 21 17  1  0
  1 36  1  0
  1 37  1  0
  1 38  1  0
  8 39  1  0
 10 40  1  0
 10 41  1  0
 14 42  1  0
 14 43  1  0
 18 44  1  0
 18 45  1  0
 19 46  1  0
 19 47  1  0
 20 48  1  0
 20 49  1  0
 25 50  1  0
 27 51  1  0
 28 52  1  0
 32 53  1  0
 33 54  1  0
M  END
$$$$
[H]c1c([H])c([H])c(-n2c([H])c([H])c3c([H])nc(N([H])c4c([H])c([H])c(C(=O)N([H])C([H])([H])C([H])([H])C([H])([H])N5C([H])([H])C([H])([H])C([H])([H])C5([H])[H])c([H])c4[H])nc32)c([H])c1[H]
     RDKit          3D

 61 65  0  0  0  0  0  0  0  0999 V2000
   -3.4329   -0.0611    1.8555 O   0  0  0  0  0  0  0  0  0  0  0  0
   -2.8264    0.7110    1.0637 C   0  0  0  0  0  0  0  0  0  0  0  0
   -3.5128    1.7669    0.4403 N   0  0  0  0  0  0  0  0  0  0  0  0
   -4.9033    2.0677    0.6197 C   0  0  0  0  0  0  0  0  0  0  0  0
   -5.7653    0.9237    0.1630 C   0  0  0  0  0  0  0  0  0  0  0  0
   -7.2019    1.3513    0.3879 C   0  0  0  0  0  0  0  0  0  0  0  0
   -8.1561    0.3714    0.0032 N   0  0  0  0  0  0  0  0  0  0  0  0
   -8.2509    0.1158   -1.3930 C   0  0  0  0  0  0  0  0  0  0  0  0
   -8.7155   -1.3351   -1.5402 C   0  0  0  0  0  0  0  0  0  0  0  0
   -8.1731   -1.9876   -0.2975 C   0  0  0  0  0  0  0  0  0  0  0  0
   -8.1052   -0.8607    0.7124 C   0  0  0  0  0  0  0  0  0  0  0  0
   -1.4118    0.4330    0.8533 C   0  0  0  0  0  0  0  0  0  0  0  0
   -0.5819    1.3462    0.2598 C   0  0  0  0  0  0  0  0  0  0  0  0
    0.7738    1.0449    0.0643 C   0  0  0  0  0  0  0  0  0  0  0  0
    1.3219   -0.1396    0.4450 C   0  0  0  0  0  0  0  0  0  0  0  0
    2.6768   -0.4989    0.3002 N   0  0  0  0  0  0  0  0  0  0  0  0
    3.7727    0.3654    0.1307 C   0  0  0  0  0  0  0  0  0  0  0  0
    3.6827    1.6880    0.0992 N   0  0  0  0  0  0  0  0  0  0  0  0
    4.7107    2.5316   -0.0645 C   0  0  0  0  0  0  0  0  0  0  0  0
    5.9780    1.9630   -0.2136 C   0  0  0  0  0  0  0  0  0  0  0  0
    7.2162    2.5264   -0.3967 C   0  0  0  0  0  0  0  0  0  0  0  0
    8.1077    1.4972   -0.4815 C   0  0  0  0  0  0  0  0  0  0  0  0
    7.4275    0.3483   -0.3533 N   0  0  0  0  0  0  0  0  0  0  0  0
    8.0574   -0.9221   -0.3994 C   0  0  0  0  0  0  0  0  0  0  0  0
    8.4660   -1.3677   -1.6389 C   0  0  0  0  0  0  0  0  0  0  0  0
    9.0805   -2.5776   -1.7760 C   0  0  0  0  0  0  0  0  0  0  0  0
    9.2838   -3.3478   -0.6383 C   0  0  0  0  0  0  0  0  0  0  0  0
    8.8693   -2.8873    0.5929 C   0  0  0  0  0  0  0  0  0  0  0  0
    8.2373   -1.6485    0.7507 C   0  0  0  0  0  0  0  0  0  0  0  0
    6.1202    0.5943   -0.1874 C   0  0  0  0  0  0  0  0  0  0  0  0
    5.0320   -0.1711   -0.0182 N   0  0  0  0  0  0  0  0  0  0  0  0
    0.4363   -1.0506    1.0507 C   0  0  0  0  0  0  0  0  0  0  0  0
   -0.8915   -0.7957    1.2590 C   0  0  0  0  0  0  0  0  0  0  0  0
   -2.9267    2.3705   -0.2130 H   0  0  0  0  0  0  0  0  0  0  0  0
   -5.0627    2.2124    1.7294 H   0  0  0  0  0  0  0  0  0  0  0  0
   -5.1949    3.0331    0.1449 H   0  0  0  0  0  0  0  0  0  0  0  0
   -5.5108    0.0108    0.6913 H   0  0  0  0  0  0  0  0  0  0  0  0
   -5.5444    0.7596   -0.9103 H   0  0  0  0  0  0  0  0  0  0  0  0
   -7.3884    2.2705   -0.2041 H   0  0  0  0  0  0  0  0  0  0  0  0
   -7.3117    1.5671    1.4621 H   0  0  0  0  0  0  0  0  0  0  0  0
   -9.0011    0.7337   -1.9272 H   0  0  0  0  0  0  0  0  0  0  0  0
   -7.3021    0.2316   -1.9470 H   0  0  0  0  0  0  0  0  0  0  0  0
   -9.8224   -1.3617   -1.5998 H   0  0  0  0  0  0  0  0  0  0  0  0
   -8.2514   -1.7899   -2.4569 H   0  0  0  0  0  0  0  0  0  0  0  0
   -8.8453   -2.7810    0.0564 H   0  0  0  0  0  0  0  0  0  0  0  0
   -7.1460   -2.3720   -0.4823 H   0  0  0  0  0  0  0  0  0  0  0  0
   -9.0455   -0.9258    1.3348 H   0  0  0  0  0  0  0  0  0  0  0  0
   -7.2764   -0.9673    1.4224 H   0  0  0  0  0  0  0  0  0  0  0  0
   -0.9510    2.3065   -0.0622 H   0  0  0  0  0  0  0  0  0  0  0  0
    1.3674    1.7988   -0.4238 H   0  0  0  0  0  0  0  0  0  0  0  0
    2.9228   -1.5541    0.3168 H   0  0  0  0  0  0  0  0  0  0  0  0
    4.6040    3.5996   -0.0849 H   0  0  0  0  0  0  0  0  0  0  0  0
    7.4140    3.5850   -0.4578 H   0  0  0  0  0  0  0  0  0  0  0  0
    9.1731    1.6323   -0.6278 H   0  0  0  0  0  0  0  0  0  0  0  0
    8.3090   -0.7645   -2.5436 H   0  0  0  0  0  0  0  0  0  0  0  0
    9.4046   -2.9384   -2.7394 H   0  0  0  0  0  0  0  0  0  0  0  0
    9.7776   -4.3240   -0.7330 H   0  0  0  0  0  0  0  0  0  0  0  0
    9.0362   -3.5009    1.4617 H   0  0  0  0  0  0  0  0  0  0  0  0
    7.9248   -1.3171    1.7281 H   0  0  0  0  0  0  0  0  0  0  0  0
    0.8744   -1.9952    1.3535 H   0  0  0  0  0  0  0  0  0  0  0  0
   -1.5495   -1.5144    1.7271 H   0  0  0  0  0  0  0  0  0  0  0  0
  1  2  2  0
  2  3  1  0
  3  4  1  0
  4  5  1  0
  5  6  1  0
  6  7  1  0
  7  8  1  0
  8  9  1  0
  9 10  1  0
 10 11  1  0
  2 12  1  0
 12 13  2  0
 13 14  1  0
 14 15  2  0
 15 16  1  0
 16 17  1  0
 17 18  2  0
 18 19  1  0
 19 20  2  0
 20 21  1  0
 21 22  2  0
 22 23  1  0
 23 24  1  0
 24 25  2  0
 25 26  1  0
 26 27  2  0
 27 28  1  0
 28 29  2  0
 23 30  1  0
 30 31  2  0
 15 32  1  0
 32 33  2  0
 11  7  1  0
 33 12  1  0
 31 17  1  0
 30 20  1  0
 29 24  1  0
  3 34  1  0
  4 35  1  0
  4 36  1  0
  5 37  1  0
  5 38  1  0
  6 39  1  0
  6 40  1  0
  8 41  1  0
  8 42  1  0
  9 43  1  0
  9 44  1  0
 10 45  1  0
 10 46  1  0
 11 47  1  0
 11 48  1  0
 13 49  1  0
 14 50  1  0
 16 51  1  0
 19 52  1  0
 21 53  1  0
 22 54  1  0
 25 55  1  0
 26 56  1  0
 27 57  1  0
 28 58  1  0
 29 59  1  0
 32 60  1  0
 33 61  1  0
M  END
$$$$
[H]c1c([H])c([H])c2c(c1[H])C([H])([H])N(C(=O)c1c([H])c(C(=O)N([H])S(=O)(=O)c3c([H])c([H])c4c([H])c([H])c([H])c([H])c4c3[H])c([H])c([H])c1-n1nc(C(=O)N(C([H])([H])C([H])([H])C([H])([H])C([H])([H])[H])C([H])([H])C([H])([H])C([H])([H])C([H])([H])[H])c(Cl)c1C([H])([H])[H])C([H])([H])C2([H])[H]
     RDKit          3D

 94 99  0  0  0  0  0  0  0  0999 V2000
   -8.1242   -3.4393   -4.2777 C   0  0  0  0  0  0  0  0  0  0  0  0
   -7.9327   -2.2477   -3.3937 C   0  0  0  0  0  0  0  0  0  0  0  0
   -6.4202   -2.1778   -3.0535 C   0  0  0  0  0  0  0  0  0  0  0  0
   -6.1466   -1.0504   -2.1716 C   0  0  0  0  0  0  0  0  0  0  0  0
   -4.7955   -0.8088   -1.6800 N   0  0  0  0  0  0  0  0  0  0  0  0
   -4.0065    0.1512   -2.3254 C   0  0  0  0  0  0  0  0  0  0  0  0
   -2.8855   -0.0148   -3.2031 C   0  0  0  0  0  0  0  0  0  0  0  0
   -2.8637   -0.8158   -4.4487 C   0  0  0  0  0  0  0  0  0  0  0  0
   -2.9878   -2.2885   -4.3262 C   0  0  0  0  0  0  0  0  0  0  0  0
   -4.4961   -1.4957   -0.4516 C   0  0  0  0  0  0  0  0  0  0  0  0
   -5.4192   -2.2383    0.0155 O   0  0  0  0  0  0  0  0  0  0  0  0
   -3.2670   -1.4160    0.2855 C   0  0  0  0  0  0  0  0  0  0  0  0
   -2.1283   -0.7504    0.0928 N   0  0  0  0  0  0  0  0  0  0  0  0
   -1.2428   -0.9368    1.0150 N   0  0  0  0  0  0  0  0  0  0  0  0
   -1.7525   -1.7729    1.9210 C   0  0  0  0  0  0  0  0  0  0  0  0
   -1.1088   -2.2955    3.1789 C   0  0  0  0  0  0  0  0  0  0  0  0
   -3.0375   -2.0974    1.4883 C   0  0  0  0  0  0  0  0  0  0  0  0
   -4.1095   -3.1617    2.3279 Cl  0  0  0  0  0  0  0  0  0  0  0  0
    0.0513   -0.3653    1.0689 C   0  0  0  0  0  0  0  0  0  0  0  0
    1.1491   -1.1927    1.3460 C   0  0  0  0  0  0  0  0  0  0  0  0
    2.4215   -0.6751    1.4054 C   0  0  0  0  0  0  0  0  0  0  0  0
    2.6478    0.6608    1.1950 C   0  0  0  0  0  0  0  0  0  0  0  0
    1.5439    1.4589    0.9230 C   0  0  0  0  0  0  0  0  0  0  0  0
    0.2502    0.9808    0.8537 C   0  0  0  0  0  0  0  0  0  0  0  0
   -0.8759    1.8419    0.5508 C   0  0  0  0  0  0  0  0  0  0  0  0
   -1.1633    1.9581   -0.6888 O   0  0  0  0  0  0  0  0  0  0  0  0
   -1.6586    2.5440    1.4814 N   0  0  0  0  0  0  0  0  0  0  0  0
   -2.7796    3.3770    1.0515 C   0  0  0  0  0  0  0  0  0  0  0  0
   -2.5396    4.7986    1.5087 C   0  0  0  0  0  0  0  0  0  0  0  0
   -2.2674    4.8040    2.9597 C   0  0  0  0  0  0  0  0  0  0  0  0
   -2.5770    5.9200    3.7367 C   0  0  0  0  0  0  0  0  0  0  0  0
   -2.3137    5.9056    5.0807 C   0  0  0  0  0  0  0  0  0  0  0  0
   -1.7451    4.8197    5.7195 C   0  0  0  0  0  0  0  0  0  0  0  0
   -1.4366    3.7145    4.9550 C   0  0  0  0  0  0  0  0  0  0  0  0
   -1.7090    3.7374    3.5856 C   0  0  0  0  0  0  0  0  0  0  0  0
   -1.3239    2.4600    2.8909 C   0  0  0  0  0  0  0  0  0  0  0  0
    3.9784    1.2388    1.2247 C   0  0  0  0  0  0  0  0  0  0  0  0
    4.0937    2.4838    1.2908 O   0  0  0  0  0  0  0  0  0  0  0  0
    5.1333    0.4390    1.1762 N   0  0  0  0  0  0  0  0  0  0  0  0
    6.7291    1.1137    1.1879 S   0  0  0  0  0  0  0  0  0  0  0  0
    6.7920    2.2745    0.2573 O   0  0  0  0  0  0  0  0  0  0  0  0
    7.0031    1.5365    2.6038 O   0  0  0  0  0  0  0  0  0  0  0  0
    7.9110   -0.0743    0.7228 C   0  0  0  0  0  0  0  0  0  0  0  0
    8.7706   -0.6901    1.5946 C   0  0  0  0  0  0  0  0  0  0  0  0
    9.6903   -1.6521    1.2606 C   0  0  0  0  0  0  0  0  0  0  0  0
    9.7836   -2.0570   -0.0612 C   0  0  0  0  0  0  0  0  0  0  0  0
   10.6849   -3.0255   -0.4602 C   0  0  0  0  0  0  0  0  0  0  0  0
   10.7894   -3.4469   -1.7654 C   0  0  0  0  0  0  0  0  0  0  0  0
    9.9463   -2.8571   -2.6859 C   0  0  0  0  0  0  0  0  0  0  0  0
    9.0484   -1.8928   -2.2920 C   0  0  0  0  0  0  0  0  0  0  0  0
    8.9286   -1.4550   -0.9800 C   0  0  0  0  0  0  0  0  0  0  0  0
    8.0198   -0.4961   -0.6149 C   0  0  0  0  0  0  0  0  0  0  0  0
   -7.2246   -4.1167   -4.2819 H   0  0  0  0  0  0  0  0  0  0  0  0
   -8.3605   -3.1962   -5.3230 H   0  0  0  0  0  0  0  0  0  0  0  0
   -8.9762   -4.0334   -3.8776 H   0  0  0  0  0  0  0  0  0  0  0  0
   -8.5509   -2.2953   -2.5024 H   0  0  0  0  0  0  0  0  0  0  0  0
   -8.1590   -1.2875   -3.9246 H   0  0  0  0  0  0  0  0  0  0  0  0
   -5.9879   -1.9690   -4.0918 H   0  0  0  0  0  0  0  0  0  0  0  0
   -6.0259   -3.1603   -2.7702 H   0  0  0  0  0  0  0  0  0  0  0  0
   -6.5427   -0.0936   -2.6517 H   0  0  0  0  0  0  0  0  0  0  0  0
   -6.8546   -1.1450   -1.2807 H   0  0  0  0  0  0  0  0  0  0  0  0
   -4.7423    0.8757   -2.8892 H   0  0  0  0  0  0  0  0  0  0  0  0
   -3.7361    0.9115   -1.4616 H   0  0  0  0  0  0  0  0  0  0  0  0
   -1.8979   -0.2708   -2.6907 H   0  0  0  0  0  0  0  0  0  0  0  0
   -2.6251    1.0747   -3.5891 H   0  0  0  0  0  0  0  0  0  0  0  0
   -3.5691   -0.4009   -5.2356 H   0  0  0  0  0  0  0  0  0  0  0  0
   -1.8513   -0.6352   -4.9500 H   0  0  0  0  0  0  0  0  0  0  0  0
   -3.8664   -2.6531   -4.8936 H   0  0  0  0  0  0  0  0  0  0  0  0
   -3.0196   -2.5977   -3.2587 H   0  0  0  0  0  0  0  0  0  0  0  0
   -2.1161   -2.8403   -4.7750 H   0  0  0  0  0  0  0  0  0  0  0  0
   -0.3009   -1.6602    3.5315 H   0  0  0  0  0  0  0  0  0  0  0  0
   -1.9073   -2.2891    3.9735 H   0  0  0  0  0  0  0  0  0  0  0  0
   -0.7370   -3.3244    3.0361 H   0  0  0  0  0  0  0  0  0  0  0  0
    0.9769   -2.2363    1.5090 H   0  0  0  0  0  0  0  0  0  0  0  0
    3.2530   -1.3530    1.6237 H   0  0  0  0  0  0  0  0  0  0  0  0
    1.7059    2.5008    0.7555 H   0  0  0  0  0  0  0  0  0  0  0  0
   -2.8432    3.3835   -0.0542 H   0  0  0  0  0  0  0  0  0  0  0  0
   -3.7300    3.0313    1.4526 H   0  0  0  0  0  0  0  0  0  0  0  0
   -3.4076    5.4216    1.2394 H   0  0  0  0  0  0  0  0  0  0  0  0
   -1.6144    5.1325    0.9778 H   0  0  0  0  0  0  0  0  0  0  0  0
   -3.0160    6.7505    3.2185 H   0  0  0  0  0  0  0  0  0  0  0  0
   -2.5601    6.7963    5.6838 H   0  0  0  0  0  0  0  0  0  0  0  0
   -1.5562    4.8521    6.7795 H   0  0  0  0  0  0  0  0  0  0  0  0
   -0.9887    2.8613    5.4446 H   0  0  0  0  0  0  0  0  0  0  0  0
   -1.8953    1.6724    3.3804 H   0  0  0  0  0  0  0  0  0  0  0  0
   -0.2226    2.3675    2.9651 H   0  0  0  0  0  0  0  0  0  0  0  0
    5.0614   -0.5977    1.1290 H   0  0  0  0  0  0  0  0  0  0  0  0
    8.7211   -0.3905    2.6535 H   0  0  0  0  0  0  0  0  0  0  0  0
   10.3651   -2.1333    1.9525 H   0  0  0  0  0  0  0  0  0  0  0  0
   11.3382   -3.4732    0.2767 H   0  0  0  0  0  0  0  0  0  0  0  0
   11.4939   -4.2017   -2.0647 H   0  0  0  0  0  0  0  0  0  0  0  0
    9.9755   -3.1450   -3.7305 H   0  0  0  0  0  0  0  0  0  0  0  0
    8.3721   -1.4143   -3.0072 H   0  0  0  0  0  0  0  0  0  0  0  0
    7.3704   -0.0487   -1.3544 H   0  0  0  0  0  0  0  0  0  0  0  0
  1  2  1  0
  2  3  1  0
  3  4  1  0
  4  5  1  0
  5  6  1  0
  6  7  1  0
  7  8  1  0
  8  9  1  0
  5 10  1  0
 10 11  2  0
 10 12  1  0
 12 13  2  0
 13 14  1  0
 14 15  1  0
 15 16  1  0
 15 17  2  0
 17 18  1  0
 14 19  1  0
 19 20  2  0
 20 21  1  0
 21 22  2  0
 22 23  1  0
 23 24  2  0
 24 25  1  0
 25 26  2  0
 25 27  1  0
 27 28  1  0
 28 29  1  0
 29 30  1  0
 30 31  2  0
 31 32  1  0
 32 33  2  0
 33 34  1  0
 34 35  2  0
 35 36  1  0
 22 37  1  0
 37 38  2  0
 37 39  1  0
 39 40  1  0
 40 41  2  0
 40 42  2  0
 40 43  1  0
 43 44  2  0
 44 45  1  0
 45 46  2  0
 46 47  1  0
 47 48  2  0
 48 49  1  0
 49 50  2  0
 50 51  1  0
 51 52  2  0
 17 12  1  0
 24 19  1  0
 36 27  1  0
 52 43  1  0
 35 30  1  0
 51 46  1  0
  1 53  1  0
  1 54  1  0
  1 55  1  0
  2 56  1  0
  2 57  1  0
  3 58  1  0
  3 59  1  0
  4 60  1  0
  4 61  1  0
  6 62  1  0
  6 63  1  0
  7 64  1  0
  7 65  1  0
  8 66  1  0
  8 67  1  0
  9 68  1  0
  9 69  1  0
  9 70  1  0
 16 71  1  0
 16 72  1  0
 16 73  1  0
 20 74  1  0
 21 75  1  0
 23 76  1  0
 28 77  1  0
 28 78  1  0
 29 79  1  0
 29 80  1  0
 31 81  1  0
 32 82  1  0
 33 83  1  0
 34 84  1  0
 36 85  1  0
 36 86  1  0
 39 87  1  0
 44 88  1  0
 45 89  1  0
 47 90  1  0
 48 91  1  0
 49 92  1  0
 50 93  1  0
 52 94  1  0
M  END
$$$$
[H]N=C(N([H])[H])N([H])C([H])([H])C([H])([H])C([H])([H])[C@@]([H])(C(=O)c1nc([H])c([H])s1)N([H])C(=O)[C@@]([H])(N([H])C(=O)[C@@]([H])(N([H])S(=O)(=O)c1c([H])c([H])c(-c2c([H])c([H])c([H])c(C([H])([H])C([H])([H])N([H])[H])c2[H])c([H])c1[H])C([H])(C([H])([H])[H])C([H])([H])[H])C([H])([H])c1c([H])c([H])c(O[H])c([H])c1[H]
     RDKit          3D

 99102  0  0  0  0  0  0  0  0999 V2000
    2.5733    1.8867   -0.1537 C   0  0  0  0  0  0  0  0  0  0  0  0
    1.1897    1.4173   -0.5515 C   0  0  0  0  0  0  0  0  0  0  0  0
    0.3142    2.6104   -0.7016 C   0  0  0  0  0  0  0  0  0  0  0  0
    1.1935    0.4458   -1.6662 C   0  0  2  0  0  0  0  0  0  0  0  0
    1.7524    0.8456   -2.8996 N   0  0  0  0  0  0  0  0  0  0  0  0
    2.9697   -0.0134   -3.6276 S   0  0  0  0  0  0  0  0  0  0  0  0
    3.4494    0.6068   -4.9382 O   0  0  0  0  0  0  0  0  0  0  0  0
    2.6402   -1.4330   -3.9828 O   0  0  0  0  0  0  0  0  0  0  0  0
    4.3932   -0.0693   -2.6251 C   0  0  0  0  0  0  0  0  0  0  0  0
    4.6116   -1.1446   -1.7518 C   0  0  0  0  0  0  0  0  0  0  0  0
    5.7450   -1.1716   -0.9892 C   0  0  0  0  0  0  0  0  0  0  0  0
    6.7114   -0.1916   -1.0185 C   0  0  0  0  0  0  0  0  0  0  0  0
    6.5104    0.8747   -1.8729 C   0  0  0  0  0  0  0  0  0  0  0  0
    5.3544    0.9109   -2.6574 C   0  0  0  0  0  0  0  0  0  0  0  0
    7.9065   -0.3303   -0.1757 C   0  0  0  0  0  0  0  0  0  0  0  0
    8.4331   -1.5819    0.1026 C   0  0  0  0  0  0  0  0  0  0  0  0
    9.5501   -1.6619    0.8992 C   0  0  0  0  0  0  0  0  0  0  0  0
   10.1708   -0.5613    1.4345 C   0  0  0  0  0  0  0  0  0  0  0  0
    9.6406    0.6912    1.1547 C   0  0  0  0  0  0  0  0  0  0  0  0
   10.2227    1.9384    1.6982 C   0  0  0  0  0  0  0  0  0  0  0  0
    9.6087    2.2846    3.0458 C   0  0  0  0  0  0  0  0  0  0  0  0
    9.8565    1.2042    3.9933 N   0  0  0  0  0  0  0  0  0  0  0  0
    8.5196    0.7756    0.3544 C   0  0  0  0  0  0  0  0  0  0  0  0
   -0.1429   -0.2085   -1.8166 C   0  0  0  0  0  0  0  0  0  0  0  0
   -0.5655   -0.3687   -2.9745 O   0  0  0  0  0  0  0  0  0  0  0  0
   -0.9273   -0.6433   -0.7442 N   0  0  0  0  0  0  0  0  0  0  0  0
   -2.2077   -1.2882   -0.9170 C   0  0  1  0  0  0  0  0  0  0  0  0
   -2.3192   -2.5658   -0.1785 C   0  0  0  0  0  0  0  0  0  0  0  0
   -2.1489   -2.4872    1.2830 C   0  0  0  0  0  0  0  0  0  0  0  0
   -0.8408   -2.6282    1.7821 C   0  0  0  0  0  0  0  0  0  0  0  0
   -0.6995   -2.5593    3.1450 C   0  0  0  0  0  0  0  0  0  0  0  0
   -1.7160   -2.3676    4.0417 C   0  0  0  0  0  0  0  0  0  0  0  0
   -1.5099   -2.3064    5.4147 O   0  0  0  0  0  0  0  0  0  0  0  0
   -2.9895   -2.2353    3.4885 C   0  0  0  0  0  0  0  0  0  0  0  0
   -3.1998   -2.2943    2.1344 C   0  0  0  0  0  0  0  0  0  0  0  0
   -3.3660   -0.3555   -0.7530 C   0  0  0  0  0  0  0  0  0  0  0  0
   -3.1431    0.8299   -0.4668 O   0  0  0  0  0  0  0  0  0  0  0  0
   -4.6369   -0.8923   -0.9407 N   0  0  0  0  0  0  0  0  0  0  0  0
   -5.8950   -0.1189   -0.8514 C   0  0  1  0  0  0  0  0  0  0  0  0
   -6.7024   -0.4554    0.3019 C   0  0  0  0  0  0  0  0  0  0  0  0
   -8.0694    0.1286    0.4301 C   0  0  0  0  0  0  0  0  0  0  0  0
   -8.9549   -0.3323   -0.7542 C   0  0  0  0  0  0  0  0  0  0  0  0
   -9.0802   -1.7631   -0.7414 N   0  0  0  0  0  0  0  0  0  0  0  0
   -9.8319   -2.4093   -1.7616 C   0  0  0  0  0  0  0  0  0  0  0  0
  -11.1107   -2.9397   -1.4401 N   0  0  0  0  0  0  0  0  0  0  0  0
   -9.3901   -2.5297   -2.9669 N   0  0  0  0  0  0  0  0  0  0  0  0
   -5.5393    1.2200   -1.2474 C   0  0  0  0  0  0  0  0  0  0  0  0
   -4.9589    1.2806   -2.4242 O   0  0  0  0  0  0  0  0  0  0  0  0
   -5.6842    2.5172   -0.6030 C   0  0  0  0  0  0  0  0  0  0  0  0
   -5.3943    3.7062   -1.1627 N   0  0  0  0  0  0  0  0  0  0  0  0
   -5.4794    4.7808   -0.4712 C   0  0  0  0  0  0  0  0  0  0  0  0
   -5.8692    4.6900    0.8383 C   0  0  0  0  0  0  0  0  0  0  0  0
   -6.0925    3.0111    0.9863 S   0  0  0  0  0  0  0  0  0  0  0  0
    3.0981    2.3282   -1.0243 H   0  0  0  0  0  0  0  0  0  0  0  0
    2.5017    2.7572    0.5674 H   0  0  0  0  0  0  0  0  0  0  0  0
    3.1498    1.1113    0.3877 H   0  0  0  0  0  0  0  0  0  0  0  0
    0.8112    0.8842    0.3734 H   0  0  0  0  0  0  0  0  0  0  0  0
   -0.6786    2.5165   -0.2176 H   0  0  0  0  0  0  0  0  0  0  0  0
    0.1433    2.9351   -1.7476 H   0  0  0  0  0  0  0  0  0  0  0  0
    0.7799    3.5072   -0.1941 H   0  0  0  0  0  0  0  0  0  0  0  0
    1.8261   -0.4464   -1.3327 H   0  0  0  0  0  0  0  0  0  0  0  0
    1.7589    1.8790   -3.0635 H   0  0  0  0  0  0  0  0  0  0  0  0
    3.8442   -1.8935   -1.7472 H   0  0  0  0  0  0  0  0  0  0  0  0
    5.9118   -2.0072   -0.3124 H   0  0  0  0  0  0  0  0  0  0  0  0
    7.2507    1.6574   -1.9160 H   0  0  0  0  0  0  0  0  0  0  0  0
    5.2120    1.7519   -3.3212 H   0  0  0  0  0  0  0  0  0  0  0  0
    7.9420   -2.4349   -0.3181 H   0  0  0  0  0  0  0  0  0  0  0  0
    9.9886   -2.6353    1.1358 H   0  0  0  0  0  0  0  0  0  0  0  0
   11.0525   -0.6345    2.0594 H   0  0  0  0  0  0  0  0  0  0  0  0
   10.0434    2.7750    1.0076 H   0  0  0  0  0  0  0  0  0  0  0  0
   11.3127    1.8474    1.8667 H   0  0  0  0  0  0  0  0  0  0  0  0
   10.1405    3.1767    3.4270 H   0  0  0  0  0  0  0  0  0  0  0  0
    8.5391    2.5414    2.9753 H   0  0  0  0  0  0  0  0  0  0  0  0
   10.8511    0.9472    4.0361 H   0  0  0  0  0  0  0  0  0  0  0  0
    9.3967    1.3460    4.8963 H   0  0  0  0  0  0  0  0  0  0  0  0
    8.0887    1.7481    0.1224 H   0  0  0  0  0  0  0  0  0  0  0  0
   -0.6024   -0.5094    0.2345 H   0  0  0  0  0  0  0  0  0  0  0  0
   -2.2567   -1.5508   -2.0235 H   0  0  0  0  0  0  0  0  0  0  0  0
   -3.2993   -3.0590   -0.4141 H   0  0  0  0  0  0  0  0  0  0  0  0
   -1.5663   -3.2918   -0.6124 H   0  0  0  0  0  0  0  0  0  0  0  0
   -0.0203   -2.7798    1.0906 H   0  0  0  0  0  0  0  0  0  0  0  0
    0.3139   -2.6677    3.5349 H   0  0  0  0  0  0  0  0  0  0  0  0
   -1.3251   -1.4121    5.8139 H   0  0  0  0  0  0  0  0  0  0  0  0
   -3.8618   -2.0803    4.1404 H   0  0  0  0  0  0  0  0  0  0  0  0
   -4.2141   -2.1901    1.7340 H   0  0  0  0  0  0  0  0  0  0  0  0
   -4.7875   -1.9283   -1.1680 H   0  0  0  0  0  0  0  0  0  0  0  0
   -6.4948   -0.4955   -1.7822 H   0  0  0  0  0  0  0  0  0  0  0  0
   -6.1219   -0.3313    1.2701 H   0  0  0  0  0  0  0  0  0  0  0  0
   -6.8629   -1.5857    0.2908 H   0  0  0  0  0  0  0  0  0  0  0  0
   -8.5387   -0.3640    1.3415 H   0  0  0  0  0  0  0  0  0  0  0  0
   -8.2008    1.1916    0.4655 H   0  0  0  0  0  0  0  0  0  0  0  0
   -9.9272    0.1955   -0.6380 H   0  0  0  0  0  0  0  0  0  0  0  0
   -8.4565    0.0262   -1.6735 H   0  0  0  0  0  0  0  0  0  0  0  0
   -8.6596   -2.3739   -0.0253 H   0  0  0  0  0  0  0  0  0  0  0  0
  -11.6969   -2.6238   -0.6344 H   0  0  0  0  0  0  0  0  0  0  0  0
  -11.5346   -3.7055   -2.0258 H   0  0  0  0  0  0  0  0  0  0  0  0
   -8.4639   -2.1652   -3.2680 H   0  0  0  0  0  0  0  0  0  0  0  0
   -5.2449    5.7840   -0.9061 H   0  0  0  0  0  0  0  0  0  0  0  0
   -5.9933    5.5103    1.5673 H   0  0  0  0  0  0  0  0  0  0  0  0
  1  2  1  0
  2  3  1  0
  2  4  1  0
  4  5  1  0
  5  6  1  0
  6  7  2  0
  6  8  2  0
  6  9  1  0
  9 10  2  0
 10 11  1  0
 11 12  2  0
 12 13  1  0
 13 14  2  0
 12 15  1  0
 15 16  2  0
 16 17  1  0
 17 18  2  0
 18 19  1  0
 19 20  1  0
 20 21  1  0
 21 22  1  0
 19 23  2  0
  4 24  1  0
 24 25  2  0
 24 26  1  0
 26 27  1  0
 27 28  1  0
 28 29  1  0
 29 30  2  0
 30 31  1  0
 31 32  2  0
 32 33  1  0
 32 34  1  0
 34 35  2  0
 27 36  1  0
 36 37  2  0
 36 38  1  0
 38 39  1  0
 39 40  1  0
 40 41  1  0
 41 42  1  0
 42 43  1  0
 43 44  1  0
 44 45  1  0
 44 46  2  3
 39 47  1  0
 47 48  2  0
 47 49  1  0
 49 50  2  0
 50 51  1  0
 51 52  2  0
 52 53  1  0
 14  9  1  0
 23 15  1  0
 35 29  1  0
 53 49  1  0
  1 54  1  0
  1 55  1  0
  1 56  1  0
  2 57  1  0
  3 58  1  0
  3 59  1  0
  3 60  1  0
  4 61  1  1
  5 62  1  0
 10 63  1  0
 11 64  1  0
 13 65  1  0
 14 66  1  0
 16 67  1  0
 17 68  1  0
 18 69  1  0
 20 70  1  0
 20 71  1  0
 21 72  1  0
 21 73  1  0
 22 74  1  0
 22 75  1  0
 23 76  1  0
 26 77  1  0
 27 78  1  6
 28 79  1  0
 28 80  1  0
 30 81  1  0
 31 82  1  0
 33 83  1  0
 34 84  1  0
 35 85  1  0
 38 86  1  0
 39 87  1  6
 40 88  1  0
 40 89  1  0
 41 90  1  0
 41 91  1  0
 42 92  1  0
 42 93  1  0
 43 94  1  0
 45 95  1  0
 45 96  1  0
 46 97  1  0
 51 98  1  0
 52 99  1  0
M  END
$$$$
[H]Oc1c([H])c([H])c2c([H])c(-c3c([H])c([H])c([H])c([H])c3[H])c(/C([H])=C(\[H])C([H])([H])[H])c([H])c2c1[H]
     RDKit          3D

 36 38  0  0  0  0  0  0  0  0999 V2000
   -2.1043    4.0172    0.1623 C   0  0  0  0  0  0  0  0  0  0  0  0
   -0.9803    3.0278   -0.0202 C   0  0  0  0  0  0  0  0  0  0  0  0
   -1.1746    1.7484    0.1259 C   0  0  0  0  0  0  0  0  0  0  0  0
   -0.0948    0.7910   -0.0488 C   0  0  0  0  0  0  0  0  0  0  0  0
    1.1935    1.1800   -0.3398 C   0  0  0  0  0  0  0  0  0  0  0  0
    2.2512    0.2866   -0.4963 C   0  0  0  0  0  0  0  0  0  0  0  0
    3.5320    0.7639   -0.7913 C   0  0  0  0  0  0  0  0  0  0  0  0
    4.5699   -0.1286   -0.9434 C   0  0  0  0  0  0  0  0  0  0  0  0
    5.8589    0.3375   -1.2394 O   0  0  0  0  0  0  0  0  0  0  0  0
    4.3175   -1.4738   -0.8001 C   0  0  0  0  0  0  0  0  0  0  0  0
    3.0378   -1.9638   -0.5044 C   0  0  0  0  0  0  0  0  0  0  0  0
    2.0207   -1.0531   -0.3579 C   0  0  0  0  0  0  0  0  0  0  0  0
    0.7453   -1.4582   -0.0691 C   0  0  0  0  0  0  0  0  0  0  0  0
   -0.3129   -0.5754    0.0875 C   0  0  0  0  0  0  0  0  0  0  0  0
   -1.6065   -1.1537    0.3543 C   0  0  0  0  0  0  0  0  0  0  0  0
   -2.7036   -0.8923   -0.4173 C   0  0  0  0  0  0  0  0  0  0  0  0
   -3.9503   -1.4481   -0.1621 C   0  0  0  0  0  0  0  0  0  0  0  0
   -4.0971   -2.3017    0.9142 C   0  0  0  0  0  0  0  0  0  0  0  0
   -3.0087   -2.5841    1.7103 C   0  0  0  0  0  0  0  0  0  0  0  0
   -1.7814   -2.0132    1.4275 C   0  0  0  0  0  0  0  0  0  0  0  0
   -2.8647    3.4983    0.7876 H   0  0  0  0  0  0  0  0  0  0  0  0
   -2.4963    4.3701   -0.7935 H   0  0  0  0  0  0  0  0  0  0  0  0
   -1.6967    4.8742    0.7375 H   0  0  0  0  0  0  0  0  0  0  0  0
   -0.0431    3.4546   -0.2721 H   0  0  0  0  0  0  0  0  0  0  0  0
   -2.1900    1.4588    0.3970 H   0  0  0  0  0  0  0  0  0  0  0  0
    1.4225    2.2355   -0.4581 H   0  0  0  0  0  0  0  0  0  0  0  0
    3.6745    1.8168   -0.8922 H   0  0  0  0  0  0  0  0  0  0  0  0
    6.4901    0.5605   -0.4809 H   0  0  0  0  0  0  0  0  0  0  0  0
    5.1428   -2.1633   -0.9224 H   0  0  0  0  0  0  0  0  0  0  0  0
    2.8417   -3.0197   -0.3924 H   0  0  0  0  0  0  0  0  0  0  0  0
    0.5229   -2.5365    0.0500 H   0  0  0  0  0  0  0  0  0  0  0  0
   -2.5934   -0.2137   -1.2756 H   0  0  0  0  0  0  0  0  0  0  0  0
   -4.7718   -1.1996   -0.8099 H   0  0  0  0  0  0  0  0  0  0  0  0
   -5.0730   -2.7583    1.1427 H   0  0  0  0  0  0  0  0  0  0  0  0
   -3.1543   -3.2532    2.5421 H   0  0  0  0  0  0  0  0  0  0  0  0
   -0.9237   -2.2308    2.0483 H   0  0  0  0  0  0  0  0  0  0  0  0
  1  2  1  0
  2  3  2  0
  3  4  1  0
  4  5  2  0
  5  6  1  0
  6  7  2  0
  7  8  1  0
  8  9  1  0
  8 10  2  0
 10 11  1  0
 11 12  2  0
 12 13  1  0
 13 14  2  0
 14 15  1  0
 15 16  2  0
 16 17  1  0
 17 18  2  0
 18 19  1  0
 19 20  2  0
 14  4  1  0
 20 15  1  0
 12  6  1  0
  1 21  1  0
  1 22  1  0
  1 23  1  0
  2 24  1  0
  3 25  1  0
  5 26  1  0
  7 27  1  0
  9 28  1  0
 10 29  1  0
 11 30  1  0
 13 31  1  0
 16 32  1  0
 17 33  1  0
 18 34  1  0
 19 35  1  0
 20 36  1  0
M  END
$$$$
[H]c1c([H])c(-c2c(C([H])([H])[H])n(C([H])([H])[H])c3c2c([H])c(C#N)c2c(-c4c([H])c([H])c(C([H])([H])N5C([H])([H])C(=O)N([H])C([H])([H])C5([H])[H])c([H])c4[H])c([H])n([H])c23)c([H])c([H])c1F
     RDKit          3D

 63 68  0  0  0  0  0  0  0  0999 V2000
   -6.6581    2.4216    0.0873 C   0  0  0  0  0  0  0  0  0  0  0  0
   -5.2801    1.8393    0.0660 C   0  0  0  0  0  0  0  0  0  0  0  0
   -5.0416    0.4890    0.1383 C   0  0  0  0  0  0  0  0  0  0  0  0
   -5.9620   -0.6335    0.2360 C   0  0  0  0  0  0  0  0  0  0  0  0
   -6.5509   -0.9947    1.4471 C   0  0  0  0  0  0  0  0  0  0  0  0
   -7.4195   -2.0490    1.5418 C   0  0  0  0  0  0  0  0  0  0  0  0
   -7.7589   -2.8112    0.4431 C   0  0  0  0  0  0  0  0  0  0  0  0
   -8.6157   -3.8547    0.5260 F   0  0  0  0  0  0  0  0  0  0  0  0
   -7.1826   -2.4659   -0.7671 C   0  0  0  0  0  0  0  0  0  0  0  0
   -6.3045   -1.3998   -0.8619 C   0  0  0  0  0  0  0  0  0  0  0  0
   -3.6579    0.3719    0.0901 C   0  0  0  0  0  0  0  0  0  0  0  0
   -2.8453   -0.7311    0.1247 C   0  0  0  0  0  0  0  0  0  0  0  0
   -1.4514   -0.5865    0.0597 C   0  0  0  0  0  0  0  0  0  0  0  0
   -0.6251   -1.7550    0.1253 C   0  0  0  0  0  0  0  0  0  0  0  0
    0.0272   -2.7372    0.1940 N   0  0  0  0  0  0  0  0  0  0  0  0
   -0.8980    0.6488   -0.0393 C   0  0  0  0  0  0  0  0  0  0  0  0
    0.3933    1.0949   -0.1186 C   0  0  0  0  0  0  0  0  0  0  0  0
    0.3114    2.4840   -0.1971 C   0  0  0  0  0  0  0  0  0  0  0  0
   -0.9493    2.8754   -0.1700 N   0  0  0  0  0  0  0  0  0  0  0  0
   -1.7287    1.7788   -0.0738 C   0  0  0  0  0  0  0  0  0  0  0  0
   -3.0951    1.6254   -0.0086 C   0  0  0  0  0  0  0  0  0  0  0  0
   -4.1001    2.5136   -0.0221 N   0  0  0  0  0  0  0  0  0  0  0  0
   -3.9687    3.9380   -0.1129 C   0  0  0  0  0  0  0  0  0  0  0  0
    1.6375    0.3433   -0.1559 C   0  0  0  0  0  0  0  0  0  0  0  0
    2.4244    0.1061    0.9499 C   0  0  0  0  0  0  0  0  0  0  0  0
    3.6315   -0.5828    0.8769 C   0  0  0  0  0  0  0  0  0  0  0  0
    4.0944   -1.0633   -0.3283 C   0  0  0  0  0  0  0  0  0  0  0  0
    5.3988   -1.7985   -0.4226 C   0  0  0  0  0  0  0  0  0  0  0  0
    6.2783   -1.4577    0.6792 N   0  0  0  0  0  0  0  0  0  0  0  0
    6.5394   -0.0456    0.6379 C   0  0  0  0  0  0  0  0  0  0  0  0
    7.9512    0.3107    0.2276 C   0  0  0  0  0  0  0  0  0  0  0  0
    8.8421   -0.3522    1.1588 N   0  0  0  0  0  0  0  0  0  0  0  0
    8.6174   -1.7551    1.3253 C   0  0  0  0  0  0  0  0  0  0  0  0
    9.3362   -2.4619    2.0611 O   0  0  0  0  0  0  0  0  0  0  0  0
    7.4582   -2.2865    0.5466 C   0  0  0  0  0  0  0  0  0  0  0  0
    3.3154   -0.8322   -1.4410 C   0  0  0  0  0  0  0  0  0  0  0  0
    2.1195   -0.1490   -1.3654 C   0  0  0  0  0  0  0  0  0  0  0  0
   -6.6900    3.3793   -0.4720 H   0  0  0  0  0  0  0  0  0  0  0  0
   -6.9927    2.6459    1.1202 H   0  0  0  0  0  0  0  0  0  0  0  0
   -7.3835    1.7506   -0.4389 H   0  0  0  0  0  0  0  0  0  0  0  0
   -6.2968   -0.4065    2.3252 H   0  0  0  0  0  0  0  0  0  0  0  0
   -7.8935   -2.3505    2.4856 H   0  0  0  0  0  0  0  0  0  0  0  0
   -7.4041   -3.0203   -1.6712 H   0  0  0  0  0  0  0  0  0  0  0  0
   -5.8527   -1.1283   -1.8046 H   0  0  0  0  0  0  0  0  0  0  0  0
   -3.2862   -1.7016    0.2017 H   0  0  0  0  0  0  0  0  0  0  0  0
    1.1780    3.1186   -0.2681 H   0  0  0  0  0  0  0  0  0  0  0  0
   -1.3053    3.8457   -0.2129 H   0  0  0  0  0  0  0  0  0  0  0  0
   -4.9900    4.4182   -0.0386 H   0  0  0  0  0  0  0  0  0  0  0  0
   -3.4037    4.3965    0.7249 H   0  0  0  0  0  0  0  0  0  0  0  0
   -3.4857    4.1944   -1.0706 H   0  0  0  0  0  0  0  0  0  0  0  0
    2.0845    0.4731    1.9155 H   0  0  0  0  0  0  0  0  0  0  0  0
    4.2310   -0.7566    1.7649 H   0  0  0  0  0  0  0  0  0  0  0  0
    5.1704   -2.8918   -0.3739 H   0  0  0  0  0  0  0  0  0  0  0  0
    5.9030   -1.6288   -1.3900 H   0  0  0  0  0  0  0  0  0  0  0  0
    5.8812    0.4498   -0.1096 H   0  0  0  0  0  0  0  0  0  0  0  0
    6.3327    0.4066    1.6209 H   0  0  0  0  0  0  0  0  0  0  0  0
    8.0210    1.4112    0.2611 H   0  0  0  0  0  0  0  0  0  0  0  0
    8.1165   -0.0709   -0.8036 H   0  0  0  0  0  0  0  0  0  0  0  0
    9.5926    0.1384    1.6758 H   0  0  0  0  0  0  0  0  0  0  0  0
    7.7712   -2.1947   -0.5351 H   0  0  0  0  0  0  0  0  0  0  0  0
    7.1883   -3.3141    0.8128 H   0  0  0  0  0  0  0  0  0  0  0  0
    3.7069   -1.2253   -2.3851 H   0  0  0  0  0  0  0  0  0  0  0  0
    1.5243    0.0236   -2.2373 H   0  0  0  0  0  0  0  0  0  0  0  0
  1  2  1  0
  2  3  2  0
  3  4  1  0
  4  5  2  0
  5  6  1  0
  6  7  2  0
  7  8  1  0
  7  9  1  0
  9 10  2  0
  3 11  1  0
 11 12  2  0
 12 13  1  0
 13 14  1  0
 14 15  3  0
 13 16  2  0
 16 17  1  0
 17 18  2  0
 18 19  1  0
 19 20  1  0
 20 21  2  0
 21 22  1  0
 22 23  1  0
 17 24  1  0
 24 25  2  0
 25 26  1  0
 26 27  2  0
 27 28  1  0
 28 29  1  0
 29 30  1  0
 30 31  1  0
 31 32  1  0
 32 33  1  0
 33 34  2  0
 33 35  1  0
 27 36  1  0
 36 37  2  0
 22  2  1  0
 37 24  1  0
 10  4  1  0
 21 11  1  0
 35 29  1  0
 20 16  1  0
  1 38  1  0
  1 39  1  0
  1 40  1  0
  5 41  1  0
  6 42  1  0
  9 43  1  0
 10 44  1  0
 12 45  1  0
 18 46  1  0
 19 47  1  0
 23 48  1  0
 23 49  1  0
 23 50  1  0
 25 51  1  0
 26 52  1  0
 28 53  1  0
 28 54  1  0
 30 55  1  0
 30 56  1  0
 31 57  1  0
 31 58  1  0
 32 59  1  0
 35 60  1  0
 35 61  1  0
 36 62  1  0
 37 63  1  0
M  END
$$$$
[H]c1nc2c(c([H])c(C3([H])C([H])([H])C([H])([H])N([H])C([H])([H])C3([H])[H])n2[H])c(-c2c([H])c([H])c(N([H])C(=O)c3c([H])c(F)c([H])c([H])c3C([H])([H])[H])c([H])c2[H])c1[H]
     RDKit          3D

 57 61  0  0  0  0  0  0  0  0999 V2000
   -6.0539    0.5055   -0.7840 C   0  0  0  0  0  0  0  0  0  0  0  0
   -6.5216    0.0561    0.5656 C   0  0  0  0  0  0  0  0  0  0  0  0
   -7.7296    0.6329    0.9778 C   0  0  0  0  0  0  0  0  0  0  0  0
   -8.3140    0.2809    2.1821 C   0  0  0  0  0  0  0  0  0  0  0  0
   -7.6433   -0.6573    2.9395 C   0  0  0  0  0  0  0  0  0  0  0  0
   -8.2085   -1.0107    4.1363 F   0  0  0  0  0  0  0  0  0  0  0  0
   -6.4539   -1.2297    2.5413 C   0  0  0  0  0  0  0  0  0  0  0  0
   -5.8964   -0.8553    1.3328 C   0  0  0  0  0  0  0  0  0  0  0  0
   -4.5764   -1.4483    0.9774 C   0  0  0  0  0  0  0  0  0  0  0  0
   -4.6253   -2.7398    1.2082 O   0  0  0  0  0  0  0  0  0  0  0  0
   -3.5017   -0.7800    0.5037 N   0  0  0  0  0  0  0  0  0  0  0  0
   -2.4010   -0.1320    0.0249 C   0  0  0  0  0  0  0  0  0  0  0  0
   -2.3214    0.3695   -1.2496 C   0  0  0  0  0  0  0  0  0  0  0  0
   -1.2096    1.0520   -1.6523 C   0  0  0  0  0  0  0  0  0  0  0  0
   -0.1390    1.2645   -0.8136 C   0  0  0  0  0  0  0  0  0  0  0  0
   -0.1755    0.7807    0.4671 C   0  0  0  0  0  0  0  0  0  0  0  0
   -1.2823    0.0961    0.8831 C   0  0  0  0  0  0  0  0  0  0  0  0
    0.9969    2.0213   -1.3088 C   0  0  0  0  0  0  0  0  0  0  0  0
    0.8170    3.2472   -1.9421 C   0  0  0  0  0  0  0  0  0  0  0  0
    1.9238    3.9453   -2.4014 C   0  0  0  0  0  0  0  0  0  0  0  0
    3.1406    3.4286   -2.2280 N   0  0  0  0  0  0  0  0  0  0  0  0
    3.3739    2.2472   -1.6221 C   0  0  0  0  0  0  0  0  0  0  0  0
    4.4888    1.5689   -1.3609 N   0  0  0  0  0  0  0  0  0  0  0  0
    4.1605    0.4083   -0.7248 C   0  0  0  0  0  0  0  0  0  0  0  0
    2.7893    0.3880   -0.5973 C   0  0  0  0  0  0  0  0  0  0  0  0
    2.2615    1.5378   -1.1555 C   0  0  0  0  0  0  0  0  0  0  0  0
    5.1062   -0.6297   -0.2886 C   0  0  0  0  0  0  0  0  0  0  0  0
    5.3842   -0.6427    1.1937 C   0  0  0  0  0  0  0  0  0  0  0  0
    6.7468   -1.3359    1.3620 C   0  0  0  0  0  0  0  0  0  0  0  0
    6.9733   -2.2658    0.3022 N   0  0  0  0  0  0  0  0  0  0  0  0
    5.7951   -2.9527   -0.1677 C   0  0  0  0  0  0  0  0  0  0  0  0
    4.7384   -2.0176   -0.7012 C   0  0  0  0  0  0  0  0  0  0  0  0
   -5.3824   -0.2832   -1.2019 H   0  0  0  0  0  0  0  0  0  0  0  0
   -6.9438    0.5001   -1.4707 H   0  0  0  0  0  0  0  0  0  0  0  0
   -5.5444    1.4588   -0.7073 H   0  0  0  0  0  0  0  0  0  0  0  0
   -8.2319    1.3607    0.3679 H   0  0  0  0  0  0  0  0  0  0  0  0
   -9.2659    0.7305    2.5152 H   0  0  0  0  0  0  0  0  0  0  0  0
   -5.9790   -1.9454    3.1579 H   0  0  0  0  0  0  0  0  0  0  0  0
   -2.8004   -1.9542    0.3895 H   0  0  0  0  0  0  0  0  0  0  0  0
   -3.1626    0.1968   -1.9216 H   0  0  0  0  0  0  0  0  0  0  0  0
   -1.2100    1.4272   -2.6838 H   0  0  0  0  0  0  0  0  0  0  0  0
    0.6867    0.9505    1.1451 H   0  0  0  0  0  0  0  0  0  0  0  0
   -1.3576   -0.3080    1.8800 H   0  0  0  0  0  0  0  0  0  0  0  0
   -0.1972    3.6243   -2.0570 H   0  0  0  0  0  0  0  0  0  0  0  0
    1.8250    4.8961   -2.8957 H   0  0  0  0  0  0  0  0  0  0  0  0
    5.4947    1.8385   -1.5880 H   0  0  0  0  0  0  0  0  0  0  0  0
    2.2055   -0.3939   -0.1381 H   0  0  0  0  0  0  0  0  0  0  0  0
    6.1079   -0.3920   -0.7627 H   0  0  0  0  0  0  0  0  0  0  0  0
    4.6441   -1.2942    1.7553 H   0  0  0  0  0  0  0  0  0  0  0  0
    5.4856    0.3572    1.6504 H   0  0  0  0  0  0  0  0  0  0  0  0
    7.5645   -0.5659    1.3420 H   0  0  0  0  0  0  0  0  0  0  0  0
    6.8189   -1.8435    2.3412 H   0  0  0  0  0  0  0  0  0  0  0  0
    7.6066   -1.9239   -0.4525 H   0  0  0  0  0  0  0  0  0  0  0  0
    6.1397   -3.6187   -1.0031 H   0  0  0  0  0  0  0  0  0  0  0  0
    5.4129   -3.5641    0.6943 H   0  0  0  0  0  0  0  0  0  0  0  0
    3.7623   -2.3585   -0.2910 H   0  0  0  0  0  0  0  0  0  0  0  0
    4.6777   -2.0284   -1.7984 H   0  0  0  0  0  0  0  0  0  0  0  0
  1  2  1  0
  2  3  2  0
  3  4  1  0
  4  5  2  0
  5  6  1  0
  5  7  1  0
  7  8  2  0
  8  9  1  0
  9 10  2  0
  9 11  1  0
 11 12  1  0
 12 13  2  0
 13 14  1  0
 14 15  2  0
 15 16  1  0
 16 17  2  0
 15 18  1  0
 18 19  2  0
 19 20  1  0
 20 21  2  0
 21 22  1  0
 22 23  1  0
 23 24  1  0
 24 25  2  0
 25 26  1  0
 24 27  1  0
 27 28  1  0
 28 29  1  0
 29 30  1  0
 30 31  1  0
 31 32  1  0
  8  2  1  0
 17 12  1  0
 26 18  1  0
 32 27  1  0
 26 22  2  0
  1 33  1  0
  1 34  1  0
  1 35  1  0
  3 36  1  0
  4 37  1  0
  7 38  1  0
 11 39  1  0
 13 40  1  0
 14 41  1  0
 16 42  1  0
 17 43  1  0
 19 44  1  0
 20 45  1  0
 23 46  1  0
 25 47  1  0
 27 48  1  0
 28 49  1  0
 28 50  1  0
 29 51  1  0
 29 52  1  0
 30 53  1  0
 31 54  1  0
 31 55  1  0
 32 56  1  0
 32 57  1  0
M  END
$$$$
[H]c1c([H])c([H])c(C([H])([H])N([H])C([H])([H])c2c([H])c([H])c([H])c(N3C(N([H])[H])=NC(N([H])[H])=NC3(C([H])([H])[H])C([H])([H])[H])c2[H])c([H])c1[H]
     RDKit          3D

 49 51  0  0  0  0  0  0  0  0999 V2000
   -3.5704   -0.6293   -1.8916 C   0  0  0  0  0  0  0  0  0  0  0  0
   -3.2833    0.4803   -0.8737 C   0  0  0  0  0  0  0  0  0  0  0  0
   -2.2204    1.4074   -1.4083 C   0  0  0  0  0  0  0  0  0  0  0  0
   -4.4937    1.2416   -0.7663 N   0  0  0  0  0  0  0  0  0  0  0  0
   -5.2353    1.3803    0.2664 C   0  0  0  0  0  0  0  0  0  0  0  0
   -6.3963    2.1802    0.1644 N   0  0  0  0  0  0  0  0  0  0  0  0
   -4.8357    0.7124    1.4563 N   0  0  0  0  0  0  0  0  0  0  0  0
   -3.7580   -0.0126    1.4960 C   0  0  0  0  0  0  0  0  0  0  0  0
   -3.4332   -0.6505    2.7437 N   0  0  0  0  0  0  0  0  0  0  0  0
   -2.9376   -0.1641    0.3436 N   0  0  0  0  0  0  0  0  0  0  0  0
   -1.7840   -0.9889    0.5163 C   0  0  0  0  0  0  0  0  0  0  0  0
   -1.8701   -2.3452    0.2682 C   0  0  0  0  0  0  0  0  0  0  0  0
   -0.7835   -3.1937    0.4200 C   0  0  0  0  0  0  0  0  0  0  0  0
    0.4352   -2.6969    0.8306 C   0  0  0  0  0  0  0  0  0  0  0  0
    0.5310   -1.3327    1.0827 C   0  0  0  0  0  0  0  0  0  0  0  0
    1.8269   -0.7589    1.5268 C   0  0  0  0  0  0  0  0  0  0  0  0
    2.6054   -0.3511    0.3689 N   0  0  0  0  0  0  0  0  0  0  0  0
    3.8587    0.2014    0.8523 C   0  0  0  0  0  0  0  0  0  0  0  0
    4.6671    0.6234   -0.3099 C   0  0  0  0  0  0  0  0  0  0  0  0
    4.5575    1.9126   -0.8194 C   0  0  0  0  0  0  0  0  0  0  0  0
    5.3004    2.3239   -1.8990 C   0  0  0  0  0  0  0  0  0  0  0  0
    6.1834    1.4454   -2.5047 C   0  0  0  0  0  0  0  0  0  0  0  0
    6.3087    0.1727   -2.0219 C   0  0  0  0  0  0  0  0  0  0  0  0
    5.5518   -0.2251   -0.9325 C   0  0  0  0  0  0  0  0  0  0  0  0
   -0.5591   -0.5019    0.9269 C   0  0  0  0  0  0  0  0  0  0  0  0
   -4.2292   -1.3832   -1.4250 H   0  0  0  0  0  0  0  0  0  0  0  0
   -4.0700   -0.1224   -2.7427 H   0  0  0  0  0  0  0  0  0  0  0  0
   -2.6390   -1.1445   -2.1876 H   0  0  0  0  0  0  0  0  0  0  0  0
   -1.2114    1.1000   -1.1111 H   0  0  0  0  0  0  0  0  0  0  0  0
   -2.3139    1.5290   -2.5240 H   0  0  0  0  0  0  0  0  0  0  0  0
   -2.3876    2.4264   -0.9979 H   0  0  0  0  0  0  0  0  0  0  0  0
   -7.2859    1.7663   -0.1819 H   0  0  0  0  0  0  0  0  0  0  0  0
   -6.3955    3.1858    0.4273 H   0  0  0  0  0  0  0  0  0  0  0  0
   -3.0014   -0.0518    3.4775 H   0  0  0  0  0  0  0  0  0  0  0  0
   -3.6174   -1.6538    2.9084 H   0  0  0  0  0  0  0  0  0  0  0  0
   -2.8140   -2.7557   -0.0540 H   0  0  0  0  0  0  0  0  0  0  0  0
   -0.8963   -4.2500    0.2145 H   0  0  0  0  0  0  0  0  0  0  0  0
    1.3154   -3.3038    0.9669 H   0  0  0  0  0  0  0  0  0  0  0  0
    2.4289   -1.5298    2.0494 H   0  0  0  0  0  0  0  0  0  0  0  0
    1.6368    0.1273    2.1505 H   0  0  0  0  0  0  0  0  0  0  0  0
    2.7862   -1.1491   -0.2584 H   0  0  0  0  0  0  0  0  0  0  0  0
    4.4226   -0.5403    1.4473 H   0  0  0  0  0  0  0  0  0  0  0  0
    3.6067    1.0346    1.5216 H   0  0  0  0  0  0  0  0  0  0  0  0
    3.8689    2.5709   -0.3338 H   0  0  0  0  0  0  0  0  0  0  0  0
    5.2040    3.3268   -2.2823 H   0  0  0  0  0  0  0  0  0  0  0  0
    6.7657    1.7733   -3.3538 H   0  0  0  0  0  0  0  0  0  0  0  0
    6.9857   -0.5180   -2.4778 H   0  0  0  0  0  0  0  0  0  0  0  0
    5.6418   -1.2323   -0.5396 H   0  0  0  0  0  0  0  0  0  0  0  0
   -0.4666    0.5637    1.1286 H   0  0  0  0  0  0  0  0  0  0  0  0
  1  2  1  0
  2  3  1  0
  2  4  1  0
  4  5  2  0
  5  6  1  0
  5  7  1  0
  7  8  2  0
  8  9  1  0
  8 10  1  0
 10 11  1  0
 11 12  2  0
 12 13  1  0
 13 14  2  0
 14 15  1  0
 15 16  1  0
 16 17  1  0
 17 18  1  0
 18 19  1  0
 19 20  2  0
 20 21  1  0
 21 22  2  0
 22 23  1  0
 23 24  2  0
 15 25  2  0
 10  2  1  0
 25 11  1  0
 24 19  1  0
  1 26  1  0
  1 27  1  0
  1 28  1  0
  3 29  1  0
  3 30  1  0
  3 31  1  0
  6 32  1  0
  6 33  1  0
  9 34  1  0
  9 35  1  0
 12 36  1  0
 13 37  1  0
 14 38  1  0
 16 39  1  0
 16 40  1  0
 17 41  1  0
 18 42  1  0
 18 43  1  0
 20 44  1  0
 21 45  1  0
 22 46  1  0
 23 47  1  0
 24 48  1  0
 25 49  1  0
M  END
$$$$
[H]c1c([H])c(Cl)c([H])c(S(=O)(=O)N([H])C(=O)[C@@]([H])(N([H])[H])C([H])(C([H])([H])[H])C([H])([H])[H])c1[H]
     RDKit          3D

 33 33  0  0  0  0  0  0  0  0999 V2000
   -4.5092    0.8574   -0.0893 C   0  0  0  0  0  0  0  0  0  0  0  0
   -3.2009    0.2331   -0.4910 C   0  0  0  0  0  0  0  0  0  0  0  0
   -3.2938   -1.2469   -0.3576 C   0  0  0  0  0  0  0  0  0  0  0  0
   -2.0249    0.8777    0.2153 C   0  0  2  0  0  0  0  0  0  0  0  0
   -1.9931    2.3024   -0.1401 N   0  0  0  0  0  0  0  0  0  0  0  0
   -0.7631    0.2743   -0.2532 C   0  0  0  0  0  0  0  0  0  0  0  0
   -0.2850    0.7420   -1.3299 O   0  0  0  0  0  0  0  0  0  0  0  0
   -0.1383   -0.7586    0.4628 N   0  0  0  0  0  0  0  0  0  0  0  0
    1.2966   -1.5448    0.0356 S   0  0  0  0  0  0  0  0  0  0  0  0
    1.4402   -2.7780    0.9352 O   0  0  0  0  0  0  0  0  0  0  0  0
    1.1722   -2.0956   -1.3541 O   0  0  0  0  0  0  0  0  0  0  0  0
    2.7640   -0.6774    0.1829 C   0  0  0  0  0  0  0  0  0  0  0  0
    2.9143    0.6855    0.2502 C   0  0  0  0  0  0  0  0  0  0  0  0
    4.1638    1.2555    0.3230 C   0  0  0  0  0  0  0  0  0  0  0  0
    5.3166    0.4836    0.3305 C   0  0  0  0  0  0  0  0  0  0  0  0
    5.1842   -0.8829    0.2633 C   0  0  0  0  0  0  0  0  0  0  0  0
    6.6433   -1.8887    0.2600 Cl  0  0  0  0  0  0  0  0  0  0  0  0
    3.9340   -1.4490    0.1916 C   0  0  0  0  0  0  0  0  0  0  0  0
   -4.5824    1.8688   -0.5380 H   0  0  0  0  0  0  0  0  0  0  0  0
   -5.3276    0.2241   -0.4954 H   0  0  0  0  0  0  0  0  0  0  0  0
   -4.5316    0.8935    1.0168 H   0  0  0  0  0  0  0  0  0  0  0  0
   -3.1096    0.4601   -1.6034 H   0  0  0  0  0  0  0  0  0  0  0  0
   -3.4106   -1.7585   -1.3547 H   0  0  0  0  0  0  0  0  0  0  0  0
   -2.4569   -1.7427    0.1493 H   0  0  0  0  0  0  0  0  0  0  0  0
   -4.2230   -1.5461    0.1907 H   0  0  0  0  0  0  0  0  0  0  0  0
   -2.2063    0.8239    1.2924 H   0  0  0  0  0  0  0  0  0  0  0  0
   -2.5470    2.5112   -0.9690 H   0  0  0  0  0  0  0  0  0  0  0  0
   -2.1129    2.9156    0.6868 H   0  0  0  0  0  0  0  0  0  0  0  0
   -0.5994   -1.0554    1.3510 H   0  0  0  0  0  0  0  0  0  0  0  0
    2.0183    1.2777    0.2525 H   0  0  0  0  0  0  0  0  0  0  0  0
    4.3002    2.3387    0.3833 H   0  0  0  0  0  0  0  0  0  0  0  0
    6.2938    0.9492    0.3859 H   0  0  0  0  0  0  0  0  0  0  0  0
    3.8742   -2.5494    0.1437 H   0  0  0  0  0  0  0  0  0  0  0  0
  1  2  1  0
  2  3  1  0
  2  4  1  0
  4  5  1  0
  4  6  1  0
  6  7  2  0
  6  8  1  0
  8  9  1  0
  9 10  2  0
  9 11  2  0
  9 12  1  0
 12 13  2  0
 13 14  1  0
 14 15  2  0
 15 16  1  0
 16 17  1  0
 16 18  2  0
 18 12  1  0
  1 19  1  0
  1 20  1  0
  1 21  1  0
  2 22  1  0
  3 23  1  0
  3 24  1  0
  3 25  1  0
  4 26  1  1
  5 27  1  0
  5 28  1  0
  8 29  1  0
 13 30  1  0
 14 31  1  0
 15 32  1  0
 18 33  1  0
M  END
$$$$
[H]c1sc(C([H])([H])[H])c([H])c1-c1nc(C([H])([H])C([H])([H])C([H])([H])N([H])C(=O)OC(C([H])([H])[H])(C([H])([H])[H])C([H])([H])[H])c(-c2c([H])c([H])c([H])c([H])c2[H])n1[H]
     RDKit          3D

 55 57  0  0  0  0  0  0  0  0999 V2000
   -6.9715    4.5202    0.5044 C   0  0  0  0  0  0  0  0  0  0  0  0
   -5.8434    3.8961   -0.2891 C   0  0  0  0  0  0  0  0  0  0  0  0
   -5.2223    2.7037   -0.0639 C   0  0  0  0  0  0  0  0  0  0  0  0
   -4.2316    2.3554   -0.8983 C   0  0  0  0  0  0  0  0  0  0  0  0
   -3.9317    3.2336   -1.9075 C   0  0  0  0  0  0  0  0  0  0  0  0
   -5.0355    4.5054   -1.6596 S   0  0  0  0  0  0  0  0  0  0  0  0
   -3.4619    1.0732   -0.7507 C   0  0  0  0  0  0  0  0  0  0  0  0
   -2.4165    0.6938   -1.4584 N   0  0  0  0  0  0  0  0  0  0  0  0
   -1.9431   -0.5217   -1.0074 C   0  0  0  0  0  0  0  0  0  0  0  0
   -0.7279   -1.1626   -1.5777 C   0  0  0  0  0  0  0  0  0  0  0  0
    0.4964   -0.7170   -0.7987 C   0  0  0  0  0  0  0  0  0  0  0  0
    1.7729   -1.3693   -1.3870 C   0  0  0  0  0  0  0  0  0  0  0  0
    2.9065   -0.9570   -0.7867 N   0  0  0  0  0  0  0  0  0  0  0  0
    4.0556   -0.5400   -0.1749 C   0  0  0  0  0  0  0  0  0  0  0  0
    4.3437   -0.6788    1.0360 O   0  0  0  0  0  0  0  0  0  0  0  0
    5.0667    0.1164   -0.9116 O   0  0  0  0  0  0  0  0  0  0  0  0
    6.2674    0.6020   -0.4392 C   0  0  0  0  0  0  0  0  0  0  0  0
    6.1338    1.6987    0.6125 C   0  0  0  0  0  0  0  0  0  0  0  0
    7.0205    1.2251   -1.6014 C   0  0  0  0  0  0  0  0  0  0  0  0
    7.1615   -0.4676    0.1552 C   0  0  0  0  0  0  0  0  0  0  0  0
   -2.7466   -0.8919    0.0203 C   0  0  0  0  0  0  0  0  0  0  0  0
   -3.6731    0.1215    0.1483 N   0  0  0  0  0  0  0  0  0  0  0  0
   -2.7570   -2.0991    0.8349 C   0  0  0  0  0  0  0  0  0  0  0  0
   -1.8163   -3.0589    0.8917 C   0  0  0  0  0  0  0  0  0  0  0  0
   -1.9183   -4.2016    1.6739 C   0  0  0  0  0  0  0  0  0  0  0  0
   -3.0181   -4.4066    2.4417 C   0  0  0  0  0  0  0  0  0  0  0  0
   -4.0037   -3.4533    2.4114 C   0  0  0  0  0  0  0  0  0  0  0  0
   -3.8854   -2.3243    1.6304 C   0  0  0  0  0  0  0  0  0  0  0  0
   -6.5226    5.0465    1.3705 H   0  0  0  0  0  0  0  0  0  0  0  0
   -7.6243    3.6896    0.7781 H   0  0  0  0  0  0  0  0  0  0  0  0
   -7.5345    5.2310   -0.1541 H   0  0  0  0  0  0  0  0  0  0  0  0
   -5.5521    2.0759    0.7954 H   0  0  0  0  0  0  0  0  0  0  0  0
   -3.1536    3.1217   -2.6897 H   0  0  0  0  0  0  0  0  0  0  0  0
   -0.5616   -0.6558   -2.6015 H   0  0  0  0  0  0  0  0  0  0  0  0
   -0.7821   -2.2309   -1.7223 H   0  0  0  0  0  0  0  0  0  0  0  0
    0.6351    0.3658   -0.9852 H   0  0  0  0  0  0  0  0  0  0  0  0
    0.4387   -0.9242    0.2801 H   0  0  0  0  0  0  0  0  0  0  0  0
    1.8021   -1.0850   -2.4956 H   0  0  0  0  0  0  0  0  0  0  0  0
    1.5469   -2.4702   -1.4284 H   0  0  0  0  0  0  0  0  0  0  0  0
    2.4426   -1.5103    0.4067 H   0  0  0  0  0  0  0  0  0  0  0  0
    7.1379    1.7718    1.1053 H   0  0  0  0  0  0  0  0  0  0  0  0
    5.3722    1.5119    1.3599 H   0  0  0  0  0  0  0  0  0  0  0  0
    6.0066    2.6747    0.0538 H   0  0  0  0  0  0  0  0  0  0  0  0
    7.3996    2.2386   -1.3779 H   0  0  0  0  0  0  0  0  0  0  0  0
    7.8799    0.5723   -1.8926 H   0  0  0  0  0  0  0  0  0  0  0  0
    6.3666    1.2128   -2.5130 H   0  0  0  0  0  0  0  0  0  0  0  0
    7.5063   -0.1918    1.1863 H   0  0  0  0  0  0  0  0  0  0  0  0
    6.6730   -1.4669    0.1401 H   0  0  0  0  0  0  0  0  0  0  0  0
    8.0764   -0.5463   -0.4523 H   0  0  0  0  0  0  0  0  0  0  0  0
   -4.4365    0.1385    0.8609 H   0  0  0  0  0  0  0  0  0  0  0  0
   -0.9194   -2.9840    0.3341 H   0  0  0  0  0  0  0  0  0  0  0  0
   -1.1161   -4.9253    1.6594 H   0  0  0  0  0  0  0  0  0  0  0  0
   -3.1422   -5.2983    3.0803 H   0  0  0  0  0  0  0  0  0  0  0  0
   -4.8678   -3.6426    3.0268 H   0  0  0  0  0  0  0  0  0  0  0  0
   -4.6921   -1.6150    1.6383 H   0  0  0  0  0  0  0  0  0  0  0  0
  1  2  1  0
  2  3  2  0
  3  4  1  0
  4  5  2  0
  5  6  1  0
  4  7  1  0
  7  8  2  0
  8  9  1  0
  9 10  1  0
 10 11  1  0
 11 12  1  0
 12 13  1  0
 13 14  1  0
 14 15  2  0
 14 16  1  0
 16 17  1  0
 17 18  1  0
 17 19  1  0
 17 20  1  0
  9 21  2  0
 21 22  1  0
 21 23  1  0
 23 24  2  0
 24 25  1  0
 25 26  2  0
 26 27  1  0
 27 28  2  0
  6  2  1  0
 22  7  1  0
 28 23  1  0
  1 29  1  0
  1 30  1  0
  1 31  1  0
  3 32  1  0
  5 33  1  0
 10 34  1  0
 10 35  1  0
 11 36  1  0
 11 37  1  0
 12 38  1  0
 12 39  1  0
 13 40  1  0
 18 41  1  0
 18 42  1  0
 18 43  1  0
 19 44  1  0
 19 45  1  0
 19 46  1  0
 20 47  1  0
 20 48  1  0
 20 49  1  0
 22 50  1  0
 24 51  1  0
 25 52  1  0
 26 53  1  0
 27 54  1  0
 28 55  1  0
M  END
$$$$
[H]c1c([H])c([H])c([C@@]([H])(C(=O)N2C([H])([H])C([H])([H])C([H])([H])[C@@]2([H])C(=O)N([H])[C@]([H])(c2c([H])c([H])c(Cl)c([H])c2[H])C([H])([H])[H])N([H])C(=O)c2c([H])c([H])c([H])c(C(F)(F)F)c2[H])c([H])c1[H]
     RDKit          3D

 66 69  0  0  0  0  0  0  0  0999 V2000
   -4.3142    2.1903   -1.1487 C   0  0  0  0  0  0  0  0  0  0  0  0
   -4.4737    1.0043   -0.1936 C   0  0  2  0  0  0  0  0  0  0  0  0
   -3.8096   -0.0987   -0.8845 N   0  0  0  0  0  0  0  0  0  0  0  0
   -2.4986   -0.3921   -0.4694 C   0  0  0  0  0  0  0  0  0  0  0  0
   -1.9375    0.2586    0.4244 O   0  0  0  0  0  0  0  0  0  0  0  0
   -1.7498   -1.5155   -1.1159 C   0  0  2  0  0  0  0  0  0  0  0  0
   -2.4404   -2.8181   -0.7790 C   0  0  0  0  0  0  0  0  0  0  0  0
   -1.4261   -3.6130   -0.0248 C   0  0  0  0  0  0  0  0  0  0  0  0
   -0.5205   -2.5540    0.5807 C   0  0  0  0  0  0  0  0  0  0  0  0
   -0.4160   -1.5879   -0.5268 N   0  0  0  0  0  0  0  0  0  0  0  0
    0.7289   -0.9069   -0.9811 C   0  0  0  0  0  0  0  0  0  0  0  0
    0.7654   -0.2567   -2.0598 O   0  0  0  0  0  0  0  0  0  0  0  0
    1.9310   -0.9511   -0.1540 C   0  0  1  0  0  0  0  0  0  0  0  0
    3.1264   -0.3426   -0.6992 N   0  0  0  0  0  0  0  0  0  0  0  0
    4.3575   -0.8703   -0.2450 C   0  0  0  0  0  0  0  0  0  0  0  0
    4.3659   -1.8681    0.5835 O   0  0  0  0  0  0  0  0  0  0  0  0
    5.6824   -0.3972   -0.6053 C   0  0  0  0  0  0  0  0  0  0  0  0
    6.7552   -1.2504   -0.7015 C   0  0  0  0  0  0  0  0  0  0  0  0
    8.0292   -0.8137   -0.9746 C   0  0  0  0  0  0  0  0  0  0  0  0
    8.2624    0.5148   -1.1646 C   0  0  0  0  0  0  0  0  0  0  0  0
    7.2066    1.4116   -1.0788 C   0  0  0  0  0  0  0  0  0  0  0  0
    5.9499    0.9573   -0.8060 C   0  0  0  0  0  0  0  0  0  0  0  0
    7.5368    2.8669   -1.2808 C   0  0  0  0  0  0  0  0  0  0  0  0
    8.7056    3.1586   -0.6110 F   0  0  0  0  0  0  0  0  0  0  0  0
    7.6905    3.0633   -2.6273 F   0  0  0  0  0  0  0  0  0  0  0  0
    6.5366    3.6602   -0.7262 F   0  0  0  0  0  0  0  0  0  0  0  0
    1.6942   -0.0490    1.0688 C   0  0  0  0  0  0  0  0  0  0  0  0
    1.5691   -0.4977    2.3330 C   0  0  0  0  0  0  0  0  0  0  0  0
    1.3507    0.3922    3.3937 C   0  0  0  0  0  0  0  0  0  0  0  0
    1.2662    1.7170    3.1318 C   0  0  0  0  0  0  0  0  0  0  0  0
    1.3978    2.1766    1.8294 C   0  0  0  0  0  0  0  0  0  0  0  0
    1.6122    1.2918    0.7905 C   0  0  0  0  0  0  0  0  0  0  0  0
   -5.8751    0.7616    0.0743 C   0  0  0  0  0  0  0  0  0  0  0  0
   -6.4572   -0.4756    0.0342 C   0  0  0  0  0  0  0  0  0  0  0  0
   -7.8035   -0.6769    0.3069 C   0  0  0  0  0  0  0  0  0  0  0  0
   -8.6167    0.3911    0.6382 C   0  0  0  0  0  0  0  0  0  0  0  0
  -10.3428    0.1833    0.9871 Cl  0  0  0  0  0  0  0  0  0  0  0  0
   -8.0531    1.6605    0.6896 C   0  0  0  0  0  0  0  0  0  0  0  0
   -6.7006    1.8254    0.4084 C   0  0  0  0  0  0  0  0  0  0  0  0
   -4.7393    1.9512   -2.1333 H   0  0  0  0  0  0  0  0  0  0  0  0
   -3.2151    2.3357   -1.2674 H   0  0  0  0  0  0  0  0  0  0  0  0
   -4.7346    3.1094   -0.7143 H   0  0  0  0  0  0  0  0  0  0  0  0
   -3.9413    1.3058    0.7170 H   0  0  0  0  0  0  0  0  0  0  0  0
   -4.3268   -0.6276   -1.6506 H   0  0  0  0  0  0  0  0  0  0  0  0
   -1.6901   -1.3962   -2.1836 H   0  0  0  0  0  0  0  0  0  0  0  0
   -2.8097   -3.3370   -1.6932 H   0  0  0  0  0  0  0  0  0  0  0  0
   -3.2833   -2.6342   -0.0538 H   0  0  0  0  0  0  0  0  0  0  0  0
   -1.8879   -4.2460    0.7659 H   0  0  0  0  0  0  0  0  0  0  0  0
   -0.8721   -4.2145   -0.7681 H   0  0  0  0  0  0  0  0  0  0  0  0
    0.4651   -2.9870    0.8176 H   0  0  0  0  0  0  0  0  0  0  0  0
   -1.0370   -2.1385    1.4438 H   0  0  0  0  0  0  0  0  0  0  0  0
    2.1391   -1.9129    0.2659 H   0  0  0  0  0  0  0  0  0  0  0  0
    3.1162    0.4304   -1.3757 H   0  0  0  0  0  0  0  0  0  0  0  0
    6.5481   -2.3273   -0.5513 H   0  0  0  0  0  0  0  0  0  0  0  0
    8.8319   -1.5192   -1.0380 H   0  0  0  0  0  0  0  0  0  0  0  0
    9.2604    0.8938   -1.3813 H   0  0  0  0  0  0  0  0  0  0  0  0
    5.1486    1.6862   -0.7533 H   0  0  0  0  0  0  0  0  0  0  0  0
    1.6562   -1.5515    2.5439 H   0  0  0  0  0  0  0  0  0  0  0  0
    1.2565   -0.0119    4.3983 H   0  0  0  0  0  0  0  0  0  0  0  0
    1.0923    2.4309    3.9436 H   0  0  0  0  0  0  0  0  0  0  0  0
    1.3350    3.2151    1.6098 H   0  0  0  0  0  0  0  0  0  0  0  0
    1.7181    1.6577   -0.2193 H   0  0  0  0  0  0  0  0  0  0  0  0
   -5.8387   -1.3114   -0.2116 H   0  0  0  0  0  0  0  0  0  0  0  0
   -8.2509   -1.6553    0.2600 H   0  0  0  0  0  0  0  0  0  0  0  0
   -8.7159    2.4775    0.9509 H   0  0  0  0  0  0  0  0  0  0  0  0
   -6.3096    2.8268    0.4800 H   0  0  0  0  0  0  0  0  0  0  0  0
  1  2  1  0
  2  3  1  0
  3  4  1  0
  4  5  2  0
  4  6  1  0
  6  7  1  0
  7  8  1  0
  8  9  1  0
  9 10  1  0
 10 11  1  0
 11 12  2  0
 11 13  1  0
 13 14  1  0
 14 15  1  0
 15 16  2  0
 15 17  1  0
 17 18  2  0
 18 19  1  0
 19 20  2  0
 20 21  1  0
 21 22  2  0
 21 23  1  0
 23 24  1  0
 23 25  1  0
 23 26  1  0
 13 27  1  0
 27 28  2  0
 28 29  1  0
 29 30  2  0
 30 31  1  0
 31 32  2  0
  2 33  1  0
 33 34  2  0
 34 35  1  0
 35 36  2  0
 36 37  1  0
 36 38  1  0
 38 39  2  0
 10  6  1  0
 22 17  1  0
 32 27  1  0
 39 33  1  0
  1 40  1  0
  1 41  1  0
  1 42  1  0
  2 43  1  1
  3 44  1  0
  6 45  1  6
  7 46  1  0
  7 47  1  0
  8 48  1  0
  8 49  1  0
  9 50  1  0
  9 51  1  0
 13 52  1  1
 14 53  1  0
 18 54  1  0
 19 55  1  0
 20 56  1  0
 22 57  1  0
 28 58  1  0
 29 59  1  0
 30 60  1  0
 31 61  1  0
 32 62  1  0
 34 63  1  0
 35 64  1  0
 38 65  1  0
 39 66  1  0
M  END
$$$$
[H]c1c([H])c([H])c(C([H])([H])N([H])C([H])([H])C([H])([H])C([H])([H])N2c3c([H])c([H])c([H])c([H])c3Sc3c([H])c([H])c(N([H])[H])c([H])c32)c(OC(F)(F)F)c1[H]
     RDKit          3D

 53 56  0  0  0  0  0  0  0  0999 V2000
   -4.0616    4.4259   -1.1717 N   0  0  0  0  0  0  0  0  0  0  0  0
   -4.2788    3.2011   -0.4565 C   0  0  0  0  0  0  0  0  0  0  0  0
   -5.5114    3.0292    0.1838 C   0  0  0  0  0  0  0  0  0  0  0  0
   -5.7645    1.7921    0.7462 C   0  0  0  0  0  0  0  0  0  0  0  0
   -4.8268    0.8120    0.6515 C   0  0  0  0  0  0  0  0  0  0  0  0
   -5.2584   -0.7950    1.4265 S   0  0  0  0  0  0  0  0  0  0  0  0
   -4.2774   -1.9390    0.4758 C   0  0  0  0  0  0  0  0  0  0  0  0
   -4.7079   -3.2359    0.4574 C   0  0  0  0  0  0  0  0  0  0  0  0
   -3.9783   -4.2276   -0.1809 C   0  0  0  0  0  0  0  0  0  0  0  0
   -2.8224   -3.8977   -0.7871 C   0  0  0  0  0  0  0  0  0  0  0  0
   -2.3849   -2.5823   -0.7718 C   0  0  0  0  0  0  0  0  0  0  0  0
   -3.1108   -1.5532   -0.1289 C   0  0  0  0  0  0  0  0  0  0  0  0
   -2.7658   -0.1768   -0.3301 N   0  0  0  0  0  0  0  0  0  0  0  0
   -1.3659    0.1938   -0.6724 C   0  0  0  0  0  0  0  0  0  0  0  0
   -0.3866   -0.4922    0.2213 C   0  0  0  0  0  0  0  0  0  0  0  0
    0.7682    0.1270    0.8375 C   0  0  0  0  0  0  0  0  0  0  0  0
    1.8566    0.7858    0.0898 N   0  0  0  0  0  0  0  0  0  0  0  0
    3.0223    0.3178    0.7868 C   0  0  0  0  0  0  0  0  0  0  0  0
    4.3629    0.7262    0.5196 C   0  0  0  0  0  0  0  0  0  0  0  0
    4.9633    1.8768    0.9653 C   0  0  0  0  0  0  0  0  0  0  0  0
    6.3529    2.0843    0.9051 C   0  0  0  0  0  0  0  0  0  0  0  0
    7.1798    1.1200    0.3717 C   0  0  0  0  0  0  0  0  0  0  0  0
    6.5836   -0.0275   -0.0898 C   0  0  0  0  0  0  0  0  0  0  0  0
    5.2629   -0.2143   -0.0246 C   0  0  0  0  0  0  0  0  0  0  0  0
    4.6543   -1.3749   -0.5117 O   0  0  0  0  0  0  0  0  0  0  0  0
    5.2850   -2.3899   -1.2395 C   0  0  0  0  0  0  0  0  0  0  0  0
    5.8002   -1.8100   -2.4251 F   0  0  0  0  0  0  0  0  0  0  0  0
    4.2723   -3.2883   -1.6166 F   0  0  0  0  0  0  0  0  0  0  0  0
    6.2196   -3.0983   -0.5641 F   0  0  0  0  0  0  0  0  0  0  0  0
   -3.6236    0.9100    0.0412 C   0  0  0  0  0  0  0  0  0  0  0  0
   -3.3755    2.1682   -0.5179 C   0  0  0  0  0  0  0  0  0  0  0  0
   -4.8541    4.8984   -1.6026 H   0  0  0  0  0  0  0  0  0  0  0  0
   -3.0827    4.8209   -1.2857 H   0  0  0  0  0  0  0  0  0  0  0  0
   -6.2117    3.8535    0.1856 H   0  0  0  0  0  0  0  0  0  0  0  0
   -6.7659    1.6445    1.2373 H   0  0  0  0  0  0  0  0  0  0  0  0
   -5.6396   -3.5701    0.9687 H   0  0  0  0  0  0  0  0  0  0  0  0
   -4.3060   -5.2724   -0.1522 H   0  0  0  0  0  0  0  0  0  0  0  0
   -2.1680   -4.6257   -1.2889 H   0  0  0  0  0  0  0  0  0  0  0  0
   -1.4904   -2.3327   -1.2672 H   0  0  0  0  0  0  0  0  0  0  0  0
   -1.2062   -0.0384   -1.7553 H   0  0  0  0  0  0  0  0  0  0  0  0
   -1.2210    1.2747   -0.4425 H   0  0  0  0  0  0  0  0  0  0  0  0
    0.1273   -1.3770   -0.4190 H   0  0  0  0  0  0  0  0  0  0  0  0
   -0.8738   -1.1038    1.0546 H   0  0  0  0  0  0  0  0  0  0  0  0
    0.4267    0.9244    1.5899 H   0  0  0  0  0  0  0  0  0  0  0  0
    1.3052   -0.6298    1.5379 H   0  0  0  0  0  0  0  0  0  0  0  0
    1.8865    0.4532   -0.8695 H   0  0  0  0  0  0  0  0  0  0  0  0
    2.9397   -0.7438    1.1290 H   0  0  0  0  0  0  0  0  0  0  0  0
    2.8134    0.8506    1.8469 H   0  0  0  0  0  0  0  0  0  0  0  0
    4.3799    2.6790    1.4212 H   0  0  0  0  0  0  0  0  0  0  0  0
    6.8325    3.0036    1.2821 H   0  0  0  0  0  0  0  0  0  0  0  0
    8.2493    1.2414    0.3373 H   0  0  0  0  0  0  0  0  0  0  0  0
    7.2483   -0.7724   -0.5449 H   0  0  0  0  0  0  0  0  0  0  0  0
   -2.4726    2.3547   -1.0498 H   0  0  0  0  0  0  0  0  0  0  0  0
  1  2  1  0
  2  3  2  0
  3  4  1  0
  4  5  2  0
  5  6  1  0
  6  7  1  0
  7  8  2  0
  8  9  1  0
  9 10  2  0
 10 11  1  0
 11 12  2  0
 12 13  1  0
 13 14  1  0
 14 15  1  0
 15 16  1  0
 16 17  1  0
 17 18  1  0
 18 19  1  0
 19 20  2  0
 20 21  1  0
 21 22  2  0
 22 23  1  0
 23 24  2  0
 24 25  1  0
 25 26  1  0
 26 27  1  0
 26 28  1  0
 26 29  1  0
 13 30  1  0
 30 31  2  0
 31  2  1  0
 30  5  1  0
 12  7  1  0
 24 19  1  0
  1 32  1  0
  1 33  1  0
  3 34  1  0
  4 35  1  0
  8 36  1  0
  9 37  1  0
 10 38  1  0
 11 39  1  0
 14 40  1  0
 14 41  1  0
 15 42  1  0
 15 43  1  0
 16 44  1  0
 16 45  1  0
 17 46  1  0
 18 47  1  0
 18 48  1  0
 20 49  1  0
 21 50  1  0
 22 51  1  0
 23 52  1  0
 31 53  1  0
M  END
$$$$
[H]c1nc(N([H])c2c([H])c([H])c(-c3oc([H])c([H])c3[H])c([H])c2[H])nc(N([H])C([H])([H])[H])c1C(=O)N([H])C1([H])C([H])([H])C([H])([H])N(C([H])([H])[H])C([H])([H])C1([H])[H]
     RDKit          3D

 56 59  0  0  0  0  0  0  0  0999 V2000
   -0.0253   -0.6722    5.4834 C   0  0  0  0  0  0  0  0  0  0  0  0
    0.8165   -0.7233    4.2764 N   0  0  0  0  0  0  0  0  0  0  0  0
    0.2036   -0.4511    3.0385 C   0  0  0  0  0  0  0  0  0  0  0  0
   -1.1407   -0.1513    3.0430 N   0  0  0  0  0  0  0  0  0  0  0  0
   -1.8165    0.1267    1.9139 C   0  0  0  0  0  0  0  0  0  0  0  0
   -3.1960    0.4088    1.9339 N   0  0  0  0  0  0  0  0  0  0  0  0
   -3.9669    0.7243    0.8059 C   0  0  0  0  0  0  0  0  0  0  0  0
   -5.3599    0.5146    0.9238 C   0  0  0  0  0  0  0  0  0  0  0  0
   -6.2161    0.8071   -0.0966 C   0  0  0  0  0  0  0  0  0  0  0  0
   -5.7805    1.3224   -1.2997 C   0  0  0  0  0  0  0  0  0  0  0  0
   -4.4277    1.5365   -1.4401 C   0  0  0  0  0  0  0  0  0  0  0  0
   -3.5618    1.2310   -0.3820 C   0  0  0  0  0  0  0  0  0  0  0  0
   -6.6970    1.6341   -2.3887 C   0  0  0  0  0  0  0  0  0  0  0  0
   -8.0750    1.4401   -2.3041 C   0  0  0  0  0  0  0  0  0  0  0  0
   -8.6059    1.8491   -3.5289 C   0  0  0  0  0  0  0  0  0  0  0  0
   -7.5151    2.2601   -4.2653 C   0  0  0  0  0  0  0  0  0  0  0  0
   -6.4066    2.1223   -3.5695 O   0  0  0  0  0  0  0  0  0  0  0  0
   -1.1008    0.0929    0.7937 N   0  0  0  0  0  0  0  0  0  0  0  0
    0.1870   -0.1851    0.7086 C   0  0  0  0  0  0  0  0  0  0  0  0
    0.9282   -0.4818    1.8717 C   0  0  0  0  0  0  0  0  0  0  0  0
    2.3260   -0.7869    1.7633 C   0  0  0  0  0  0  0  0  0  0  0  0
    3.0335   -1.0635    2.7465 O   0  0  0  0  0  0  0  0  0  0  0  0
    2.9835   -0.7897    0.5160 N   0  0  0  0  0  0  0  0  0  0  0  0
    4.4188   -1.1027    0.3890 C   0  0  0  0  0  0  0  0  0  0  0  0
    5.0947    0.0931   -0.2146 C   0  0  0  0  0  0  0  0  0  0  0  0
    6.3365   -0.2131   -0.9657 C   0  0  0  0  0  0  0  0  0  0  0  0
    6.3942   -1.4524   -1.6536 N   0  0  0  0  0  0  0  0  0  0  0  0
    7.2540   -1.4901   -2.7904 C   0  0  0  0  0  0  0  0  0  0  0  0
    5.0927   -2.0002   -1.8456 C   0  0  0  0  0  0  0  0  0  0  0  0
    4.5114   -2.3275   -0.4858 C   0  0  0  0  0  0  0  0  0  0  0  0
    0.5375   -0.1604    6.2765 H   0  0  0  0  0  0  0  0  0  0  0  0
   -0.2047   -1.7224    5.8547 H   0  0  0  0  0  0  0  0  0  0  0  0
   -0.9950   -0.2225    5.2790 H   0  0  0  0  0  0  0  0  0  0  0  0
    1.7762   -0.9508    4.4308 H   0  0  0  0  0  0  0  0  0  0  0  0
   -3.6712    0.3771    2.8991 H   0  0  0  0  0  0  0  0  0  0  0  0
   -5.7555    0.1088    1.8544 H   0  0  0  0  0  0  0  0  0  0  0  0
   -7.2982    0.6395    0.0067 H   0  0  0  0  0  0  0  0  0  0  0  0
   -4.0484    1.9393   -2.3688 H   0  0  0  0  0  0  0  0  0  0  0  0
   -2.5233    1.4443   -0.5646 H   0  0  0  0  0  0  0  0  0  0  0  0
   -8.6511    1.0553   -1.4786 H   0  0  0  0  0  0  0  0  0  0  0  0
   -9.6545    1.8245   -3.7839 H   0  0  0  0  0  0  0  0  0  0  0  0
   -7.5448    2.6428   -5.2690 H   0  0  0  0  0  0  0  0  0  0  0  0
    0.6983   -0.1918   -0.2462 H   0  0  0  0  0  0  0  0  0  0  0  0
    2.5235   -0.5785   -0.3779 H   0  0  0  0  0  0  0  0  0  0  0  0
    4.7763   -1.3112    1.4130 H   0  0  0  0  0  0  0  0  0  0  0  0
    4.3512    0.6754   -0.8094 H   0  0  0  0  0  0  0  0  0  0  0  0
    5.3718    0.7735    0.6434 H   0  0  0  0  0  0  0  0  0  0  0  0
    7.2636   -0.1414   -0.3313 H   0  0  0  0  0  0  0  0  0  0  0  0
    6.4748    0.6125   -1.7247 H   0  0  0  0  0  0  0  0  0  0  0  0
    7.9919   -0.6561   -2.6969 H   0  0  0  0  0  0  0  0  0  0  0  0
    7.8780   -2.4279   -2.8287 H   0  0  0  0  0  0  0  0  0  0  0  0
    6.7471   -1.4069   -3.7630 H   0  0  0  0  0  0  0  0  0  0  0  0
    4.4464   -1.2225   -2.3138 H   0  0  0  0  0  0  0  0  0  0  0  0
    5.0996   -2.9426   -2.4266 H   0  0  0  0  0  0  0  0  0  0  0  0
    5.1861   -3.0601    0.0016 H   0  0  0  0  0  0  0  0  0  0  0  0
    3.5358   -2.8230   -0.6526 H   0  0  0  0  0  0  0  0  0  0  0  0
  1  2  1  0
  2  3  1  0
  3  4  2  0
  4  5  1  0
  5  6  1  0
  6  7  1  0
  7  8  2  0
  8  9  1  0
  9 10  2  0
 10 11  1  0
 11 12  2  0
 10 13  1  0
 13 14  2  0
 14 15  1  0
 15 16  2  0
 16 17  1  0
  5 18  2  0
 18 19  1  0
 19 20  2  0
 20 21  1  0
 21 22  2  0
 21 23  1  0
 23 24  1  0
 24 25  1  0
 25 26  1  0
 26 27  1  0
 27 28  1  0
 27 29  1  0
 29 30  1  0
 20  3  1  0
 30 24  1  0
 12  7  1  0
 17 13  1  0
  1 31  1  0
  1 32  1  0
  1 33  1  0
  2 34  1  0
  6 35  1  0
  8 36  1  0
  9 37  1  0
 11 38  1  0
 12 39  1  0
 14 40  1  0
 15 41  1  0
 16 42  1  0
 19 43  1  0
 23 44  1  0
 24 45  1  0
 25 46  1  0
 25 47  1  0
 26 48  1  0
 26 49  1  0
 28 50  1  0
 28 51  1  0
 28 52  1  0
 29 53  1  0
 29 54  1  0
 30 55  1  0
 30 56  1  0
M  END
$$$$
[H]N=C(c1c([H])c([H])c2c([H])c(C(=O)N([H])C([H])([H])c3c([H])c([H])c(S(=O)(=O)c4oc5c([H])c([H])c(C(=O)C([H])([H])[H])c([H])c5c4[H])c([H])c3[H])c([H])c([H])c2c1[H])N([H])[H]
     RDKit          3D

 61 65  0  0  0  0  0  0  0  0999 V2000
   11.0351    1.0619   -0.6855 C   0  0  0  0  0  0  0  0  0  0  0  0
   10.5874    0.0945    0.3336 C   0  0  0  0  0  0  0  0  0  0  0  0
   11.4002   -0.7305    0.7982 O   0  0  0  0  0  0  0  0  0  0  0  0
    9.2203    0.1046    0.7870 C   0  0  0  0  0  0  0  0  0  0  0  0
    8.7793   -0.8027    1.7508 C   0  0  0  0  0  0  0  0  0  0  0  0
    7.4706   -0.7777    2.1724 C   0  0  0  0  0  0  0  0  0  0  0  0
    6.5878    0.1617    1.6290 C   0  0  0  0  0  0  0  0  0  0  0  0
    5.3340    0.3829    1.8563 O   0  0  0  0  0  0  0  0  0  0  0  0
    4.8678    1.3640    1.1342 C   0  0  0  0  0  0  0  0  0  0  0  0
    5.9003    1.8254    0.3696 C   0  0  0  0  0  0  0  0  0  0  0  0
    7.0061    1.0636    0.6775 C   0  0  0  0  0  0  0  0  0  0  0  0
    8.3174    1.0291    0.2635 C   0  0  0  0  0  0  0  0  0  0  0  0
    3.2267    1.9350    1.1796 S   0  0  0  0  0  0  0  0  0  0  0  0
    2.9550    2.3833    2.6075 O   0  0  0  0  0  0  0  0  0  0  0  0
    3.0441    3.1540    0.3098 O   0  0  0  0  0  0  0  0  0  0  0  0
    2.1089    0.6612    0.7531 C   0  0  0  0  0  0  0  0  0  0  0  0
    1.5733   -0.1341    1.7674 C   0  0  0  0  0  0  0  0  0  0  0  0
    0.6932   -1.1410    1.4342 C   0  0  0  0  0  0  0  0  0  0  0  0
    0.2979   -1.4220    0.1427 C   0  0  0  0  0  0  0  0  0  0  0  0
   -0.6486   -2.5219   -0.1656 C   0  0  0  0  0  0  0  0  0  0  0  0
   -2.0163   -2.2325    0.0992 N   0  0  0  0  0  0  0  0  0  0  0  0
   -2.7895   -1.4263   -0.7677 C   0  0  0  0  0  0  0  0  0  0  0  0
   -2.2933   -0.9233   -1.8307 O   0  0  0  0  0  0  0  0  0  0  0  0
   -4.2066   -1.1096   -0.5159 C   0  0  0  0  0  0  0  0  0  0  0  0
   -4.8336   -1.4037    0.6650 C   0  0  0  0  0  0  0  0  0  0  0  0
   -6.1654   -1.0774    0.8121 C   0  0  0  0  0  0  0  0  0  0  0  0
   -6.9310   -0.4673   -0.1522 C   0  0  0  0  0  0  0  0  0  0  0  0
   -8.2661   -0.1415   -0.0035 C   0  0  0  0  0  0  0  0  0  0  0  0
   -8.9992    0.4681   -0.9929 C   0  0  0  0  0  0  0  0  0  0  0  0
   -8.3175    0.7478   -2.1774 C   0  0  0  0  0  0  0  0  0  0  0  0
   -6.9831    0.4370   -2.3628 C   0  0  0  0  0  0  0  0  0  0  0  0
   -6.2859   -0.1775   -1.3356 C   0  0  0  0  0  0  0  0  0  0  0  0
   -4.9498   -0.4920   -1.5151 C   0  0  0  0  0  0  0  0  0  0  0  0
  -10.3982    0.8299   -0.8855 C   0  0  0  0  0  0  0  0  0  0  0  0
  -11.0736    1.4521   -1.9644 N   0  0  0  0  0  0  0  0  0  0  0  0
  -11.0539    0.5984    0.1807 N   0  0  0  0  0  0  0  0  0  0  0  0
    0.8239   -0.6406   -0.8579 C   0  0  0  0  0  0  0  0  0  0  0  0
    1.7176    0.3846   -0.5359 C   0  0  0  0  0  0  0  0  0  0  0  0
   12.0332    0.8179   -1.1064 H   0  0  0  0  0  0  0  0  0  0  0  0
   11.0508    2.0887   -0.2290 H   0  0  0  0  0  0  0  0  0  0  0  0
   10.2727    1.1011   -1.5087 H   0  0  0  0  0  0  0  0  0  0  0  0
    9.4697   -1.5385    2.1772 H   0  0  0  0  0  0  0  0  0  0  0  0
    7.1444   -1.4844    2.9167 H   0  0  0  0  0  0  0  0  0  0  0  0
    5.8904    2.6400   -0.3571 H   0  0  0  0  0  0  0  0  0  0  0  0
    8.6284    1.7540   -0.4937 H   0  0  0  0  0  0  0  0  0  0  0  0
    1.8719    0.0693    2.7991 H   0  0  0  0  0  0  0  0  0  0  0  0
    0.2654   -1.7702    2.2048 H   0  0  0  0  0  0  0  0  0  0  0  0
   -0.5022   -2.8521   -1.2372 H   0  0  0  0  0  0  0  0  0  0  0  0
   -0.3152   -3.4072    0.4338 H   0  0  0  0  0  0  0  0  0  0  0  0
   -2.4711   -2.6188    0.9482 H   0  0  0  0  0  0  0  0  0  0  0  0
   -4.2676   -1.8844    1.4556 H   0  0  0  0  0  0  0  0  0  0  0  0
   -6.6394   -1.3184    1.7513 H   0  0  0  0  0  0  0  0  0  0  0  0
   -8.7200   -0.3869    0.9318 H   0  0  0  0  0  0  0  0  0  0  0  0
   -8.9056    1.2323   -2.9594 H   0  0  0  0  0  0  0  0  0  0  0  0
   -6.5178    0.6862   -3.3167 H   0  0  0  0  0  0  0  0  0  0  0  0
   -4.4903   -0.2437   -2.4609 H   0  0  0  0  0  0  0  0  0  0  0  0
  -10.8214    2.4143   -2.2389 H   0  0  0  0  0  0  0  0  0  0  0  0
  -11.8133    0.9400   -2.4691 H   0  0  0  0  0  0  0  0  0  0  0  0
  -10.6120    0.1489    0.9954 H   0  0  0  0  0  0  0  0  0  0  0  0
    0.5703   -0.7971   -1.8910 H   0  0  0  0  0  0  0  0  0  0  0  0
    2.1434    1.0136   -1.3205 H   0  0  0  0  0  0  0  0  0  0  0  0
  1  2  1  0
  2  3  2  0
  2  4  1  0
  4  5  2  0
  5  6  1  0
  6  7  2  0
  7  8  1  0
  8  9  1  0
  9 10  2  0
 10 11  1  0
 11 12  2  0
  9 13  1  0
 13 14  2  0
 13 15  2  0
 13 16  1  0
 16 17  2  0
 17 18  1  0
 18 19  2  0
 19 20  1  0
 20 21  1  0
 21 22  1  0
 22 23  2  0
 22 24  1  0
 24 25  2  0
 25 26  1  0
 26 27  2  0
 27 28  1  0
 28 29  2  0
 29 30  1  0
 30 31  2  0
 31 32  1  0
 32 33  2  0
 29 34  1  0
 34 35  1  0
 34 36  2  3
 19 37  1  0
 37 38  2  0
 12  4  1  0
 38 16  1  0
 11  7  1  0
 33 24  1  0
 32 27  1  0
  1 39  1  0
  1 40  1  0
  1 41  1  0
  5 42  1  0
  6 43  1  0
 10 44  1  0
 12 45  1  0
 17 46  1  0
 18 47  1  0
 20 48  1  0
 20 49  1  0
 21 50  1  0
 25 51  1  0
 26 52  1  0
 28 53  1  0
 30 54  1  0
 31 55  1  0
 33 56  1  0
 35 57  1  0
 35 58  1  0
 36 59  1  0
 37 60  1  0
 38 61  1  0
M  END
$$$$
[H]c1c([H])c(C(=O)C2([H])C([H])([H])C([H])([H])N(C3([H])C([H])([H])N([H])C([H])([H])C3([H])[H])C([H])([H])C2([H])[H])c([H])c([H])c1Cl
     RDKit          3D

 41 43  0  0  0  0  0  0  0  0999 V2000
    7.0834    2.2316   -0.1352 Cl  0  0  0  0  0  0  0  0  0  0  0  0
    5.6874    1.1991   -0.0668 C   0  0  0  0  0  0  0  0  0  0  0  0
    5.8361   -0.1534   -0.2570 C   0  0  0  0  0  0  0  0  0  0  0  0
    4.7325   -0.9726   -0.1900 C   0  0  0  0  0  0  0  0  0  0  0  0
    3.4592   -0.4691    0.0639 C   0  0  0  0  0  0  0  0  0  0  0  0
    3.3302    0.8890    0.2528 C   0  0  0  0  0  0  0  0  0  0  0  0
    4.4199    1.7289    0.1913 C   0  0  0  0  0  0  0  0  0  0  0  0
    2.3376   -1.3779    0.1442 C   0  0  0  0  0  0  0  0  0  0  0  0
    2.5265   -2.6051    0.1198 O   0  0  0  0  0  0  0  0  0  0  0  0
    0.9600   -0.8706    0.2475 C   0  0  0  0  0  0  0  0  0  0  0  0
    0.5551   -0.1549   -1.0441 C   0  0  0  0  0  0  0  0  0  0  0  0
   -0.7225    0.5696   -0.7273 C   0  0  0  0  0  0  0  0  0  0  0  0
   -1.7448   -0.2677   -0.2053 N   0  0  0  0  0  0  0  0  0  0  0  0
   -1.4238   -1.5968    0.0788 C   0  0  0  0  0  0  0  0  0  0  0  0
   -0.0419   -1.9483    0.4698 C   0  0  0  0  0  0  0  0  0  0  0  0
   -2.8086    0.3546    0.4858 C   0  0  0  0  0  0  0  0  0  0  0  0
   -4.1088   -0.4295    0.3692 C   0  0  0  0  0  0  0  0  0  0  0  0
   -5.0849    0.4761   -0.3505 C   0  0  0  0  0  0  0  0  0  0  0  0
   -4.2580    1.4547   -1.0378 N   0  0  0  0  0  0  0  0  0  0  0  0
   -3.1954    1.6791   -0.0950 C   0  0  0  0  0  0  0  0  0  0  0  0
    6.7957   -0.6352   -0.4695 H   0  0  0  0  0  0  0  0  0  0  0  0
    4.8402   -2.0380   -0.3392 H   0  0  0  0  0  0  0  0  0  0  0  0
    2.3481    1.3413    0.4640 H   0  0  0  0  0  0  0  0  0  0  0  0
    4.3299    2.8097    0.3384 H   0  0  0  0  0  0  0  0  0  0  0  0
    0.9077   -0.1534    1.0924 H   0  0  0  0  0  0  0  0  0  0  0  0
    0.2660   -0.9711   -1.7833 H   0  0  0  0  0  0  0  0  0  0  0  0
    1.3283    0.4905   -1.4562 H   0  0  0  0  0  0  0  0  0  0  0  0
   -1.0569    1.0995   -1.6562 H   0  0  0  0  0  0  0  0  0  0  0  0
   -0.4822    1.3606    0.0055 H   0  0  0  0  0  0  0  0  0  0  0  0
   -2.1047   -1.9405    0.9195 H   0  0  0  0  0  0  0  0  0  0  0  0
   -1.7914   -2.2329   -0.7857 H   0  0  0  0  0  0  0  0  0  0  0  0
    0.0034   -2.3430    1.5310 H   0  0  0  0  0  0  0  0  0  0  0  0
    0.2880   -2.8272   -0.1658 H   0  0  0  0  0  0  0  0  0  0  0  0
   -2.5505    0.4483    1.5745 H   0  0  0  0  0  0  0  0  0  0  0  0
   -3.9940   -1.3667   -0.1810 H   0  0  0  0  0  0  0  0  0  0  0  0
   -4.5504   -0.6078    1.3888 H   0  0  0  0  0  0  0  0  0  0  0  0
   -5.7438    1.0097    0.3677 H   0  0  0  0  0  0  0  0  0  0  0  0
   -5.6601   -0.0537   -1.1335 H   0  0  0  0  0  0  0  0  0  0  0  0
   -4.7451    2.3588   -1.1777 H   0  0  0  0  0  0  0  0  0  0  0  0
   -2.3860    2.2105   -0.6202 H   0  0  0  0  0  0  0  0  0  0  0  0
   -3.5815    2.3038    0.7542 H   0  0  0  0  0  0  0  0  0  0  0  0
  1  2  1  0
  2  3  2  0
  3  4  1  0
  4  5  2  0
  5  6  1  0
  6  7  2  0
  5  8  1  0
  8  9  2  0
  8 10  1  0
 10 11  1  0
 11 12  1  0
 12 13  1  0
 13 14  1  0
 14 15  1  0
 13 16  1  0
 16 17  1  0
 17 18  1  0
 18 19  1  0
 19 20  1  0
  7  2  1  0
 15 10  1  0
 20 16  1  0
  3 21  1  0
  4 22  1  0
  6 23  1  0
  7 24  1  0
 10 25  1  0
 11 26  1  0
 11 27  1  0
 12 28  1  0
 12 29  1  0
 14 30  1  0
 14 31  1  0
 15 32  1  0
 15 33  1  0
 16 34  1  0
 17 35  1  0
 17 36  1  0
 18 37  1  0
 18 38  1  0
 19 39  1  0
 20 40  1  0
 20 41  1  0
M  END
$$$$
[H]c1c([H])c(S(=O)(=O)N([H])C2([H])C(=O)c3c([H])c(C(=O)OC([H])([H])[H])c([H])c([H])c3C(=O)C2([H])[H])c([H])c([H])c1Cl
     RDKit          3D

 41 43  0  0  0  0  0  0  0  0999 V2000
   -6.8026    0.6006    2.3956 C   0  0  0  0  0  0  0  0  0  0  0  0
   -5.5628    0.4235    1.7411 O   0  0  0  0  0  0  0  0  0  0  0  0
   -5.2413   -0.6692    0.9788 C   0  0  0  0  0  0  0  0  0  0  0  0
   -6.0953   -1.5790    0.8457 O   0  0  0  0  0  0  0  0  0  0  0  0
   -3.9513   -0.8328    0.3094 C   0  0  0  0  0  0  0  0  0  0  0  0
   -3.6736   -1.9511   -0.4479 C   0  0  0  0  0  0  0  0  0  0  0  0
   -2.4409   -2.0940   -1.0800 C   0  0  0  0  0  0  0  0  0  0  0  0
   -1.4590   -1.1328   -0.9750 C   0  0  0  0  0  0  0  0  0  0  0  0
   -0.1551   -1.2399   -1.6187 C   0  0  0  0  0  0  0  0  0  0  0  0
    0.2158   -2.3734   -2.0711 O   0  0  0  0  0  0  0  0  0  0  0  0
    0.6905   -0.0236   -1.7222 C   0  0  0  0  0  0  0  0  0  0  0  0
    0.6994    0.7991   -0.4499 C   0  0  0  0  0  0  0  0  0  0  0  0
    1.4118    2.0177   -0.7320 N   0  0  0  0  0  0  0  0  0  0  0  0
    2.8530    2.1882    0.1746 S   0  0  0  0  0  0  0  0  0  0  0  0
    3.4830    3.5090   -0.2492 O   0  0  0  0  0  0  0  0  0  0  0  0
    2.6089    2.2796    1.6340 O   0  0  0  0  0  0  0  0  0  0  0  0
    4.0157    0.9483   -0.1285 C   0  0  0  0  0  0  0  0  0  0  0  0
    4.9803    1.0428   -1.1083 C   0  0  0  0  0  0  0  0  0  0  0  0
    5.8857    0.0229   -1.3089 C   0  0  0  0  0  0  0  0  0  0  0  0
    5.8632   -1.1145   -0.5497 C   0  0  0  0  0  0  0  0  0  0  0  0
    6.9918   -2.4333   -0.7690 Cl  0  0  0  0  0  0  0  0  0  0  0  0
    4.9057   -1.2283    0.4357 C   0  0  0  0  0  0  0  0  0  0  0  0
    3.9926   -0.1970    0.6363 C   0  0  0  0  0  0  0  0  0  0  0  0
   -0.7144    1.0419   -0.0760 C   0  0  0  0  0  0  0  0  0  0  0  0
   -1.0307    2.1706    0.3657 O   0  0  0  0  0  0  0  0  0  0  0  0
   -1.7269    0.0024   -0.2125 C   0  0  0  0  0  0  0  0  0  0  0  0
   -2.9565    0.1219    0.4049 C   0  0  0  0  0  0  0  0  0  0  0  0
   -7.2785    1.5007    1.9070 H   0  0  0  0  0  0  0  0  0  0  0  0
   -6.6968    0.7616    3.4704 H   0  0  0  0  0  0  0  0  0  0  0  0
   -7.5093   -0.2319    2.2046 H   0  0  0  0  0  0  0  0  0  0  0  0
   -4.4259   -2.7143   -0.5435 H   0  0  0  0  0  0  0  0  0  0  0  0
   -2.2090   -2.9733   -1.6815 H   0  0  0  0  0  0  0  0  0  0  0  0
    0.2291    0.6415   -2.5060 H   0  0  0  0  0  0  0  0  0  0  0  0
    1.7062   -0.2483   -2.0834 H   0  0  0  0  0  0  0  0  0  0  0  0
    1.2188    0.1807    0.3144 H   0  0  0  0  0  0  0  0  0  0  0  0
    1.5318    2.2363   -1.7226 H   0  0  0  0  0  0  0  0  0  0  0  0
    5.0451    1.9316   -1.7464 H   0  0  0  0  0  0  0  0  0  0  0  0
    6.6585    0.0836   -2.0841 H   0  0  0  0  0  0  0  0  0  0  0  0
    4.8697   -2.1113    1.0427 H   0  0  0  0  0  0  0  0  0  0  0  0
    3.2745   -0.3624    1.4273 H   0  0  0  0  0  0  0  0  0  0  0  0
   -3.2009    1.0060    1.0147 H   0  0  0  0  0  0  0  0  0  0  0  0
  1  2  1  0
  2  3  1  0
  3  4  2  0
  3  5  1  0
  5  6  2  0
  6  7  1  0
  7  8  2  0
  8  9  1  0
  9 10  2  0
  9 11  1  0
 11 12  1  0
 12 13  1  0
 13 14  1  0
 14 15  2  0
 14 16  2  0
 14 17  1  0
 17 18  2  0
 18 19  1  0
 19 20  2  0
 20 21  1  0
 20 22  1  0
 22 23  2  0
 12 24  1  0
 24 25  2  0
 24 26  1  0
 26 27  2  0
 27  5  1  0
 26  8  1  0
 23 17  1  0
  1 28  1  0
  1 29  1  0
  1 30  1  0
  6 31  1  0
  7 32  1  0
 11 33  1  0
 11 34  1  0
 12 35  1  0
 13 36  1  0
 18 37  1  0
 19 38  1  0
 22 39  1  0
 23 40  1  0
 27 41  1  0
M  END
$$$$
[H]c1nc(N([H])c2nc3c([H])c([H])c(Br)c([H])c3c(=O)n2C([H])([H])C([H])([H])C([H])([H])N2C([H])([H])C([H])([H])C([H])([H])C([H])([H])C2([H])[H])c([H])c([H])c1[H]
     RDKit          3D

 52 55  0  0  0  0  0  0  0  0999 V2000
   -2.7761   -6.7122   -1.0641 Br  0  0  0  0  0  0  0  0  0  0  0  0
   -2.9418   -4.8417   -0.8397 C   0  0  0  0  0  0  0  0  0  0  0  0
   -4.1524   -4.1598   -1.0230 C   0  0  0  0  0  0  0  0  0  0  0  0
   -4.2280   -2.7911   -0.8483 C   0  0  0  0  0  0  0  0  0  0  0  0
   -3.1206   -2.0491   -0.4893 C   0  0  0  0  0  0  0  0  0  0  0  0
   -3.1326   -0.7218   -0.3078 N   0  0  0  0  0  0  0  0  0  0  0  0
   -2.0536   -0.0013    0.0393 C   0  0  0  0  0  0  0  0  0  0  0  0
   -2.0914    1.3953    0.2207 N   0  0  0  0  0  0  0  0  0  0  0  0
   -3.2768    2.1587    0.0646 C   0  0  0  0  0  0  0  0  0  0  0  0
   -3.2546    3.5391    0.2461 C   0  0  0  0  0  0  0  0  0  0  0  0
   -4.3415    4.3473    0.1211 C   0  0  0  0  0  0  0  0  0  0  0  0
   -5.5634    3.7906   -0.2074 C   0  0  0  0  0  0  0  0  0  0  0  0
   -5.5781    2.4158   -0.3867 C   0  0  0  0  0  0  0  0  0  0  0  0
   -4.4778    1.6441   -0.2541 N   0  0  0  0  0  0  0  0  0  0  0  0
   -0.8912   -0.6756    0.2125 N   0  0  0  0  0  0  0  0  0  0  0  0
    0.3364    0.0015    0.5919 C   0  0  0  0  0  0  0  0  0  0  0  0
    1.0275    0.4174   -0.6798 C   0  0  0  0  0  0  0  0  0  0  0  0
    2.3210    1.1418   -0.4389 C   0  0  0  0  0  0  0  0  0  0  0  0
    3.2425    0.3367    0.2743 N   0  0  0  0  0  0  0  0  0  0  0  0
    3.7864   -0.7895   -0.3751 C   0  0  0  0  0  0  0  0  0  0  0  0
    5.2836   -0.7713   -0.5724 C   0  0  0  0  0  0  0  0  0  0  0  0
    5.7555    0.6493   -0.3511 C   0  0  0  0  0  0  0  0  0  0  0  0
    5.4615    0.9751    1.1108 C   0  0  0  0  0  0  0  0  0  0  0  0
    3.9675    0.9309    1.3281 C   0  0  0  0  0  0  0  0  0  0  0  0
   -0.8377   -2.0095    0.0398 C   0  0  0  0  0  0  0  0  0  0  0  0
    0.2644   -2.6301    0.2065 O   0  0  0  0  0  0  0  0  0  0  0  0
   -1.9413   -2.7520   -0.3163 C   0  0  0  0  0  0  0  0  0  0  0  0
   -1.8446   -4.1147   -0.4851 C   0  0  0  0  0  0  0  0  0  0  0  0
   -4.9985   -4.7787   -1.3045 H   0  0  0  0  0  0  0  0  0  0  0  0
   -5.1666   -2.3099   -0.9971 H   0  0  0  0  0  0  0  0  0  0  0  0
   -1.2159    1.9062    0.4807 H   0  0  0  0  0  0  0  0  0  0  0  0
   -2.3024    3.9772    0.5010 H   0  0  0  0  0  0  0  0  0  0  0  0
   -4.2864    5.4236    0.2710 H   0  0  0  0  0  0  0  0  0  0  0  0
   -6.4634    4.3829   -0.3209 H   0  0  0  0  0  0  0  0  0  0  0  0
   -6.5233    1.9750   -0.6405 H   0  0  0  0  0  0  0  0  0  0  0  0
    1.0276   -0.7556    1.0684 H   0  0  0  0  0  0  0  0  0  0  0  0
    0.2184    0.7814    1.3405 H   0  0  0  0  0  0  0  0  0  0  0  0
    0.3512    0.9807   -1.3573 H   0  0  0  0  0  0  0  0  0  0  0  0
    1.2669   -0.5310   -1.2240 H   0  0  0  0  0  0  0  0  0  0  0  0
    2.0932    2.0633    0.1351 H   0  0  0  0  0  0  0  0  0  0  0  0
    2.7039    1.4298   -1.4601 H   0  0  0  0  0  0  0  0  0  0  0  0
    3.5327   -1.7383    0.1560 H   0  0  0  0  0  0  0  0  0  0  0  0
    3.3260   -0.8951   -1.3826 H   0  0  0  0  0  0  0  0  0  0  0  0
    5.5565   -1.1421   -1.5825 H   0  0  0  0  0  0  0  0  0  0  0  0
    5.7632   -1.4176    0.1926 H   0  0  0  0  0  0  0  0  0  0  0  0
    5.1109    1.3141   -0.9498 H   0  0  0  0  0  0  0  0  0  0  0  0
    6.8201    0.7901   -0.5850 H   0  0  0  0  0  0  0  0  0  0  0  0
    5.9317    1.9022    1.4505 H   0  0  0  0  0  0  0  0  0  0  0  0
    5.9028    0.1448    1.7019 H   0  0  0  0  0  0  0  0  0  0  0  0
    3.6225    1.9791    1.4546 H   0  0  0  0  0  0  0  0  0  0  0  0
    3.6947    0.4131    2.2818 H   0  0  0  0  0  0  0  0  0  0  0  0
   -0.9080   -4.6195   -0.3416 H   0  0  0  0  0  0  0  0  0  0  0  0
  1  2  1  0
  2  3  2  0
  3  4  1  0
  4  5  2  0
  5  6  1  0
  6  7  2  0
  7  8  1  0
  8  9  1  0
  9 10  2  0
 10 11  1  0
 11 12  2  0
 12 13  1  0
 13 14  2  0
  7 15  1  0
 15 16  1  0
 16 17  1  0
 17 18  1  0
 18 19  1  0
 19 20  1  0
 20 21  1  0
 21 22  1  0
 22 23  1  0
 23 24  1  0
 15 25  1  0
 25 26  2  0
 25 27  1  0
 27 28  2  0
 28  2  1  0
 27  5  1  0
 14  9  1  0
 24 19  1  0
  3 29  1  0
  4 30  1  0
  8 31  1  0
 10 32  1  0
 11 33  1  0
 12 34  1  0
 13 35  1  0
 16 36  1  0
 16 37  1  0
 17 38  1  0
 17 39  1  0
 18 40  1  0
 18 41  1  0
 20 42  1  0
 20 43  1  0
 21 44  1  0
 21 45  1  0
 22 46  1  0
 22 47  1  0
 23 48  1  0
 23 49  1  0
 24 50  1  0
 24 51  1  0
 28 52  1  0
M  END
$$$$
[H]c1nc(-c2c([H])c([H])c([H])c(S(=O)(=O)N([H])C(=O)[C@@]([H])(N([H])[H])C([H])([H])C([H])(C([H])([H])[H])C([H])([H])[H])c2[H])c([H])c(N([H])[H])n1
     RDKit          3D

 46 47  0  0  0  0  0  0  0  0999 V2000
    6.3920   -0.4867    0.2009 C   0  0  0  0  0  0  0  0  0  0  0  0
    5.1568   -1.2404   -0.1520 C   0  0  0  0  0  0  0  0  0  0  0  0
    5.2959   -2.7182    0.1606 C   0  0  0  0  0  0  0  0  0  0  0  0
    3.9401   -0.6571    0.4887 C   0  0  0  0  0  0  0  0  0  0  0  0
    3.6687    0.7476    0.0693 C   0  0  2  0  0  0  0  0  0  0  0  0
    4.7277    1.6874    0.3909 N   0  0  0  0  0  0  0  0  0  0  0  0
    2.3760    1.2000    0.6241 C   0  0  0  0  0  0  0  0  0  0  0  0
    2.3708    2.2625    1.2804 O   0  0  0  0  0  0  0  0  0  0  0  0
    1.1771    0.4814    0.4352 N   0  0  0  0  0  0  0  0  0  0  0  0
   -0.2483    1.1741    1.1501 S   0  0  0  0  0  0  0  0  0  0  0  0
    0.0232    2.5427    1.7065 O   0  0  0  0  0  0  0  0  0  0  0  0
   -0.6639    0.2138    2.2357 O   0  0  0  0  0  0  0  0  0  0  0  0
   -1.5150    1.2262   -0.0448 C   0  0  0  0  0  0  0  0  0  0  0  0
   -1.3896    2.0055   -1.1980 C   0  0  0  0  0  0  0  0  0  0  0  0
   -2.4115    2.1098   -2.1105 C   0  0  0  0  0  0  0  0  0  0  0  0
   -3.5980    1.4348   -1.9010 C   0  0  0  0  0  0  0  0  0  0  0  0
   -3.7773    0.6382   -0.7612 C   0  0  0  0  0  0  0  0  0  0  0  0
   -2.7248    0.5679    0.1180 C   0  0  0  0  0  0  0  0  0  0  0  0
   -5.0607    0.0012   -0.5931 C   0  0  0  0  0  0  0  0  0  0  0  0
   -5.3225   -0.7607    0.5112 C   0  0  0  0  0  0  0  0  0  0  0  0
   -6.5750   -1.3532    0.7017 C   0  0  0  0  0  0  0  0  0  0  0  0
   -6.8545   -2.1326    1.8577 N   0  0  0  0  0  0  0  0  0  0  0  0
   -7.4974   -1.1343   -0.2533 N   0  0  0  0  0  0  0  0  0  0  0  0
   -7.2276   -0.3723   -1.3546 C   0  0  0  0  0  0  0  0  0  0  0  0
   -6.0168    0.1820   -1.5082 N   0  0  0  0  0  0  0  0  0  0  0  0
    6.3842   -0.0376    1.2153 H   0  0  0  0  0  0  0  0  0  0  0  0
    7.3100   -1.1449    0.1496 H   0  0  0  0  0  0  0  0  0  0  0  0
    6.5743    0.3035   -0.5424 H   0  0  0  0  0  0  0  0  0  0  0  0
    4.9648   -1.1973   -1.2729 H   0  0  0  0  0  0  0  0  0  0  0  0
    6.1062   -3.1132   -0.5079 H   0  0  0  0  0  0  0  0  0  0  0  0
    4.3299   -3.1963   -0.0132 H   0  0  0  0  0  0  0  0  0  0  0  0
    5.5578   -2.8370    1.2328 H   0  0  0  0  0  0  0  0  0  0  0  0
    4.0242   -0.6661    1.6118 H   0  0  0  0  0  0  0  0  0  0  0  0
    3.0207   -1.2514    0.2521 H   0  0  0  0  0  0  0  0  0  0  0  0
    3.5627    0.7563   -1.0588 H   0  0  0  0  0  0  0  0  0  0  0  0
    4.8599    1.8243    1.4071 H   0  0  0  0  0  0  0  0  0  0  0  0
    4.4521    2.5979   -0.0335 H   0  0  0  0  0  0  0  0  0  0  0  0
    1.0580   -0.4084   -0.0817 H   0  0  0  0  0  0  0  0  0  0  0  0
   -0.4363    2.5197   -1.3211 H   0  0  0  0  0  0  0  0  0  0  0  0
   -2.2854    2.7223   -2.9975 H   0  0  0  0  0  0  0  0  0  0  0  0
   -4.3850    1.5322   -2.6326 H   0  0  0  0  0  0  0  0  0  0  0  0
   -2.8358   -0.0360    0.9961 H   0  0  0  0  0  0  0  0  0  0  0  0
   -4.6016   -0.9570    1.2914 H   0  0  0  0  0  0  0  0  0  0  0  0
   -7.7740   -2.6111    1.9188 H   0  0  0  0  0  0  0  0  0  0  0  0
   -6.1770   -2.2265    2.6166 H   0  0  0  0  0  0  0  0  0  0  0  0
   -7.9550   -0.1932   -2.1150 H   0  0  0  0  0  0  0  0  0  0  0  0
  1  2  1  0
  2  3  1  0
  2  4  1  0
  4  5  1  0
  5  6  1  0
  5  7  1  0
  7  8  2  0
  7  9  1  0
  9 10  1  0
 10 11  2  0
 10 12  2  0
 10 13  1  0
 13 14  2  0
 14 15  1  0
 15 16  2  0
 16 17  1  0
 17 18  2  0
 17 19  1  0
 19 20  2  0
 20 21  1  0
 21 22  1  0
 21 23  2  0
 23 24  1  0
 24 25  2  0
 18 13  1  0
 25 19  1  0
  1 26  1  0
  1 27  1  0
  1 28  1  0
  2 29  1  0
  3 30  1  0
  3 31  1  0
  3 32  1  0
  4 33  1  0
  4 34  1  0
  5 35  1  6
  6 36  1  0
  6 37  1  0
  9 38  1  0
 14 39  1  0
 15 40  1  0
 16 41  1  0
 18 42  1  0
 20 43  1  0
 22 44  1  0
 22 45  1  0
 24 46  1  0
M  END
$$$$
[H]Oc1c([H])c([H])c(C(=O)O[C@@]2([H])C(=O)O[C@]3([H])C([H])([H])[C@@]4(O[H])C(C([H])([H])[H])=C([H])C(=O)[C@@]4(O[H])C([H])([H])[C@@]3([H])C(O[H])(C([H])([H])OC([H])([H])C([H])([H])OC([H])([H])[H])C2([H])[H])c([H])c1[H]
     RDKit          3D

 66 69  0  0  0  0  0  0  0  0999 V2000
    0.2201    4.5443   -0.3389 C   0  0  0  0  0  0  0  0  0  0  0  0
   -0.8092    5.3415   -0.6946 O   0  0  0  0  0  0  0  0  0  0  0  0
   -1.8347    4.7733   -1.3380 C   0  0  0  0  0  0  0  0  0  0  0  0
   -2.6094    3.6750   -0.7421 C   0  0  0  0  0  0  0  0  0  0  0  0
   -2.0061    2.4795   -0.4471 O   0  0  0  0  0  0  0  0  0  0  0  0
   -1.5799    1.7512   -1.5066 C   0  0  0  0  0  0  0  0  0  0  0  0
   -0.9707    0.4166   -1.2679 C   0  0  0  0  0  0  0  0  0  0  0  0
   -0.6536   -0.0300   -2.5855 O   0  0  0  0  0  0  0  0  0  0  0  0
    0.2979    0.5026   -0.4647 C   0  0  0  0  0  0  0  0  0  0  0  0
    1.4544   -0.1386   -1.2488 C   0  0  1  0  0  0  0  0  0  0  0  0
    2.6573   -0.0296   -0.5326 O   0  0  0  0  0  0  0  0  0  0  0  0
    3.7421    0.6852   -0.9493 C   0  0  0  0  0  0  0  0  0  0  0  0
    3.7160    1.2980   -2.0256 O   0  0  0  0  0  0  0  0  0  0  0  0
    4.9342    0.7111   -0.0975 C   0  0  0  0  0  0  0  0  0  0  0  0
    4.9801    0.0358    1.1058 C   0  0  0  0  0  0  0  0  0  0  0  0
    6.1009    0.0552    1.9145 C   0  0  0  0  0  0  0  0  0  0  0  0
    7.2290    0.7598    1.5426 C   0  0  0  0  0  0  0  0  0  0  0  0
    8.3746    0.8037    2.3276 O   0  0  0  0  0  0  0  0  0  0  0  0
    7.1755    1.4353    0.3327 C   0  0  0  0  0  0  0  0  0  0  0  0
    6.0582    1.4144   -0.4706 C   0  0  0  0  0  0  0  0  0  0  0  0
    1.1326   -1.5390   -1.6130 C   0  0  0  0  0  0  0  0  0  0  0  0
    2.1042   -2.1633   -2.1082 O   0  0  0  0  0  0  0  0  0  0  0  0
   -0.0928   -2.1609   -1.4519 O   0  0  0  0  0  0  0  0  0  0  0  0
   -1.0938   -1.9161   -0.5359 C   0  0  2  0  0  0  0  0  0  0  0  0
   -2.1449   -3.0120   -0.5326 C   0  0  0  0  0  0  0  0  0  0  0  0
   -3.2077   -2.7439    0.4693 C   0  0  1  0  0  0  0  0  0  0  0  0
   -4.4876   -2.8208   -0.1112 O   0  0  0  0  0  0  0  0  0  0  0  0
   -3.1374   -3.8182    1.5010 C   0  0  0  0  0  0  0  0  0  0  0  0
   -3.5474   -5.2345    1.2679 C   0  0  0  0  0  0  0  0  0  0  0  0
   -2.6664   -3.3517    2.6402 C   0  0  0  0  0  0  0  0  0  0  0  0
   -2.3633   -1.9293    2.5276 C   0  0  0  0  0  0  0  0  0  0  0  0
   -1.6668   -1.2444    3.2974 O   0  0  0  0  0  0  0  0  0  0  0  0
   -3.0907   -1.5122    1.2725 C   0  0  2  0  0  0  0  0  0  0  0  0
   -4.4007   -1.2181    1.7400 O   0  0  0  0  0  0  0  0  0  0  0  0
   -2.4586   -0.3316    0.6262 C   0  0  0  0  0  0  0  0  0  0  0  0
   -1.8664   -0.6275   -0.7107 C   0  0  1  0  0  0  0  0  0  0  0  0
   -0.1207    3.7579    0.3700 H   0  0  0  0  0  0  0  0  0  0  0  0
    0.6950    4.0146   -1.2231 H   0  0  0  0  0  0  0  0  0  0  0  0
    1.0496    5.1123    0.1685 H   0  0  0  0  0  0  0  0  0  0  0  0
   -2.5838    5.5960   -1.6122 H   0  0  0  0  0  0  0  0  0  0  0  0
   -1.5419    4.4199   -2.3942 H   0  0  0  0  0  0  0  0  0  0  0  0
   -3.5324    3.4634   -1.3619 H   0  0  0  0  0  0  0  0  0  0  0  0
   -3.0781    4.0146    0.2433 H   0  0  0  0  0  0  0  0  0  0  0  0
   -2.4945    1.6667   -2.1911 H   0  0  0  0  0  0  0  0  0  0  0  0
   -0.8870    2.3498   -2.1218 H   0  0  0  0  0  0  0  0  0  0  0  0
   -1.4390   -0.4789   -2.9614 H   0  0  0  0  0  0  0  0  0  0  0  0
    0.2401   -0.1408    0.4619 H   0  0  0  0  0  0  0  0  0  0  0  0
    0.6162    1.4981   -0.1807 H   0  0  0  0  0  0  0  0  0  0  0  0
    1.5496    0.4435   -2.1772 H   0  0  0  0  0  0  0  0  0  0  0  0
    4.0984   -0.5148    1.3959 H   0  0  0  0  0  0  0  0  0  0  0  0
    6.1357   -0.4738    2.8563 H   0  0  0  0  0  0  0  0  0  0  0  0
    9.0659    0.0701    2.1468 H   0  0  0  0  0  0  0  0  0  0  0  0
    8.0602    1.9958    0.0264 H   0  0  0  0  0  0  0  0  0  0  0  0
    6.0218    1.9507   -1.4267 H   0  0  0  0  0  0  0  0  0  0  0  0
   -0.6354   -1.9719    0.4955 H   0  0  0  0  0  0  0  0  0  0  0  0
   -2.6181   -2.9800   -1.5586 H   0  0  0  0  0  0  0  0  0  0  0  0
   -1.6842   -4.0215   -0.4583 H   0  0  0  0  0  0  0  0  0  0  0  0
   -5.1166   -3.0359    0.6382 H   0  0  0  0  0  0  0  0  0  0  0  0
   -2.6931   -5.7855    0.7904 H   0  0  0  0  0  0  0  0  0  0  0  0
   -4.3792   -5.2735    0.5409 H   0  0  0  0  0  0  0  0  0  0  0  0
   -3.8260   -5.7405    2.2011 H   0  0  0  0  0  0  0  0  0  0  0  0
   -2.5286   -3.9644    3.5374 H   0  0  0  0  0  0  0  0  0  0  0  0
   -4.2601   -0.5768    2.4827 H   0  0  0  0  0  0  0  0  0  0  0  0
   -3.2188    0.4749    0.6125 H   0  0  0  0  0  0  0  0  0  0  0  0
   -1.6610    0.0489    1.3311 H   0  0  0  0  0  0  0  0  0  0  0  0
   -2.7230   -0.7801   -1.4241 H   0  0  0  0  0  0  0  0  0  0  0  0
  1  2  1  0
  2  3  1  0
  3  4  1  0
  4  5  1  0
  5  6  1  0
  6  7  1  0
  7  8  1  0
  7  9  1  0
  9 10  1  0
 10 11  1  0
 11 12  1  0
 12 13  2  0
 12 14  1  0
 14 15  2  0
 15 16  1  0
 16 17  2  0
 17 18  1  0
 17 19  1  0
 19 20  2  0
 10 21  1  0
 21 22  2  0
 21 23  1  0
 23 24  1  0
 24 25  1  0
 25 26  1  0
 26 27  1  6
 26 28  1  0
 28 29  1  0
 28 30  2  0
 30 31  1  0
 31 32  2  0
 31 33  1  0
 33 34  1  1
 33 35  1  0
 35 36  1  0
 36  7  1  0
 20 14  1  0
 36 24  1  0
 33 26  1  0
  1 37  1  0
  1 38  1  0
  1 39  1  0
  3 40  1  0
  3 41  1  0
  4 42  1  0
  4 43  1  0
  6 44  1  0
  6 45  1  0
  8 46  1  0
  9 47  1  0
  9 48  1  0
 10 49  1  6
 15 50  1  0
 16 51  1  0
 18 52  1  0
 19 53  1  0
 20 54  1  0
 24 55  1  1
 25 56  1  0
 25 57  1  0
 27 58  1  0
 29 59  1  0
 29 60  1  0
 29 61  1  0
 30 62  1  0
 34 63  1  0
 35 64  1  0
 35 65  1  0
 36 66  1  6
M  END
$$$$
[H]c1c([H])c([H])c(-c2c([H])c([H])c([H])c(C([H])(C(=O)N([H])C([H])([H])C#N)C([H])([H])C([H])(C([H])([H])[H])C([H])([H])[H])c2[H])c([H])c1[H]
     RDKit          3D

 45 46  0  0  0  0  0  0  0  0999 V2000
   -3.9913   -1.4659    0.5651 C   0  0  0  0  0  0  0  0  0  0  0  0
   -2.8865   -0.7006    1.2633 C   0  0  0  0  0  0  0  0  0  0  0  0
   -2.7977   -1.3360    2.6635 C   0  0  0  0  0  0  0  0  0  0  0  0
   -1.5626   -0.8463    0.6398 C   0  0  0  0  0  0  0  0  0  0  0  0
   -1.3538   -0.3834   -0.7563 C   0  0  0  0  0  0  0  0  0  0  0  0
   -1.5330    1.0328   -1.0308 C   0  0  0  0  0  0  0  0  0  0  0  0
   -0.5058    1.7142   -1.3623 O   0  0  0  0  0  0  0  0  0  0  0  0
   -2.7401    1.7195   -0.9650 N   0  0  0  0  0  0  0  0  0  0  0  0
   -2.8532    3.1538   -1.2524 C   0  0  0  0  0  0  0  0  0  0  0  0
   -4.2345    3.6058   -1.1056 C   0  0  0  0  0  0  0  0  0  0  0  0
   -5.3344    3.9506   -0.9905 N   0  0  0  0  0  0  0  0  0  0  0  0
    0.0772   -0.7680   -1.0936 C   0  0  0  0  0  0  0  0  0  0  0  0
    0.3312   -1.6560   -2.1087 C   0  0  0  0  0  0  0  0  0  0  0  0
    1.6099   -2.0420   -2.4593 C   0  0  0  0  0  0  0  0  0  0  0  0
    2.6630   -1.5092   -1.7566 C   0  0  0  0  0  0  0  0  0  0  0  0
    2.4556   -0.6135   -0.7289 C   0  0  0  0  0  0  0  0  0  0  0  0
    1.1463   -0.2467   -0.4032 C   0  0  0  0  0  0  0  0  0  0  0  0
    3.5492   -0.0325    0.0338 C   0  0  0  0  0  0  0  0  0  0  0  0
    4.7683    0.2019   -0.5602 C   0  0  0  0  0  0  0  0  0  0  0  0
    5.8242    0.7596    0.1680 C   0  0  0  0  0  0  0  0  0  0  0  0
    5.6481    1.0792    1.4916 C   0  0  0  0  0  0  0  0  0  0  0  0
    4.4248    0.8426    2.0827 C   0  0  0  0  0  0  0  0  0  0  0  0
    3.3653    0.2844    1.3574 C   0  0  0  0  0  0  0  0  0  0  0  0
   -4.8333   -1.5473    1.2865 H   0  0  0  0  0  0  0  0  0  0  0  0
   -3.6737   -2.5319    0.3816 H   0  0  0  0  0  0  0  0  0  0  0  0
   -4.3739   -0.9933   -0.3391 H   0  0  0  0  0  0  0  0  0  0  0  0
   -3.2276    0.3194    1.4443 H   0  0  0  0  0  0  0  0  0  0  0  0
   -2.1832   -2.2527    2.5295 H   0  0  0  0  0  0  0  0  0  0  0  0
   -2.3518   -0.6497    3.3927 H   0  0  0  0  0  0  0  0  0  0  0  0
   -3.8017   -1.6637    3.0054 H   0  0  0  0  0  0  0  0  0  0  0  0
   -1.1888   -1.9087    0.7733 H   0  0  0  0  0  0  0  0  0  0  0  0
   -0.8277   -0.2675    1.2850 H   0  0  0  0  0  0  0  0  0  0  0  0
   -1.9808   -0.9392   -1.4959 H   0  0  0  0  0  0  0  0  0  0  0  0
   -3.6172    1.2359   -0.7156 H   0  0  0  0  0  0  0  0  0  0  0  0
   -2.5564    3.3066   -2.3131 H   0  0  0  0  0  0  0  0  0  0  0  0
   -2.1733    3.6874   -0.5849 H   0  0  0  0  0  0  0  0  0  0  0  0
   -0.5061   -2.0781   -2.6653 H   0  0  0  0  0  0  0  0  0  0  0  0
    1.7938   -2.7352   -3.2528 H   0  0  0  0  0  0  0  0  0  0  0  0
    3.6550   -1.8085   -2.0279 H   0  0  0  0  0  0  0  0  0  0  0  0
    0.9301    0.4519    0.3937 H   0  0  0  0  0  0  0  0  0  0  0  0
    4.8761   -0.0572   -1.5940 H   0  0  0  0  0  0  0  0  0  0  0  0
    6.7788    0.9459   -0.2879 H   0  0  0  0  0  0  0  0  0  0  0  0
    6.4723    1.5163    2.0654 H   0  0  0  0  0  0  0  0  0  0  0  0
    4.2687    1.0909    3.1341 H   0  0  0  0  0  0  0  0  0  0  0  0
    2.4507    0.1341    1.8932 H   0  0  0  0  0  0  0  0  0  0  0  0
  1  2  1  0
  2  3  1  0
  2  4  1  0
  4  5  1  0
  5  6  1  0
  6  7  2  0
  6  8  1  0
  8  9  1  0
  9 10  1  0
 10 11  3  0
  5 12  1  0
 12 13  2  0
 13 14  1  0
 14 15  2  0
 15 16  1  0
 16 17  2  0
 16 18  1  0
 18 19  2  0
 19 20  1  0
 20 21  2  0
 21 22  1  0
 22 23  2  0
 17 12  1  0
 23 18  1  0
  1 24  1  0
  1 25  1  0
  1 26  1  0
  2 27  1  0
  3 28  1  0
  3 29  1  0
  3 30  1  0
  4 31  1  0
  4 32  1  0
  5 33  1  0
  8 34  1  0
  9 35  1  0
  9 36  1  0
 13 37  1  0
 14 38  1  0
 15 39  1  0
 17 40  1  0
 19 41  1  0
 20 42  1  0
 21 43  1  0
 22 44  1  0
 23 45  1  0
M  END
$$$$
[H]OC1(C(F)(F)F)c2c([H])c([H])c([H])c([H])c2-c2c(C(=O)N([H])[H])c([H])c(-n3c([H])nc(C([H])([H])[H])c3[H])c([H])c21
     RDKit          3D

 41 44  0  0  0  0  0  0  0  0999 V2000
    6.6457   -0.2478    0.2366 C   0  0  0  0  0  0  0  0  0  0  0  0
    5.2239   -0.5940    0.5521 C   0  0  0  0  0  0  0  0  0  0  0  0
    4.0685   -0.0063    0.0794 C   0  0  0  0  0  0  0  0  0  0  0  0
    2.9915   -0.6051    0.6007 N   0  0  0  0  0  0  0  0  0  0  0  0
    3.4518   -1.5703    1.4023 C   0  0  0  0  0  0  0  0  0  0  0  0
    4.8156   -1.5722    1.3800 N   0  0  0  0  0  0  0  0  0  0  0  0
    1.6231   -0.2436    0.3214 C   0  0  0  0  0  0  0  0  0  0  0  0
    0.6069   -1.1382    0.5068 C   0  0  0  0  0  0  0  0  0  0  0  0
   -0.7316   -0.8064    0.2440 C   0  0  0  0  0  0  0  0  0  0  0  0
   -0.9886    0.4617   -0.2108 C   0  0  0  0  0  0  0  0  0  0  0  0
   -2.4366    0.6236   -0.3686 C   0  0  0  0  0  0  0  0  0  0  0  0
   -3.2116    1.6996   -0.7473 C   0  0  0  0  0  0  0  0  0  0  0  0
   -4.5966    1.5334   -0.7576 C   0  0  0  0  0  0  0  0  0  0  0  0
   -5.2076    0.3591   -0.4094 C   0  0  0  0  0  0  0  0  0  0  0  0
   -4.4133   -0.6937   -0.0355 C   0  0  0  0  0  0  0  0  0  0  0  0
   -3.0294   -0.5858   -0.0069 C   0  0  0  0  0  0  0  0  0  0  0  0
   -1.9778   -1.5594    0.3570 C   0  0  0  0  0  0  0  0  0  0  0  0
   -2.0184   -2.5956   -0.5757 O   0  0  0  0  0  0  0  0  0  0  0  0
   -2.2413   -2.0545    1.7575 C   0  0  0  0  0  0  0  0  0  0  0  0
   -3.4237   -2.7561    1.7692 F   0  0  0  0  0  0  0  0  0  0  0  0
   -1.2388   -2.8672    2.2285 F   0  0  0  0  0  0  0  0  0  0  0  0
   -2.4021   -0.9782    2.6073 F   0  0  0  0  0  0  0  0  0  0  0  0
    0.0495    1.3766   -0.4059 C   0  0  0  0  0  0  0  0  0  0  0  0
    1.3565    1.0196   -0.1355 C   0  0  0  0  0  0  0  0  0  0  0  0
   -0.0816    2.6844   -1.0257 C   0  0  0  0  0  0  0  0  0  0  0  0
   -0.5071    2.8491   -2.3973 N   0  0  0  0  0  0  0  0  0  0  0  0
    0.1943    3.6999   -0.3524 O   0  0  0  0  0  0  0  0  0  0  0  0
    6.7169    0.3069   -0.7217 H   0  0  0  0  0  0  0  0  0  0  0  0
    7.1061    0.3638    1.0414 H   0  0  0  0  0  0  0  0  0  0  0  0
    7.2488   -1.1731    0.0953 H   0  0  0  0  0  0  0  0  0  0  0  0
    4.0245    0.8157   -0.6096 H   0  0  0  0  0  0  0  0  0  0  0  0
    2.8634   -2.2505    1.9834 H   0  0  0  0  0  0  0  0  0  0  0  0
    0.8080   -2.1455    0.8676 H   0  0  0  0  0  0  0  0  0  0  0  0
   -2.8266    2.6672   -1.0048 H   0  0  0  0  0  0  0  0  0  0  0  0
   -5.1806    2.4013   -1.0625 H   0  0  0  0  0  0  0  0  0  0  0  0
   -6.2891    0.2678   -0.4300 H   0  0  0  0  0  0  0  0  0  0  0  0
   -4.9132   -1.6020    0.2280 H   0  0  0  0  0  0  0  0  0  0  0  0
   -2.9490   -2.6726   -0.9133 H   0  0  0  0  0  0  0  0  0  0  0  0
    2.1840    1.7325   -0.2806 H   0  0  0  0  0  0  0  0  0  0  0  0
   -0.3398    3.7520   -2.8820 H   0  0  0  0  0  0  0  0  0  0  0  0
   -0.9746    2.1039   -2.9253 H   0  0  0  0  0  0  0  0  0  0  0  0
  1  2  1  0
  2  3  2  0
  3  4  1  0
  4  5  1  0
  5  6  2  0
  4  7  1  0
  7  8  2  0
  8  9  1  0
  9 10  2  0
 10 11  1  0
 11 12  2  0
 12 13  1  0
 13 14  2  0
 14 15  1  0
 15 16  2  0
 16 17  1  0
 17 18  1  0
 17 19  1  0
 19 20  1  0
 19 21  1  0
 19 22  1  0
 10 23  1  0
 23 24  2  0
 23 25  1  0
 25 26  1  0
 25 27  2  0
  6  2  1  0
 24  7  1  0
 17  9  1  0
 16 11  1  0
  1 28  1  0
  1 29  1  0
  1 30  1  0
  3 31  1  0
  5 32  1  0
  8 33  1  0
 12 34  1  0
 13 35  1  0
 14 36  1  0
 15 37  1  0
 18 38  1  0
 24 39  1  0
 26 40  1  0
 26 41  1  0
M  END
$$$$
[H]N=C(N([H])[H])N([H])C([H])([H])C([H])([H])C([H])([H])[C@@]([H])(C(=O)c1nc2c([H])c([H])c([H])c([H])c2s1)N([H])C(=O)C1([H])N(C(=O)[C@@]([H])(N([H])[H])C([H])([H])c2c([H])c([H])c(O[H])c([H])c2[H])C([H])([H])C([H])([H])C1([H])[H]
     RDKit          3D

 72 75  0  0  0  0  0  0  0  0999 V2000
    5.8886    1.0869    0.8262 N   0  0  0  0  0  0  0  0  0  0  0  0
    5.5220    1.6906   -0.4133 C   0  0  1  0  0  0  0  0  0  0  0  0
    5.9433    0.8208   -1.5666 C   0  0  0  0  0  0  0  0  0  0  0  0
    5.3771   -0.5258   -1.5943 C   0  0  0  0  0  0  0  0  0  0  0  0
    4.1769   -0.8154   -2.2054 C   0  0  0  0  0  0  0  0  0  0  0  0
    3.6695   -2.1158   -2.2252 C   0  0  0  0  0  0  0  0  0  0  0  0
    4.3479   -3.1514   -1.6368 C   0  0  0  0  0  0  0  0  0  0  0  0
    3.8384   -4.4611   -1.6555 O   0  0  0  0  0  0  0  0  0  0  0  0
    5.5537   -2.8785   -1.0192 C   0  0  0  0  0  0  0  0  0  0  0  0
    6.0317   -1.5884   -1.0140 C   0  0  0  0  0  0  0  0  0  0  0  0
    4.1157    2.0865   -0.5549 C   0  0  0  0  0  0  0  0  0  0  0  0
    3.8189    2.6014   -1.6873 O   0  0  0  0  0  0  0  0  0  0  0  0
    3.0765    1.9680    0.3927 N   0  0  0  0  0  0  0  0  0  0  0  0
    3.0758    1.4424    1.7413 C   0  0  0  0  0  0  0  0  0  0  0  0
    1.8061    1.9835    2.4115 C   0  0  0  0  0  0  0  0  0  0  0  0
    1.3526    3.0758    1.4359 C   0  0  0  0  0  0  0  0  0  0  0  0
    1.7169    2.4019    0.1331 C   0  0  0  0  0  0  0  0  0  0  0  0
    0.8219    1.2429   -0.1028 C   0  0  0  0  0  0  0  0  0  0  0  0
    1.3034    0.0653   -0.1801 O   0  0  0  0  0  0  0  0  0  0  0  0
   -0.5624    1.3557   -0.2513 N   0  0  0  0  0  0  0  0  0  0  0  0
   -1.4537    0.1555   -0.5037 C   0  0  1  0  0  0  0  0  0  0  0  0
   -2.1464   -0.2011    0.7186 C   0  0  0  0  0  0  0  0  0  0  0  0
   -2.9858   -1.4020    0.8283 C   0  0  0  0  0  0  0  0  0  0  0  0
   -3.5847   -1.5635    2.2349 C   0  0  0  0  0  0  0  0  0  0  0  0
   -2.5429   -1.6901    3.2062 N   0  0  0  0  0  0  0  0  0  0  0  0
   -2.8945   -1.8477    4.5702 C   0  0  0  0  0  0  0  0  0  0  0  0
   -1.8598   -1.8186    5.5414 N   0  0  0  0  0  0  0  0  0  0  0  0
   -4.1321   -2.0150    4.9390 N   0  0  0  0  0  0  0  0  0  0  0  0
   -2.1220    0.4696   -1.7369 C   0  0  0  0  0  0  0  0  0  0  0  0
   -1.2915    0.9127   -2.6928 O   0  0  0  0  0  0  0  0  0  0  0  0
   -3.4849    0.4408   -2.2306 C   0  0  0  0  0  0  0  0  0  0  0  0
   -4.6454    0.1464   -1.7238 N   0  0  0  0  0  0  0  0  0  0  0  0
   -5.7529    0.2087   -2.3873 C   0  0  0  0  0  0  0  0  0  0  0  0
   -7.0398   -0.0977   -1.8901 C   0  0  0  0  0  0  0  0  0  0  0  0
   -8.1099    0.0191   -2.7140 C   0  0  0  0  0  0  0  0  0  0  0  0
   -8.0587    0.4201   -4.0294 C   0  0  0  0  0  0  0  0  0  0  0  0
   -6.8038    0.7202   -4.5189 C   0  0  0  0  0  0  0  0  0  0  0  0
   -5.6745    0.6096   -3.6915 C   0  0  0  0  0  0  0  0  0  0  0  0
   -4.0007    0.8647   -3.8564 S   0  0  0  0  0  0  0  0  0  0  0  0
    6.1927    1.8746    1.4826 H   0  0  0  0  0  0  0  0  0  0  0  0
    6.7915    0.5532    0.7001 H   0  0  0  0  0  0  0  0  0  0  0  0
    6.1792    2.6317   -0.5378 H   0  0  0  0  0  0  0  0  0  0  0  0
    5.7010    1.3735   -2.5047 H   0  0  0  0  0  0  0  0  0  0  0  0
    7.0725    0.7778   -1.5466 H   0  0  0  0  0  0  0  0  0  0  0  0
    3.5735   -0.0752   -2.6928 H   0  0  0  0  0  0  0  0  0  0  0  0
    2.7203   -2.3147   -2.7166 H   0  0  0  0  0  0  0  0  0  0  0  0
    4.1010   -5.0429   -2.4297 H   0  0  0  0  0  0  0  0  0  0  0  0
    6.1126   -3.6653   -0.5491 H   0  0  0  0  0  0  0  0  0  0  0  0
    6.9706   -1.4256   -0.5332 H   0  0  0  0  0  0  0  0  0  0  0  0
    3.9673    1.7293    2.3371 H   0  0  0  0  0  0  0  0  0  0  0  0
    2.9710    0.3282    1.7547 H   0  0  0  0  0  0  0  0  0  0  0  0
    1.0334    1.2200    2.4997 H   0  0  0  0  0  0  0  0  0  0  0  0
    2.1111    2.4540    3.3502 H   0  0  0  0  0  0  0  0  0  0  0  0
    0.3006    3.3321    1.5282 H   0  0  0  0  0  0  0  0  0  0  0  0
    1.9756    3.9821    1.5458 H   0  0  0  0  0  0  0  0  0  0  0  0
    1.6792    3.1223   -0.7213 H   0  0  0  0  0  0  0  0  0  0  0  0
   -1.0624    2.2490   -0.1996 H   0  0  0  0  0  0  0  0  0  0  0  0
   -0.6749   -0.6420   -0.7098 H   0  0  0  0  0  0  0  0  0  0  0  0
   -1.3668   -0.2402    1.5532 H   0  0  0  0  0  0  0  0  0  0  0  0
   -2.7537    0.7251    1.0532 H   0  0  0  0  0  0  0  0  0  0  0  0
   -3.8155   -1.4938    0.1557 H   0  0  0  0  0  0  0  0  0  0  0  0
   -2.3919   -2.3577    0.7007 H   0  0  0  0  0  0  0  0  0  0  0  0
   -4.1926   -2.4914    2.2669 H   0  0  0  0  0  0  0  0  0  0  0  0
   -4.2569   -0.7133    2.4512 H   0  0  0  0  0  0  0  0  0  0  0  0
   -1.5486   -1.6727    2.9442 H   0  0  0  0  0  0  0  0  0  0  0  0
   -1.0829   -2.5208    5.4298 H   0  0  0  0  0  0  0  0  0  0  0  0
   -1.8007   -1.1750    6.3397 H   0  0  0  0  0  0  0  0  0  0  0  0
   -4.9098   -2.0383    4.2304 H   0  0  0  0  0  0  0  0  0  0  0  0
   -7.1998   -0.4232   -0.8731 H   0  0  0  0  0  0  0  0  0  0  0  0
   -9.1111   -0.2204   -2.3229 H   0  0  0  0  0  0  0  0  0  0  0  0
   -8.9239    0.4981   -4.6476 H   0  0  0  0  0  0  0  0  0  0  0  0
   -6.6521    1.0449   -5.5376 H   0  0  0  0  0  0  0  0  0  0  0  0
  1  2  1  0
  2  3  1  0
  3  4  1  0
  4  5  2  0
  5  6  1  0
  6  7  2  0
  7  8  1  0
  7  9  1  0
  9 10  2  0
  2 11  1  0
 11 12  2  0
 11 13  1  0
 13 14  1  0
 14 15  1  0
 15 16  1  0
 16 17  1  0
 17 18  1  0
 18 19  2  0
 18 20  1  0
 20 21  1  0
 21 22  1  0
 22 23  1  0
 23 24  1  0
 24 25  1  0
 25 26  1  0
 26 27  1  0
 26 28  2  3
 21 29  1  0
 29 30  2  0
 29 31  1  0
 31 32  2  0
 32 33  1  0
 33 34  2  0
 34 35  1  0
 35 36  2  0
 36 37  1  0
 37 38  2  0
 38 39  1  0
 10  4  1  0
 17 13  1  0
 39 31  1  0
 38 33  1  0
  1 40  1  0
  1 41  1  0
  2 42  1  6
  3 43  1  0
  3 44  1  0
  5 45  1  0
  6 46  1  0
  8 47  1  0
  9 48  1  0
 10 49  1  0
 14 50  1  0
 14 51  1  0
 15 52  1  0
 15 53  1  0
 16 54  1  0
 16 55  1  0
 17 56  1  0
 20 57  1  0
 21 58  1  6
 22 59  1  0
 22 60  1  0
 23 61  1  0
 23 62  1  0
 24 63  1  0
 24 64  1  0
 25 65  1  0
 27 66  1  0
 27 67  1  0
 28 68  1  0
 34 69  1  0
 35 70  1  0
 36 71  1  0
 37 72  1  0
M  END
$$$$
[H]N=C(N([H])[H])N([H])C(=O)C([H])([H])C([H])([H])[C@@]([H])(C(=O)O[H])N([H])C(=O)c1c([H])c([H])c(C([H])([H])N(C([H])([H])[H])C([H])([H])C([H])([H])C([H])([H])C([H])([H])N([H])[H])c([H])c1[H]
     RDKit          3D

 59 59  0  0  0  0  0  0  0  0999 V2000
   -3.8111   -1.7641   -0.2324 C   0  0  0  0  0  0  0  0  0  0  0  0
   -3.7362   -0.9085   -1.3981 N   0  0  0  0  0  0  0  0  0  0  0  0
   -3.6296    0.4575   -1.0969 C   0  0  0  0  0  0  0  0  0  0  0  0
   -4.7952    1.1393   -0.5133 C   0  0  0  0  0  0  0  0  0  0  0  0
   -6.0706    1.1230   -1.2942 C   0  0  0  0  0  0  0  0  0  0  0  0
   -6.7899   -0.1685   -1.4643 C   0  0  0  0  0  0  0  0  0  0  0  0
   -7.2191   -0.6048   -0.1442 N   0  0  0  0  0  0  0  0  0  0  0  0
   -2.8032   -1.3631   -2.4085 C   0  0  0  0  0  0  0  0  0  0  0  0
   -1.4273   -1.5056   -1.8739 C   0  0  0  0  0  0  0  0  0  0  0  0
   -0.6129   -0.5044   -1.4939 C   0  0  0  0  0  0  0  0  0  0  0  0
    0.5946   -0.7844   -0.8956 C   0  0  0  0  0  0  0  0  0  0  0  0
    0.9848   -2.0385   -0.6824 C   0  0  0  0  0  0  0  0  0  0  0  0
    0.2151   -3.1245   -1.0500 C   0  0  0  0  0  0  0  0  0  0  0  0
   -0.9984   -2.8383   -1.6475 C   0  0  0  0  0  0  0  0  0  0  0  0
    2.2405   -2.2127    0.1185 C   0  0  0  0  0  0  0  0  0  0  0  0
    3.0438   -3.0519   -0.2875 O   0  0  0  0  0  0  0  0  0  0  0  0
    2.3116   -1.3828    1.2356 N   0  0  0  0  0  0  0  0  0  0  0  0
    3.1681   -1.1503    2.3048 C   0  0  1  0  0  0  0  0  0  0  0  0
    4.3987   -0.3549    2.0241 C   0  0  0  0  0  0  0  0  0  0  0  0
    4.2013    0.9682    1.3811 C   0  0  0  0  0  0  0  0  0  0  0  0
    5.4358    1.8509    1.4274 C   0  0  0  0  0  0  0  0  0  0  0  0
    6.1739    1.5181    2.5166 O   0  0  0  0  0  0  0  0  0  0  0  0
    5.7473    2.7612    0.6036 N   0  0  0  0  0  0  0  0  0  0  0  0
    6.1044    3.8011   -0.3365 C   0  0  0  0  0  0  0  0  0  0  0  0
    7.2661    4.5746   -0.1227 N   0  0  0  0  0  0  0  0  0  0  0  0
    5.4133    4.0571   -1.3690 N   0  0  0  0  0  0  0  0  0  0  0  0
    2.4748   -0.7375    3.5631 C   0  0  0  0  0  0  0  0  0  0  0  0
    3.1978    0.0844    4.4140 O   0  0  0  0  0  0  0  0  0  0  0  0
    1.3204   -1.0680    3.8886 O   0  0  0  0  0  0  0  0  0  0  0  0
   -4.0090   -1.1460    0.7072 H   0  0  0  0  0  0  0  0  0  0  0  0
   -2.8584   -2.2705   -0.0486 H   0  0  0  0  0  0  0  0  0  0  0  0
   -4.6109   -2.5163   -0.3196 H   0  0  0  0  0  0  0  0  0  0  0  0
   -2.7937    0.6261   -0.3163 H   0  0  0  0  0  0  0  0  0  0  0  0
   -3.2209    1.0161   -1.9620 H   0  0  0  0  0  0  0  0  0  0  0  0
   -4.5501    2.2384   -0.3056 H   0  0  0  0  0  0  0  0  0  0  0  0
   -5.0327    0.7203    0.5232 H   0  0  0  0  0  0  0  0  0  0  0  0
   -6.8321    1.8309   -0.8101 H   0  0  0  0  0  0  0  0  0  0  0  0
   -5.9302    1.5774   -2.3290 H   0  0  0  0  0  0  0  0  0  0  0  0
   -6.2741   -0.9682   -1.9626 H   0  0  0  0  0  0  0  0  0  0  0  0
   -7.7216    0.0695   -2.0411 H   0  0  0  0  0  0  0  0  0  0  0  0
   -8.1920   -0.9660   -0.1676 H   0  0  0  0  0  0  0  0  0  0  0  0
   -7.1379    0.2613    0.4775 H   0  0  0  0  0  0  0  0  0  0  0  0
   -2.8033   -0.6349   -3.2265 H   0  0  0  0  0  0  0  0  0  0  0  0
   -3.1832   -2.3276   -2.7619 H   0  0  0  0  0  0  0  0  0  0  0  0
   -0.8803    0.5254   -1.6382 H   0  0  0  0  0  0  0  0  0  0  0  0
    1.1928    0.0898   -0.6321 H   0  0  0  0  0  0  0  0  0  0  0  0
    0.5879   -4.1099   -0.8767 H   0  0  0  0  0  0  0  0  0  0  0  0
   -1.6342   -3.6636   -1.9580 H   0  0  0  0  0  0  0  0  0  0  0  0
    1.4276   -0.7010    1.2926 H   0  0  0  0  0  0  0  0  0  0  0  0
    3.6235   -2.1933    2.5877 H   0  0  0  0  0  0  0  0  0  0  0  0
    4.9994   -1.0175    1.2930 H   0  0  0  0  0  0  0  0  0  0  0  0
    5.0589   -0.2958    2.9131 H   0  0  0  0  0  0  0  0  0  0  0  0
    4.1178    0.7652    0.2519 H   0  0  0  0  0  0  0  0  0  0  0  0
    3.3389    1.5455    1.6601 H   0  0  0  0  0  0  0  0  0  0  0  0
    6.8201    3.1350    1.3889 H   0  0  0  0  0  0  0  0  0  0  0  0
    7.6480    5.2094   -0.8190 H   0  0  0  0  0  0  0  0  0  0  0  0
    7.7467    4.4685    0.8251 H   0  0  0  0  0  0  0  0  0  0  0  0
    4.5711    3.5615   -1.6174 H   0  0  0  0  0  0  0  0  0  0  0  0
    4.1333    0.0097    4.7050 H   0  0  0  0  0  0  0  0  0  0  0  0
  1  2  1  0
  2  3  1  0
  3  4  1  0
  4  5  1  0
  5  6  1  0
  6  7  1  0
  2  8  1  0
  8  9  1  0
  9 10  2  0
 10 11  1  0
 11 12  2  0
 12 13  1  0
 13 14  2  0
 12 15  1  0
 15 16  2  0
 15 17  1  0
 17 18  1  0
 18 19  1  0
 19 20  1  0
 20 21  1  0
 21 22  2  0
 21 23  1  0
 23 24  1  0
 24 25  1  0
 24 26  2  3
 18 27  1  0
 27 28  1  0
 27 29  2  0
 14  9  1  0
  1 30  1  0
  1 31  1  0
  1 32  1  0
  3 33  1  0
  3 34  1  0
  4 35  1  0
  4 36  1  0
  5 37  1  0
  5 38  1  0
  6 39  1  0
  6 40  1  0
  7 41  1  0
  7 42  1  0
  8 43  1  0
  8 44  1  0
 10 45  1  0
 11 46  1  0
 13 47  1  0
 14 48  1  0
 17 49  1  0
 18 50  1  1
 19 51  1  0
 19 52  1  0
 20 53  1  0
 20 54  1  0
 23 55  1  0
 25 56  1  0
 25 57  1  0
 26 58  1  0
 28 59  1  0
M  END
$$$$
[H]O[C@]1([H])[C@@]([H])(C([H])([H])OS(=O)(=O)N([H])C(=O)[C@@]([H])(N([H])[H])C([H])([H])C([H])(C([H])([H])[H])C([H])([H])[H])O[C@@]([H])(n2c([H])nc3c(N([H])[H])nc([H])nc32)[C@]1([H])O[H]
     RDKit          3D

 56 58  0  0  0  0  0  0  0  0999 V2000
   -7.6282    1.2650    1.5023 C   0  0  0  0  0  0  0  0  0  0  0  0
   -7.1072    0.3956    0.3697 C   0  0  0  0  0  0  0  0  0  0  0  0
   -7.8314    0.7583   -0.8779 C   0  0  0  0  0  0  0  0  0  0  0  0
   -5.6094    0.4616    0.2946 C   0  0  0  0  0  0  0  0  0  0  0  0
   -5.0199   -0.3450   -0.7972 C   0  0  2  0  0  0  0  0  0  0  0  0
   -5.2972   -1.7599   -0.7414 N   0  0  0  0  0  0  0  0  0  0  0  0
   -3.5413   -0.1884   -0.8015 C   0  0  0  0  0  0  0  0  0  0  0  0
   -2.9707    0.3462    0.1773 O   0  0  0  0  0  0  0  0  0  0  0  0
   -2.8011   -0.6481   -1.9173 N   0  0  0  0  0  0  0  0  0  0  0  0
   -1.0869   -0.5332   -2.0472 S   0  0  0  0  0  0  0  0  0  0  0  0
   -0.6821    0.3788   -3.1727 O   0  0  0  0  0  0  0  0  0  0  0  0
   -0.4884   -1.8934   -2.3857 O   0  0  0  0  0  0  0  0  0  0  0  0
   -0.4706   -0.0589   -0.5853 O   0  0  0  0  0  0  0  0  0  0  0  0
    0.8204   -0.5460   -0.3675 C   0  0  0  0  0  0  0  0  0  0  0  0
    1.3903   -0.1175    0.9655 C   0  0  1  0  0  0  0  0  0  0  0  0
    2.6573   -0.6600    1.0791 O   0  0  0  0  0  0  0  0  0  0  0  0
    3.6042    0.3343    0.9274 C   0  0  2  0  0  0  0  0  0  0  0  0
    2.8841    1.5149    0.2814 C   0  0  2  0  0  0  0  0  0  0  0  0
    3.5099    2.7168    0.4862 O   0  0  0  0  0  0  0  0  0  0  0  0
    1.5660    1.3904    1.0662 C   0  0  2  0  0  0  0  0  0  0  0  0
    1.7910    1.7486    2.3746 O   0  0  0  0  0  0  0  0  0  0  0  0
    4.7731   -0.0793    0.2182 N   0  0  0  0  0  0  0  0  0  0  0  0
    4.8612   -0.5380   -1.0273 C   0  0  0  0  0  0  0  0  0  0  0  0
    6.1604   -0.8229   -1.3209 N   0  0  0  0  0  0  0  0  0  0  0  0
    6.9259   -0.5392   -0.2361 C   0  0  0  0  0  0  0  0  0  0  0  0
    8.2755   -0.6319    0.0219 C   0  0  0  0  0  0  0  0  0  0  0  0
    9.1877   -1.1155   -0.9500 N   0  0  0  0  0  0  0  0  0  0  0  0
    8.7088   -0.2513    1.2458 N   0  0  0  0  0  0  0  0  0  0  0  0
    7.8648    0.2015    2.1809 C   0  0  0  0  0  0  0  0  0  0  0  0
    6.5532    0.2838    1.9110 N   0  0  0  0  0  0  0  0  0  0  0  0
    6.0355   -0.0727    0.7213 C   0  0  0  0  0  0  0  0  0  0  0  0
   -7.1132    2.2725    1.4659 H   0  0  0  0  0  0  0  0  0  0  0  0
   -8.7153    1.5302    1.3328 H   0  0  0  0  0  0  0  0  0  0  0  0
   -7.5670    0.7909    2.4830 H   0  0  0  0  0  0  0  0  0  0  0  0
   -7.3655   -0.6567    0.6834 H   0  0  0  0  0  0  0  0  0  0  0  0
   -7.3933    0.3540   -1.8089 H   0  0  0  0  0  0  0  0  0  0  0  0
   -7.9813    1.8612   -0.9165 H   0  0  0  0  0  0  0  0  0  0  0  0
   -8.8544    0.2844   -0.8090 H   0  0  0  0  0  0  0  0  0  0  0  0
   -5.3188    1.5277    0.1669 H   0  0  0  0  0  0  0  0  0  0  0  0
   -5.2102    0.1661    1.2839 H   0  0  0  0  0  0  0  0  0  0  0  0
   -5.3544    0.0928   -1.7732 H   0  0  0  0  0  0  0  0  0  0  0  0
   -5.0631   -2.2914   -1.5835 H   0  0  0  0  0  0  0  0  0  0  0  0
   -5.0668   -2.1950    0.1662 H   0  0  0  0  0  0  0  0  0  0  0  0
   -3.3120   -1.0765   -2.7150 H   0  0  0  0  0  0  0  0  0  0  0  0
    0.6986   -1.6649   -0.2978 H   0  0  0  0  0  0  0  0  0  0  0  0
    1.4989   -0.3645   -1.2175 H   0  0  0  0  0  0  0  0  0  0  0  0
    0.6865   -0.4215    1.7533 H   0  0  0  0  0  0  0  0  0  0  0  0
    3.8887    0.7166    1.9527 H   0  0  0  0  0  0  0  0  0  0  0  0
    2.7347    1.2346   -0.7829 H   0  0  0  0  0  0  0  0  0  0  0  0
    3.8480    3.0665   -0.3897 H   0  0  0  0  0  0  0  0  0  0  0  0
    0.7598    1.9658    0.6255 H   0  0  0  0  0  0  0  0  0  0  0  0
    1.8704    0.9316    2.9290 H   0  0  0  0  0  0  0  0  0  0  0  0
    4.0147   -0.6576   -1.6834 H   0  0  0  0  0  0  0  0  0  0  0  0
    9.8021   -0.4687   -1.4673 H   0  0  0  0  0  0  0  0  0  0  0  0
    9.2208   -2.1545   -1.1307 H   0  0  0  0  0  0  0  0  0  0  0  0
    8.2569    0.4889    3.1375 H   0  0  0  0  0  0  0  0  0  0  0  0
  1  2  1  0
  2  3  1  0
  2  4  1  0
  4  5  1  0
  5  6  1  0
  5  7  1  0
  7  8  2  0
  7  9  1  0
  9 10  1  0
 10 11  2  0
 10 12  2  0
 10 13  1  0
 13 14  1  0
 14 15  1  0
 15 16  1  0
 16 17  1  0
 17 18  1  0
 18 19  1  0
 18 20  1  0
 20 21  1  0
 17 22  1  0
 22 23  1  0
 23 24  2  0
 24 25  1  0
 25 26  2  0
 26 27  1  0
 26 28  1  0
 28 29  2  0
 29 30  1  0
 30 31  2  0
 20 15  1  0
 31 22  1  0
 31 25  1  0
  1 32  1  0
  1 33  1  0
  1 34  1  0
  2 35  1  0
  3 36  1  0
  3 37  1  0
  3 38  1  0
  4 39  1  0
  4 40  1  0
  5 41  1  6
  6 42  1  0
  6 43  1  0
  9 44  1  0
 14 45  1  0
 14 46  1  0
 15 47  1  1
 17 48  1  1
 18 49  1  6
 19 50  1  0
 20 51  1  6
 21 52  1  0
 23 53  1  0
 27 54  1  0
 27 55  1  0
 29 56  1  0
M  END
$$$$
[H]Oc1c([H])c([H])c(-c2c([H])c(C3=C(c4c(N5C([H])([H])C([H])([H])N([H])C([H])([H])C5([H])[H])c([H])c([H])c5c4c([H])nn5[H])C(=O)N([H])C3=O)c(C([H])([H])[H])c([H])c2O[H])c(C([H])([H])[H])c1[H]
     RDKit          3D

 65 70  0  0  0  0  0  0  0  0999 V2000
   -2.0822    2.7253    0.0018 C   0  0  0  0  0  0  0  0  0  0  0  0
   -3.4111    2.2876   -0.4545 C   0  0  0  0  0  0  0  0  0  0  0  0
   -4.4677    3.1808   -0.4006 C   0  0  0  0  0  0  0  0  0  0  0  0
   -5.7227    2.8221   -0.8216 C   0  0  0  0  0  0  0  0  0  0  0  0
   -6.7971    3.7096   -0.7741 O   0  0  0  0  0  0  0  0  0  0  0  0
   -5.9420    1.5498   -1.3082 C   0  0  0  0  0  0  0  0  0  0  0  0
   -4.8929    0.6638   -1.3612 C   0  0  0  0  0  0  0  0  0  0  0  0
   -3.6078    1.0220   -0.9334 C   0  0  0  0  0  0  0  0  0  0  0  0
   -2.5653    0.0097   -1.0092 C   0  0  0  0  0  0  0  0  0  0  0  0
   -1.7526   -0.3645    0.0125 C   0  0  0  0  0  0  0  0  0  0  0  0
   -0.7777   -1.3785   -0.0628 C   0  0  0  0  0  0  0  0  0  0  0  0
   -0.0523   -1.6608    1.1433 C   0  0  0  0  0  0  0  0  0  0  0  0
    1.2114   -1.7610    1.3811 C   0  0  0  0  0  0  0  0  0  0  0  0
    1.3472   -2.0795    2.8447 C   0  0  0  0  0  0  0  0  0  0  0  0
    2.4038   -2.2577    3.4983 O   0  0  0  0  0  0  0  0  0  0  0  0
    0.0714   -2.1583    3.4381 N   0  0  0  0  0  0  0  0  0  0  0  0
   -0.8433   -1.8999    2.3972 C   0  0  0  0  0  0  0  0  0  0  0  0
   -2.1064   -1.8726    2.4947 O   0  0  0  0  0  0  0  0  0  0  0  0
    2.4329   -1.5939    0.6351 C   0  0  0  0  0  0  0  0  0  0  0  0
    2.7659   -0.4530   -0.0050 C   0  0  0  0  0  0  0  0  0  0  0  0
    3.9763   -0.3319   -0.7344 C   0  0  0  0  0  0  0  0  0  0  0  0
    4.8488   -1.3884   -0.8046 C   0  0  0  0  0  0  0  0  0  0  0  0
    4.5305   -2.5736   -0.1539 C   0  0  0  0  0  0  0  0  0  0  0  0
    5.1664   -3.7368   -0.0605 N   0  0  0  0  0  0  0  0  0  0  0  0
    4.4340   -4.5653    0.6715 N   0  0  0  0  0  0  0  0  0  0  0  0
    3.3061   -3.9322    1.0598 C   0  0  0  0  0  0  0  0  0  0  0  0
    3.3532   -2.6663    0.5445 C   0  0  0  0  0  0  0  0  0  0  0  0
    1.9942    0.7194    0.0268 N   0  0  0  0  0  0  0  0  0  0  0  0
    1.5773    1.4271    1.1989 C   0  0  0  0  0  0  0  0  0  0  0  0
    2.0042    2.8752    1.1926 C   0  0  0  0  0  0  0  0  0  0  0  0
    2.4197    3.3522   -0.0811 N   0  0  0  0  0  0  0  0  0  0  0  0
    1.8279    2.7704   -1.2195 C   0  0  0  0  0  0  0  0  0  0  0  0
    1.6145    1.3151   -1.2568 C   0  0  0  0  0  0  0  0  0  0  0  0
   -0.6310   -2.0393   -1.2415 C   0  0  0  0  0  0  0  0  0  0  0  0
    0.3077   -3.1729   -1.4813 C   0  0  0  0  0  0  0  0  0  0  0  0
   -1.4625   -1.6619   -2.3066 C   0  0  0  0  0  0  0  0  0  0  0  0
   -2.4064   -0.6686   -2.2093 C   0  0  0  0  0  0  0  0  0  0  0  0
   -3.2076   -0.3293   -3.2978 O   0  0  0  0  0  0  0  0  0  0  0  0
   -2.0353    2.5407    1.1122 H   0  0  0  0  0  0  0  0  0  0  0  0
   -1.2958    2.1946   -0.5273 H   0  0  0  0  0  0  0  0  0  0  0  0
   -1.9761    3.8465   -0.0894 H   0  0  0  0  0  0  0  0  0  0  0  0
   -4.2778    4.1759   -0.0157 H   0  0  0  0  0  0  0  0  0  0  0  0
   -7.0115    4.3215   -1.5647 H   0  0  0  0  0  0  0  0  0  0  0  0
   -6.9060    1.2063   -1.6549 H   0  0  0  0  0  0  0  0  0  0  0  0
   -5.0436   -0.3365   -1.7299 H   0  0  0  0  0  0  0  0  0  0  0  0
   -1.8794    0.1701    0.9589 H   0  0  0  0  0  0  0  0  0  0  0  0
   -0.1732   -2.3671    4.4534 H   0  0  0  0  0  0  0  0  0  0  0  0
    4.2275    0.5932   -1.2447 H   0  0  0  0  0  0  0  0  0  0  0  0
    5.7713   -1.2726   -1.3694 H   0  0  0  0  0  0  0  0  0  0  0  0
    6.0867   -3.9477   -0.4956 H   0  0  0  0  0  0  0  0  0  0  0  0
    2.5490   -4.4080    1.6589 H   0  0  0  0  0  0  0  0  0  0  0  0
    0.4759    1.4296    1.2396 H   0  0  0  0  0  0  0  0  0  0  0  0
    1.9386    0.9014    2.1215 H   0  0  0  0  0  0  0  0  0  0  0  0
    1.2290    3.5575    1.5998 H   0  0  0  0  0  0  0  0  0  0  0  0
    2.8720    2.9474    1.8853 H   0  0  0  0  0  0  0  0  0  0  0  0
    3.3808    3.6918   -0.1608 H   0  0  0  0  0  0  0  0  0  0  0  0
    0.8419    3.2880   -1.4237 H   0  0  0  0  0  0  0  0  0  0  0  0
    2.4487    3.0778   -2.1113 H   0  0  0  0  0  0  0  0  0  0  0  0
    0.5682    1.0642   -1.5192 H   0  0  0  0  0  0  0  0  0  0  0  0
    2.2456    0.8734   -2.0817 H   0  0  0  0  0  0  0  0  0  0  0  0
    0.5285   -3.7414   -0.5764 H   0  0  0  0  0  0  0  0  0  0  0  0
   -0.1961   -3.8718   -2.2154 H   0  0  0  0  0  0  0  0  0  0  0  0
    1.2360   -2.8375   -1.9596 H   0  0  0  0  0  0  0  0  0  0  0  0
   -1.3273   -2.2051   -3.2497 H   0  0  0  0  0  0  0  0  0  0  0  0
   -3.1427   -0.7761   -4.1812 H   0  0  0  0  0  0  0  0  0  0  0  0
  1  2  1  0
  2  3  2  0
  3  4  1  0
  4  5  1  0
  4  6  2  0
  6  7  1  0
  7  8  2  0
  8  9  1  0
  9 10  2  0
 10 11  1  0
 11 12  1  0
 12 13  2  0
 13 14  1  0
 14 15  2  0
 14 16  1  0
 16 17  1  0
 17 18  2  0
 13 19  1  0
 19 20  1  0
 20 21  2  0
 21 22  1  0
 22 23  2  0
 23 24  1  0
 24 25  1  0
 25 26  2  0
 26 27  1  0
 20 28  1  0
 28 29  1  0
 29 30  1  0
 30 31  1  0
 31 32  1  0
 32 33  1  0
 11 34  2  0
 34 35  1  0
 34 36  1  0
 36 37  2  0
 37 38  1  0
  8  2  1  0
 37  9  1  0
 17 12  1  0
 27 19  2  0
 33 28  1  0
 27 23  1  0
  1 39  1  0
  1 40  1  0
  1 41  1  0
  3 42  1  0
  5 43  1  0
  6 44  1  0
  7 45  1  0
 10 46  1  0
 16 47  1  0
 21 48  1  0
 22 49  1  0
 24 50  1  0
 26 51  1  0
 29 52  1  0
 29 53  1  0
 30 54  1  0
 30 55  1  0
 31 56  1  0
 32 57  1  0
 32 58  1  0
 33 59  1  0
 33 60  1  0
 35 61  1  0
 35 62  1  0
 35 63  1  0
 36 64  1  0
 38 65  1  0
M  END
$$$$
[H]OC(=O)c1c([H])c(N([H])C([H])([H])C([H])([H])C([H])=C([H])[H])c(=O)n([C@]([H])(C(=O)N([H])c2nn(C([H])([H])[H])c([H])c2[H])C([H])([H])C2([H])C([H])([H])C([H])([H])C2([H])[H])c1[H]
     RDKit          3D

 57 59  0  0  0  0  0  0  0  0999 V2000
   -6.6790   -3.0396   -1.7852 C   0  0  0  0  0  0  0  0  0  0  0  0
   -5.2661   -3.1962   -1.4548 N   0  0  0  0  0  0  0  0  0  0  0  0
   -4.5316   -4.2913   -1.7725 C   0  0  0  0  0  0  0  0  0  0  0  0
   -3.2383   -4.1256   -1.3208 C   0  0  0  0  0  0  0  0  0  0  0  0
   -3.2233   -2.8857   -0.7177 C   0  0  0  0  0  0  0  0  0  0  0  0
   -2.1389   -2.2207   -0.0849 N   0  0  0  0  0  0  0  0  0  0  0  0
   -2.2967   -0.9360    0.4902 C   0  0  0  0  0  0  0  0  0  0  0  0
   -3.4095   -0.3634    0.4469 O   0  0  0  0  0  0  0  0  0  0  0  0
   -1.1669   -0.2427    1.1498 C   0  0  2  0  0  0  0  0  0  0  0  0
   -1.6006    1.0883    1.6681 C   0  0  0  0  0  0  0  0  0  0  0  0
   -0.5567    1.8925    2.3584 C   0  0  0  0  0  0  0  0  0  0  0  0
   -1.1870    3.2159    2.8226 C   0  0  0  0  0  0  0  0  0  0  0  0
    0.0385    3.9736    2.3584 C   0  0  0  0  0  0  0  0  0  0  0  0
    0.3472    2.7431    1.4926 C   0  0  0  0  0  0  0  0  0  0  0  0
   -0.0569   -0.2069    0.2546 N   0  0  0  0  0  0  0  0  0  0  0  0
   -0.2576    0.0728   -1.0367 C   0  0  0  0  0  0  0  0  0  0  0  0
    0.7989    0.1101   -1.9207 C   0  0  0  0  0  0  0  0  0  0  0  0
    2.0885   -0.1455   -1.4675 C   0  0  0  0  0  0  0  0  0  0  0  0
    2.3082   -0.4332   -0.1442 C   0  0  0  0  0  0  0  0  0  0  0  0
    3.6061   -0.7309    0.3988 N   0  0  0  0  0  0  0  0  0  0  0  0
    4.8072   -0.6151   -0.3546 C   0  0  0  0  0  0  0  0  0  0  0  0
    5.2331    0.7470   -0.7552 C   0  0  0  0  0  0  0  0  0  0  0  0
    5.5191    1.6860    0.3619 C   0  0  0  0  0  0  0  0  0  0  0  0
    5.4861    1.4147    1.6376 C   0  0  0  0  0  0  0  0  0  0  0  0
    1.1876   -0.4512    0.6824 C   0  0  0  0  0  0  0  0  0  0  0  0
    1.4123   -0.7223    1.9146 O   0  0  0  0  0  0  0  0  0  0  0  0
    0.6046    0.4142   -3.3410 C   0  0  0  0  0  0  0  0  0  0  0  0
   -0.6669    0.6731   -3.8237 O   0  0  0  0  0  0  0  0  0  0  0  0
    1.5834    0.4380   -4.1050 O   0  0  0  0  0  0  0  0  0  0  0  0
   -4.4662   -2.3732   -0.8274 N   0  0  0  0  0  0  0  0  0  0  0  0
   -6.8336   -1.9616   -1.9791 H   0  0  0  0  0  0  0  0  0  0  0  0
   -7.2661   -3.3221   -0.8854 H   0  0  0  0  0  0  0  0  0  0  0  0
   -6.9653   -3.6584   -2.6523 H   0  0  0  0  0  0  0  0  0  0  0  0
   -4.9040   -5.1576   -2.2979 H   0  0  0  0  0  0  0  0  0  0  0  0
   -2.3812   -4.7808   -1.3909 H   0  0  0  0  0  0  0  0  0  0  0  0
   -1.2244   -2.7201   -0.0633 H   0  0  0  0  0  0  0  0  0  0  0  0
   -0.9189   -0.8668    2.0602 H   0  0  0  0  0  0  0  0  0  0  0  0
   -2.4758    1.0183    2.3460 H   0  0  0  0  0  0  0  0  0  0  0  0
   -1.9737    1.7106    0.8017 H   0  0  0  0  0  0  0  0  0  0  0  0
   -0.0759    1.4121    3.2211 H   0  0  0  0  0  0  0  0  0  0  0  0
   -1.4032    3.2555    3.8920 H   0  0  0  0  0  0  0  0  0  0  0  0
   -2.0648    3.5244    2.2240 H   0  0  0  0  0  0  0  0  0  0  0  0
    0.7725    4.1674    3.1500 H   0  0  0  0  0  0  0  0  0  0  0  0
   -0.1606    4.8410    1.6996 H   0  0  0  0  0  0  0  0  0  0  0  0
   -0.0745    2.8209    0.4730 H   0  0  0  0  0  0  0  0  0  0  0  0
    1.4247    2.5532    1.5677 H   0  0  0  0  0  0  0  0  0  0  0  0
   -1.2437    0.2810   -1.4488 H   0  0  0  0  0  0  0  0  0  0  0  0
    2.9151   -0.1290   -2.1672 H   0  0  0  0  0  0  0  0  0  0  0  0
    3.6587   -1.0617    1.4045 H   0  0  0  0  0  0  0  0  0  0  0  0
    5.6527   -1.0772    0.2202 H   0  0  0  0  0  0  0  0  0  0  0  0
    4.7701   -1.2284   -1.3081 H   0  0  0  0  0  0  0  0  0  0  0  0
    6.2391    0.6155   -1.2747 H   0  0  0  0  0  0  0  0  0  0  0  0
    4.6232    1.2694   -1.4944 H   0  0  0  0  0  0  0  0  0  0  0  0
    5.7877    2.7239    0.0703 H   0  0  0  0  0  0  0  0  0  0  0  0
    5.2521    0.4832    2.1106 H   0  0  0  0  0  0  0  0  0  0  0  0
    5.7265    2.2335    2.3427 H   0  0  0  0  0  0  0  0  0  0  0  0
   -1.1356    1.5637   -3.7464 H   0  0  0  0  0  0  0  0  0  0  0  0
  1  2  1  0
  2  3  1  0
  3  4  2  0
  4  5  1  0
  5  6  1  0
  6  7  1  0
  7  8  2  0
  7  9  1  0
  9 10  1  0
 10 11  1  0
 11 12  1  0
 12 13  1  0
 13 14  1  0
  9 15  1  0
 15 16  1  0
 16 17  2  0
 17 18  1  0
 18 19  2  0
 19 20  1  0
 20 21  1  0
 21 22  1  0
 22 23  1  0
 23 24  2  3
 19 25  1  0
 25 26  2  0
 17 27  1  0
 27 28  1  0
 27 29  2  0
  5 30  2  0
 30  2  1  0
 14 11  1  0
 25 15  1  0
  1 31  1  0
  1 32  1  0
  1 33  1  0
  3 34  1  0
  4 35  1  0
  6 36  1  0
  9 37  1  1
 10 38  1  0
 10 39  1  0
 11 40  1  0
 12 41  1  0
 12 42  1  0
 13 43  1  0
 13 44  1  0
 14 45  1  0
 14 46  1  0
 16 47  1  0
 18 48  1  0
 20 49  1  0
 21 50  1  0
 21 51  1  0
 22 52  1  0
 22 53  1  0
 23 54  1  0
 24 55  1  0
 24 56  1  0
 28 57  1  0
M  END
$$$$
[H]c1nc2c([H])c(-c3c([H])c(C(=O)N([H])[H])c(=O)n(C4([H])C([H])([H])C([H])([H])OC([H])([H])C4([H])[H])c3[H])nc(N3C([H])([H])C([H])([H])OC([H])([H])[C@@]3([H])C([H])([H])[H])c2nc1-c1c([H])nc([H])c(S([H])(=O)=O)c1[H]
     RDKit          3D

 71 76  0  0  0  0  0  0  0  0999 V2000
   -2.0140   -2.0107   -1.4966 C   0  0  0  0  0  0  0  0  0  0  0  0
   -1.9337   -2.3431   -0.0349 C   0  0  2  0  0  0  0  0  0  0  0  0
   -3.2953   -2.7161    0.4692 C   0  0  0  0  0  0  0  0  0  0  0  0
   -3.5384   -2.2963    1.7550 O   0  0  0  0  0  0  0  0  0  0  0  0
   -2.4450   -2.4220    2.5856 C   0  0  0  0  0  0  0  0  0  0  0  0
   -1.3138   -1.5026    2.2047 C   0  0  0  0  0  0  0  0  0  0  0  0
   -1.3797   -1.2748    0.7740 N   0  0  0  0  0  0  0  0  0  0  0  0
   -0.8955   -0.0440    0.2099 C   0  0  0  0  0  0  0  0  0  0  0  0
    0.4584    0.1497    0.1272 N   0  0  0  0  0  0  0  0  0  0  0  0
    0.9904    1.2563   -0.4161 C   0  0  0  0  0  0  0  0  0  0  0  0
    0.0902    2.1760   -0.8806 C   0  0  0  0  0  0  0  0  0  0  0  0
   -1.2670    2.0358   -0.8237 C   0  0  0  0  0  0  0  0  0  0  0  0
   -2.1287    2.9565   -1.2767 N   0  0  0  0  0  0  0  0  0  0  0  0
   -3.4810    2.8199   -1.2087 C   0  0  0  0  0  0  0  0  0  0  0  0
   -3.9804    1.6717   -0.6427 C   0  0  0  0  0  0  0  0  0  0  0  0
   -3.1314    0.7034   -0.1673 N   0  0  0  0  0  0  0  0  0  0  0  0
   -1.7985    0.8776   -0.2545 C   0  0  0  0  0  0  0  0  0  0  0  0
   -5.4185    1.4964   -0.5293 C   0  0  0  0  0  0  0  0  0  0  0  0
   -6.3369    2.3669   -1.0265 C   0  0  0  0  0  0  0  0  0  0  0  0
   -7.6851    2.1622   -0.8807 N   0  0  0  0  0  0  0  0  0  0  0  0
   -8.1811    1.0975   -0.2430 C   0  0  0  0  0  0  0  0  0  0  0  0
   -7.2958    0.1828    0.2809 C   0  0  0  0  0  0  0  0  0  0  0  0
   -5.9417    0.3837    0.1376 C   0  0  0  0  0  0  0  0  0  0  0  0
   -7.9436   -1.2186    1.1200 S   0  0  0  0  0  0  0  0  0  0  0  0
   -7.2274   -2.4803    0.6744 O   0  0  0  0  0  0  0  0  0  0  0  0
   -9.3872   -1.4052    0.7572 O   0  0  0  0  0  0  0  0  0  0  0  0
    2.4560    1.4334   -0.4901 C   0  0  0  0  0  0  0  0  0  0  0  0
    3.0356    2.5542   -1.0387 C   0  0  0  0  0  0  0  0  0  0  0  0
    4.4238    2.6790   -1.0886 C   0  0  0  0  0  0  0  0  0  0  0  0
    5.0733    3.8441   -1.6585 C   0  0  0  0  0  0  0  0  0  0  0  0
    4.3401    4.9269   -2.1990 N   0  0  0  0  0  0  0  0  0  0  0  0
    6.3218    3.8947   -1.6735 O   0  0  0  0  0  0  0  0  0  0  0  0
    5.1764    1.6353   -0.5668 C   0  0  0  0  0  0  0  0  0  0  0  0
    6.3994    1.7599   -0.6176 O   0  0  0  0  0  0  0  0  0  0  0  0
    4.6375    0.5456   -0.0333 N   0  0  0  0  0  0  0  0  0  0  0  0
    3.2998    0.4524    0.0015 C   0  0  0  0  0  0  0  0  0  0  0  0
    5.3987   -0.5131    0.4945 C   0  0  0  0  0  0  0  0  0  0  0  0
    6.8674   -0.4932    0.3408 C   0  0  0  0  0  0  0  0  0  0  0  0
    7.3643   -1.8458    0.8982 C   0  0  0  0  0  0  0  0  0  0  0  0
    6.4471   -2.3717    1.8073 O   0  0  0  0  0  0  0  0  0  0  0  0
    5.3123   -2.8718    1.1257 C   0  0  0  0  0  0  0  0  0  0  0  0
    4.9426   -1.8871    0.0284 C   0  0  0  0  0  0  0  0  0  0  0  0
   -1.2928   -1.2330   -1.8057 H   0  0  0  0  0  0  0  0  0  0  0  0
   -1.7018   -2.9260   -2.0663 H   0  0  0  0  0  0  0  0  0  0  0  0
   -3.0525   -1.8199   -1.8418 H   0  0  0  0  0  0  0  0  0  0  0  0
   -1.2664   -3.2624    0.0492 H   0  0  0  0  0  0  0  0  0  0  0  0
   -4.0444   -2.2277   -0.2087 H   0  0  0  0  0  0  0  0  0  0  0  0
   -3.4906   -3.8179    0.3408 H   0  0  0  0  0  0  0  0  0  0  0  0
   -2.0924   -3.4876    2.6648 H   0  0  0  0  0  0  0  0  0  0  0  0
   -2.7796   -2.1631    3.6223 H   0  0  0  0  0  0  0  0  0  0  0  0
   -0.3663   -2.0501    2.4571 H   0  0  0  0  0  0  0  0  0  0  0  0
   -1.4055   -0.5634    2.7813 H   0  0  0  0  0  0  0  0  0  0  0  0
    0.4667    3.0898   -1.3305 H   0  0  0  0  0  0  0  0  0  0  0  0
   -4.1247    3.6054   -1.5933 H   0  0  0  0  0  0  0  0  0  0  0  0
   -5.9946    3.2517   -1.5585 H   0  0  0  0  0  0  0  0  0  0  0  0
   -9.2683    0.9439   -0.1323 H   0  0  0  0  0  0  0  0  0  0  0  0
   -5.2481   -0.3113    0.5426 H   0  0  0  0  0  0  0  0  0  0  0  0
   -7.8312   -1.0535    2.4798 H   0  0  0  0  0  0  0  0  0  0  0  0
    2.4333    3.3596   -1.4415 H   0  0  0  0  0  0  0  0  0  0  0  0
    4.6712    5.4898   -3.0226 H   0  0  0  0  0  0  0  0  0  0  0  0
    3.4042    5.2415   -1.8052 H   0  0  0  0  0  0  0  0  0  0  0  0
    2.7871   -0.4205    0.4303 H   0  0  0  0  0  0  0  0  0  0  0  0
    5.2093   -0.5195    1.6135 H   0  0  0  0  0  0  0  0  0  0  0  0
    7.2501   -0.5108   -0.6996 H   0  0  0  0  0  0  0  0  0  0  0  0
    7.4024    0.2457    0.9985 H   0  0  0  0  0  0  0  0  0  0  0  0
    7.4887   -2.5941    0.1066 H   0  0  0  0  0  0  0  0  0  0  0  0
    8.3286   -1.7510    1.4180 H   0  0  0  0  0  0  0  0  0  0  0  0
    5.4972   -3.8815    0.7139 H   0  0  0  0  0  0  0  0  0  0  0  0
    4.4968   -2.8832    1.8792 H   0  0  0  0  0  0  0  0  0  0  0  0
    3.9103   -1.9467   -0.2893 H   0  0  0  0  0  0  0  0  0  0  0  0
    5.5979   -2.1695   -0.8471 H   0  0  0  0  0  0  0  0  0  0  0  0
  1  2  1  0
  2  3  1  0
  3  4  1  0
  4  5  1  0
  5  6  1  0
  6  7  1  0
  7  8  1  0
  8  9  2  0
  9 10  1  0
 10 11  2  0
 11 12  1  0
 12 13  2  0
 13 14  1  0
 14 15  2  0
 15 16  1  0
 16 17  2  0
 15 18  1  0
 18 19  2  0
 19 20  1  0
 20 21  2  0
 21 22  1  0
 22 23  2  0
 22 24  1  0
 24 25  2  0
 24 26  2  0
 10 27  1  0
 27 28  1  0
 28 29  2  0
 29 30  1  0
 30 31  1  0
 30 32  2  0
 29 33  1  0
 33 34  2  0
 33 35  1  0
 35 36  1  0
 35 37  1  0
 37 38  1  0
 38 39  1  0
 39 40  1  0
 40 41  1  0
 41 42  1  0
  7  2  1  0
 17  8  1  0
 23 18  1  0
 36 27  2  0
 42 37  1  0
 17 12  1  0
  1 43  1  0
  1 44  1  0
  1 45  1  0
  2 46  1  6
  3 47  1  0
  3 48  1  0
  5 49  1  0
  5 50  1  0
  6 51  1  0
  6 52  1  0
 11 53  1  0
 14 54  1  0
 19 55  1  0
 21 56  1  0
 23 57  1  0
 24 58  1  0
 28 59  1  0
 31 60  1  0
 31 61  1  0
 36 62  1  0
 37 63  1  0
 38 64  1  0
 38 65  1  0
 39 66  1  0
 39 67  1  0
 41 68  1  0
 41 69  1  0
 42 70  1  0
 42 71  1  0
M  END
$$$$
[H]OC([H])([H])C([H])([H])F.[H]c1c([H])c([H])c([C@@]2([H])C([H])([H])S[C@@]2([H])C([H])([H])Oc2c([H])c([H])c([N+]([H])(C([H])([H])[H])C3([H])C([H])([H])C([H])([H])C([H])([H])C3([H])[H])c([H])c2[H])c([H])c1[H]
     RDKit          3D

 62 64  0  0  0  0  0  0  0  0999 V2000
   -1.2638    0.8727   -0.1819 O   0  0  0  0  0  0  0  0  0  0  0  0
   -0.6527   -0.3676   -0.0084 C   0  0  0  0  0  0  0  0  0  0  0  0
    0.8502   -0.1252   -0.0199 C   0  0  0  0  0  0  0  0  0  0  0  0
    1.2459    0.4379   -1.2196 F   0  0  0  0  0  0  0  0  0  0  0  0
   -4.0177   -0.5289   -1.7001 C   0  0  0  0  0  0  0  0  0  0  0  0
   -3.4308    0.4556   -0.8502 N   0  0  0  0  0  0  0  0  0  0  0  0
   -4.1706    0.7537    0.3320 C   0  0  0  0  0  0  0  0  0  0  0  0
   -4.7051    2.1872    0.3153 C   0  0  0  0  0  0  0  0  0  0  0  0
   -5.8599    2.0758    1.3011 C   0  0  0  0  0  0  0  0  0  0  0  0
   -6.5275    0.8100    0.8081 C   0  0  0  0  0  0  0  0  0  0  0  0
   -5.3194   -0.1226    0.6509 C   0  0  0  0  0  0  0  0  0  0  0  0
   -2.0969    0.0834   -0.5251 C   0  0  0  0  0  0  0  0  0  0  0  0
   -1.3298    0.8966    0.2993 C   0  0  0  0  0  0  0  0  0  0  0  0
   -0.0434    0.5943    0.6463 C   0  0  0  0  0  0  0  0  0  0  0  0
    0.5743   -0.5744    0.1767 C   0  0  0  0  0  0  0  0  0  0  0  0
    1.8526   -0.7984    0.5718 O   0  0  0  0  0  0  0  0  0  0  0  0
    2.7549   -1.8073    0.2937 C   0  0  0  0  0  0  0  0  0  0  0  0
    3.1527   -1.9044   -1.1342 C   0  0  2  0  0  0  0  0  0  0  0  0
    4.3580   -3.2762   -1.3830 S   0  0  0  0  0  0  0  0  0  0  0  0
    5.0359   -1.9327   -2.4194 C   0  0  0  0  0  0  0  0  0  0  0  0
    4.2079   -0.9372   -1.6351 C   0  0  2  0  0  0  0  0  0  0  0  0
    4.9167   -0.1298   -0.6496 C   0  0  0  0  0  0  0  0  0  0  0  0
    5.8519   -0.6892    0.1920 C   0  0  0  0  0  0  0  0  0  0  0  0
    6.5412    0.0430    1.1357 C   0  0  0  0  0  0  0  0  0  0  0  0
    6.3138    1.3967    1.2751 C   0  0  0  0  0  0  0  0  0  0  0  0
    5.3820    1.9698    0.4410 C   0  0  0  0  0  0  0  0  0  0  0  0
    4.6902    1.2452   -0.5033 C   0  0  0  0  0  0  0  0  0  0  0  0
   -0.1898   -1.3739   -0.6371 C   0  0  0  0  0  0  0  0  0  0  0  0
   -1.5089   -1.0639   -0.9933 C   0  0  0  0  0  0  0  0  0  0  0  0
   -0.6970    1.5228    0.3338 H   0  0  0  0  0  0  0  0  0  0  0  0
   -0.9721   -0.8089    0.9525 H   0  0  0  0  0  0  0  0  0  0  0  0
   -0.9754   -1.0456   -0.8052 H   0  0  0  0  0  0  0  0  0  0  0  0
    1.0558    0.5757    0.8045 H   0  0  0  0  0  0  0  0  0  0  0  0
    1.4092   -1.0618    0.1441 H   0  0  0  0  0  0  0  0  0  0  0  0
   -5.0223   -0.2084   -2.0739 H   0  0  0  0  0  0  0  0  0  0  0  0
   -3.3942   -0.5733   -2.6344 H   0  0  0  0  0  0  0  0  0  0  0  0
   -4.0286   -1.5259   -1.2637 H   0  0  0  0  0  0  0  0  0  0  0  0
   -3.4073    1.3517   -1.4325 H   0  0  0  0  0  0  0  0  0  0  0  0
   -3.4713    0.7308    1.2191 H   0  0  0  0  0  0  0  0  0  0  0  0
   -5.1508    2.4408   -0.6676 H   0  0  0  0  0  0  0  0  0  0  0  0
   -3.9580    2.9130    0.6353 H   0  0  0  0  0  0  0  0  0  0  0  0
   -5.3929    1.8913    2.2977 H   0  0  0  0  0  0  0  0  0  0  0  0
   -6.5105    2.9504    1.2879 H   0  0  0  0  0  0  0  0  0  0  0  0
   -7.2641    0.4036    1.5126 H   0  0  0  0  0  0  0  0  0  0  0  0
   -6.9547    1.0450   -0.1912 H   0  0  0  0  0  0  0  0  0  0  0  0
   -5.5351   -0.9357   -0.0433 H   0  0  0  0  0  0  0  0  0  0  0  0
   -5.2228   -0.6117    1.6654 H   0  0  0  0  0  0  0  0  0  0  0  0
   -1.8350    1.8065    0.6543 H   0  0  0  0  0  0  0  0  0  0  0  0
    0.5087    1.2567    1.2875 H   0  0  0  0  0  0  0  0  0  0  0  0
    3.6087   -1.7698    1.0021 H   0  0  0  0  0  0  0  0  0  0  0  0
    2.2232   -2.7806    0.5791 H   0  0  0  0  0  0  0  0  0  0  0  0
    2.3224   -2.0660   -1.8363 H   0  0  0  0  0  0  0  0  0  0  0  0
    6.1146   -1.8783   -2.2898 H   0  0  0  0  0  0  0  0  0  0  0  0
    4.7716   -2.0168   -3.4932 H   0  0  0  0  0  0  0  0  0  0  0  0
    3.6885   -0.2563   -2.3672 H   0  0  0  0  0  0  0  0  0  0  0  0
    6.0536   -1.7592    0.1054 H   0  0  0  0  0  0  0  0  0  0  0  0
    7.2757   -0.4143    1.7917 H   0  0  0  0  0  0  0  0  0  0  0  0
    6.8624    1.9707    2.0237 H   0  0  0  0  0  0  0  0  0  0  0  0
    5.1898    3.0239    0.5333 H   0  0  0  0  0  0  0  0  0  0  0  0
    3.9512    1.6745   -1.1720 H   0  0  0  0  0  0  0  0  0  0  0  0
    0.2091   -2.2934   -1.0212 H   0  0  0  0  0  0  0  0  0  0  0  0
   -2.0641   -1.7420   -1.6470 H   0  0  0  0  0  0  0  0  0  0  0  0
  1  2  1  0
  2  3  1  0
  3  4  1  0
  5  6  1  0
  6  7  1  0
  7  8  1  0
  8  9  1  0
  9 10  1  0
 10 11  1  0
  6 12  1  0
 12 13  2  0
 13 14  1  0
 14 15  2  0
 15 16  1  0
 16 17  1  0
 17 18  1  0
 18 19  1  0
 19 20  1  0
 20 21  1  0
 21 22  1  0
 22 23  2  0
 23 24  1  0
 24 25  2  0
 25 26  1  0
 26 27  2  0
 15 28  1  0
 28 29  2  0
 11  7  1  0
 29 12  1  0
 21 18  1  0
 27 22  1  0
  1 30  1  0
  2 31  1  0
  2 32  1  0
  3 33  1  0
  3 34  1  0
  5 35  1  0
  5 36  1  0
  5 37  1  0
  6 38  1  0
  7 39  1  0
  8 40  1  0
  8 41  1  0
  9 42  1  0
  9 43  1  0
 10 44  1  0
 10 45  1  0
 11 46  1  0
 11 47  1  0
 13 48  1  0
 14 49  1  0
 17 50  1  0
 17 51  1  0
 18 52  1  6
 20 53  1  0
 20 54  1  0
 21 55  1  6
 23 56  1  0
 24 57  1  0
 25 58  1  0
 26 59  1  0
 27 60  1  0
 28 61  1  0
 29 62  1  0
M  CHG  1   6   1
M  END
$$$$
[H]OC(=O)c1c([H])c([H])c(-c2nn(-c3nc([H])c(Br)c([H])n3)c(-c3c([H])c([H])c(OC([H])([H])[H])c([H])c3[H])c2[H])c([H])c1[H]
     RDKit          3D

 44 47  0  0  0  0  0  0  0  0999 V2000
   -6.4495   -2.5389   -0.5072 C   0  0  0  0  0  0  0  0  0  0  0  0
   -6.0048   -1.2104   -0.5457 O   0  0  0  0  0  0  0  0  0  0  0  0
   -4.6567   -0.8583   -0.4378 C   0  0  0  0  0  0  0  0  0  0  0  0
   -4.3081    0.4664   -0.4853 C   0  0  0  0  0  0  0  0  0  0  0  0
   -2.9831    0.8574   -0.3820 C   0  0  0  0  0  0  0  0  0  0  0  0
   -1.9954   -0.0644   -0.2301 C   0  0  0  0  0  0  0  0  0  0  0  0
   -2.4023   -1.3977   -0.1880 C   0  0  0  0  0  0  0  0  0  0  0  0
   -3.6920   -1.8288   -0.2858 C   0  0  0  0  0  0  0  0  0  0  0  0
   -0.5767    0.1883   -0.0752 C   0  0  0  0  0  0  0  0  0  0  0  0
    0.4109   -0.8132   -0.0341 C   0  0  0  0  0  0  0  0  0  0  0  0
    1.6379   -0.2208    0.1480 C   0  0  0  0  0  0  0  0  0  0  0  0
    1.3852    1.0850    0.2125 N   0  0  0  0  0  0  0  0  0  0  0  0
    0.0603    1.3212    0.0787 N   0  0  0  0  0  0  0  0  0  0  0  0
   -0.3936    2.6748    0.1414 C   0  0  0  0  0  0  0  0  0  0  0  0
   -0.8296    3.2196    1.2870 N   0  0  0  0  0  0  0  0  0  0  0  0
   -1.2117    4.4986    1.3147 C   0  0  0  0  0  0  0  0  0  0  0  0
   -1.1788    5.3098    0.1902 C   0  0  0  0  0  0  0  0  0  0  0  0
   -1.7158    7.1184    0.2157 Br  0  0  0  0  0  0  0  0  0  0  0  0
   -0.7299    4.7467   -0.9864 C   0  0  0  0  0  0  0  0  0  0  0  0
   -0.3625    3.4641   -0.9485 N   0  0  0  0  0  0  0  0  0  0  0  0
    2.9479   -0.8744    0.2504 C   0  0  0  0  0  0  0  0  0  0  0  0
    4.0591   -0.1132    0.4314 C   0  0  0  0  0  0  0  0  0  0  0  0
    5.3160   -0.6691    0.5347 C   0  0  0  0  0  0  0  0  0  0  0  0
    5.4304   -2.0325    0.4503 C   0  0  0  0  0  0  0  0  0  0  0  0
    4.3050   -2.8022    0.2671 C   0  0  0  0  0  0  0  0  0  0  0  0
    3.0372   -2.2300    0.1637 C   0  0  0  0  0  0  0  0  0  0  0  0
    6.7581   -2.6220    0.5593 C   0  0  0  0  0  0  0  0  0  0  0  0
    7.8871   -1.8395    0.7439 O   0  0  0  0  0  0  0  0  0  0  0  0
    6.8757   -3.8729    0.4832 O   0  0  0  0  0  0  0  0  0  0  0  0
   -5.9539   -3.0273    0.3685 H   0  0  0  0  0  0  0  0  0  0  0  0
   -7.5465   -2.5323   -0.2776 H   0  0  0  0  0  0  0  0  0  0  0  0
   -6.2368   -3.0828   -1.4507 H   0  0  0  0  0  0  0  0  0  0  0  0
   -5.0957    1.2352   -0.6079 H   0  0  0  0  0  0  0  0  0  0  0  0
   -2.7655    1.9036   -0.4388 H   0  0  0  0  0  0  0  0  0  0  0  0
   -1.6610   -2.2014   -0.0649 H   0  0  0  0  0  0  0  0  0  0  0  0
   -3.9532   -2.8754   -0.2463 H   0  0  0  0  0  0  0  0  0  0  0  0
    0.2594   -1.8917   -0.1307 H   0  0  0  0  0  0  0  0  0  0  0  0
   -1.5730    4.9816    2.2251 H   0  0  0  0  0  0  0  0  0  0  0  0
   -0.6930    5.3553   -1.8802 H   0  0  0  0  0  0  0  0  0  0  0  0
    3.9458    0.9536    0.4947 H   0  0  0  0  0  0  0  0  0  0  0  0
    6.1458    0.0041    0.6773 H   0  0  0  0  0  0  0  0  0  0  0  0
    4.4025   -3.8831    0.2010 H   0  0  0  0  0  0  0  0  0  0  0  0
    2.1538   -2.8294    0.0203 H   0  0  0  0  0  0  0  0  0  0  0  0
    7.9510   -1.0719    1.3811 H   0  0  0  0  0  0  0  0  0  0  0  0
  1  2  1  0
  2  3  1  0
  3  4  2  0
  4  5  1  0
  5  6  2  0
  6  7  1  0
  7  8  2  0
  6  9  1  0
  9 10  2  0
 10 11  1  0
 11 12  2  0
 12 13  1  0
 13 14  1  0
 14 15  2  0
 15 16  1  0
 16 17  2  0
 17 18  1  0
 17 19  1  0
 19 20  2  0
 11 21  1  0
 21 22  2  0
 22 23  1  0
 23 24  2  0
 24 25  1  0
 25 26  2  0
 24 27  1  0
 27 28  1  0
 27 29  2  0
  8  3  1  0
 13  9  1  0
 20 14  1  0
 26 21  1  0
  1 30  1  0
  1 31  1  0
  1 32  1  0
  4 33  1  0
  5 34  1  0
  7 35  1  0
  8 36  1  0
 10 37  1  0
 16 38  1  0
 19 39  1  0
 22 40  1  0
 23 41  1  0
 25 42  1  0
 26 43  1  0
 28 44  1  0
M  END
$$$$
[H]Oc1c([H])c([H])c(C([H])([H])[C@@]([H])(C(=O)N([H])[C@@]([H])(C(=O)N([H])C([H])([H])C(=O)N([H])[C@]([H])(c2nc(C([H])([H])N3C([H])([H])C([H])([H])C([H])([H])C3([H])C(=O)[O-])c([H])s2)C([H])([H])c2c([H])c([H])c([H])c([H])c2[H])C([H])([H])[H])N([H])[H])c([H])c1[H]
     RDKit          3D

 81 84  0  0  0  0  0  0  0  0999 V2000
    3.7513   -2.7208    0.3231 C   0  0  0  0  0  0  0  0  0  0  0  0
    3.7624   -1.1918    0.1548 C   0  0  1  0  0  0  0  0  0  0  0  0
    5.0734   -0.7347   -0.1973 N   0  0  0  0  0  0  0  0  0  0  0  0
    5.8821   -0.0383    0.7330 C   0  0  0  0  0  0  0  0  0  0  0  0
    5.4413    0.1795    1.8751 O   0  0  0  0  0  0  0  0  0  0  0  0
    7.1994    0.3914    0.3162 C   0  0  1  0  0  0  0  0  0  0  0  0
    7.4274    0.1403   -1.1281 N   0  0  0  0  0  0  0  0  0  0  0  0
    7.7097    1.7085    0.7280 C   0  0  0  0  0  0  0  0  0  0  0  0
    6.9267    2.8928    0.3158 C   0  0  0  0  0  0  0  0  0  0  0  0
    7.0724    3.4839   -0.9188 C   0  0  0  0  0  0  0  0  0  0  0  0
    6.3243    4.6018   -1.1990 C   0  0  0  0  0  0  0  0  0  0  0  0
    5.4337    5.1669   -0.3122 C   0  0  0  0  0  0  0  0  0  0  0  0
    4.7057    6.3152   -0.6738 O   0  0  0  0  0  0  0  0  0  0  0  0
    5.2922    4.5668    0.9259 C   0  0  0  0  0  0  0  0  0  0  0  0
    6.0464    3.4351    1.2164 C   0  0  0  0  0  0  0  0  0  0  0  0
    2.8288   -0.9079   -0.9480 C   0  0  0  0  0  0  0  0  0  0  0  0
    3.2209   -0.2593   -1.9440 O   0  0  0  0  0  0  0  0  0  0  0  0
    1.4966   -1.3708   -0.8972 N   0  0  0  0  0  0  0  0  0  0  0  0
    0.6290   -1.0978   -2.0035 C   0  0  0  0  0  0  0  0  0  0  0  0
   -0.6945   -1.6691   -1.8425 C   0  0  0  0  0  0  0  0  0  0  0  0
   -1.5199   -1.5691   -2.8083 O   0  0  0  0  0  0  0  0  0  0  0  0
   -1.1427   -2.3403   -0.6727 N   0  0  0  0  0  0  0  0  0  0  0  0
   -2.5006   -2.9104   -0.6729 C   0  0  1  0  0  0  0  0  0  0  0  0
   -2.5479   -4.0177    0.3209 C   0  0  0  0  0  0  0  0  0  0  0  0
   -3.8557   -4.6835    0.4102 C   0  0  0  0  0  0  0  0  0  0  0  0
   -4.7981   -4.2608    1.2893 C   0  0  0  0  0  0  0  0  0  0  0  0
   -6.0601   -4.8614    1.3979 C   0  0  0  0  0  0  0  0  0  0  0  0
   -6.2942   -5.9239    0.5482 C   0  0  0  0  0  0  0  0  0  0  0  0
   -5.3559   -6.3659   -0.3474 C   0  0  0  0  0  0  0  0  0  0  0  0
   -4.1019   -5.7407   -0.4289 C   0  0  0  0  0  0  0  0  0  0  0  0
   -3.5089   -1.8361   -0.3996 C   0  0  0  0  0  0  0  0  0  0  0  0
   -3.5023   -0.7669    0.3442 N   0  0  0  0  0  0  0  0  0  0  0  0
   -4.5453    0.0150    0.4023 C   0  0  0  0  0  0  0  0  0  0  0  0
   -4.5994    1.2854    1.2272 C   0  0  0  0  0  0  0  0  0  0  0  0
   -3.8250    2.3246    0.5895 N   0  0  0  0  0  0  0  0  0  0  0  0
   -4.2278    2.5252   -0.7956 C   0  0  0  0  0  0  0  0  0  0  0  0
   -5.5265    3.2565   -0.7599 C   0  0  0  0  0  0  0  0  0  0  0  0
   -5.5463    3.8942    0.5990 C   0  0  0  0  0  0  0  0  0  0  0  0
   -4.1549    3.6451    1.1287 C   0  0  0  0  0  0  0  0  0  0  0  0
   -4.1081    3.7215    2.5857 C   0  0  0  0  0  0  0  0  0  0  0  0
   -5.2557    3.7085    3.3375 O   0  0  0  0  0  0  0  0  0  0  0  0
   -2.9944    3.7979    3.1691 O   0  0  0  0  0  0  0  0  0  0  0  0
   -5.6388   -0.3482   -0.3551 C   0  0  0  0  0  0  0  0  0  0  0  0
   -5.0936   -1.7802   -1.0952 S   0  0  0  0  0  0  0  0  0  0  0  0
    2.7642   -3.0444    0.7080 H   0  0  0  0  0  0  0  0  0  0  0  0
    4.5279   -3.0571    1.0187 H   0  0  0  0  0  0  0  0  0  0  0  0
    3.9161   -3.1486   -0.6794 H   0  0  0  0  0  0  0  0  0  0  0  0
    3.3810   -0.7925    1.1168 H   0  0  0  0  0  0  0  0  0  0  0  0
    5.3987   -0.9435   -1.1793 H   0  0  0  0  0  0  0  0  0  0  0  0
    7.9228   -0.3708    0.7830 H   0  0  0  0  0  0  0  0  0  0  0  0
    7.4217   -0.8974   -1.3162 H   0  0  0  0  0  0  0  0  0  0  0  0
    8.3551    0.5597   -1.3917 H   0  0  0  0  0  0  0  0  0  0  0  0
    7.8094    1.7375    1.8447 H   0  0  0  0  0  0  0  0  0  0  0  0
    8.7635    1.7930    0.3536 H   0  0  0  0  0  0  0  0  0  0  0  0
    7.7750    3.0194   -1.6108 H   0  0  0  0  0  0  0  0  0  0  0  0
    6.4428    5.0674   -2.1767 H   0  0  0  0  0  0  0  0  0  0  0  0
    3.8133    6.1675   -1.1164 H   0  0  0  0  0  0  0  0  0  0  0  0
    4.6140    4.9797    1.6394 H   0  0  0  0  0  0  0  0  0  0  0  0
    5.8994    2.9999    2.2193 H   0  0  0  0  0  0  0  0  0  0  0  0
    1.1853   -1.8884   -0.0769 H   0  0  0  0  0  0  0  0  0  0  0  0
    0.4649    0.0443   -1.9551 H   0  0  0  0  0  0  0  0  0  0  0  0
    1.0951   -1.3212   -2.9999 H   0  0  0  0  0  0  0  0  0  0  0  0
   -0.6014   -2.4713    0.1898 H   0  0  0  0  0  0  0  0  0  0  0  0
   -2.6972   -3.2986   -1.7230 H   0  0  0  0  0  0  0  0  0  0  0  0
   -1.7829   -4.7767   -0.0245 H   0  0  0  0  0  0  0  0  0  0  0  0
   -2.1749   -3.6880    1.3148 H   0  0  0  0  0  0  0  0  0  0  0  0
   -4.6061   -3.4407    1.9446 H   0  0  0  0  0  0  0  0  0  0  0  0
   -6.8186   -4.5598    2.0736 H   0  0  0  0  0  0  0  0  0  0  0  0
   -7.2617   -6.4482    0.5756 H   0  0  0  0  0  0  0  0  0  0  0  0
   -5.5491   -7.2006   -1.0072 H   0  0  0  0  0  0  0  0  0  0  0  0
   -3.3682   -6.0755   -1.1187 H   0  0  0  0  0  0  0  0  0  0  0  0
   -5.6303    1.6263    1.3448 H   0  0  0  0  0  0  0  0  0  0  0  0
   -4.1734    1.1201    2.2328 H   0  0  0  0  0  0  0  0  0  0  0  0
   -4.1882    1.6239   -1.3996 H   0  0  0  0  0  0  0  0  0  0  0  0
   -3.4617    3.2394   -1.2278 H   0  0  0  0  0  0  0  0  0  0  0  0
   -5.5855    4.0807   -1.5189 H   0  0  0  0  0  0  0  0  0  0  0  0
   -6.4229    2.6321   -0.9639 H   0  0  0  0  0  0  0  0  0  0  0  0
   -6.3308    3.4917    1.2793 H   0  0  0  0  0  0  0  0  0  0  0  0
   -5.6433    5.0174    0.5188 H   0  0  0  0  0  0  0  0  0  0  0  0
   -3.4738    4.3789    0.6422 H   0  0  0  0  0  0  0  0  0  0  0  0
   -6.6052    0.1840   -0.4335 H   0  0  0  0  0  0  0  0  0  0  0  0
  1  2  1  0
  2  3  1  0
  3  4  1  0
  4  5  2  0
  4  6  1  0
  6  7  1  0
  6  8  1  0
  8  9  1  0
  9 10  2  0
 10 11  1  0
 11 12  2  0
 12 13  1  0
 12 14  1  0
 14 15  2  0
  2 16  1  0
 16 17  2  0
 16 18  1  0
 18 19  1  0
 19 20  1  0
 20 21  2  0
 20 22  1  0
 22 23  1  0
 23 24  1  0
 24 25  1  0
 25 26  2  0
 26 27  1  0
 27 28  2  0
 28 29  1  0
 29 30  2  0
 23 31  1  0
 31 32  2  0
 32 33  1  0
 33 34  1  0
 34 35  1  0
 35 36  1  0
 36 37  1  0
 37 38  1  0
 38 39  1  0
 39 40  1  0
 40 41  1  0
 40 42  2  0
 33 43  2  0
 43 44  1  0
 15  9  1  0
 30 25  1  0
 44 31  1  0
 39 35  1  0
  1 45  1  0
  1 46  1  0
  1 47  1  0
  2 48  1  1
  3 49  1  0
  6 50  1  1
  7 51  1  0
  7 52  1  0
  8 53  1  0
  8 54  1  0
 10 55  1  0
 11 56  1  0
 13 57  1  0
 14 58  1  0
 15 59  1  0
 18 60  1  0
 19 61  1  0
 19 62  1  0
 22 63  1  0
 23 64  1  6
 24 65  1  0
 24 66  1  0
 26 67  1  0
 27 68  1  0
 28 69  1  0
 29 70  1  0
 30 71  1  0
 34 72  1  0
 34 73  1  0
 36 74  1  0
 36 75  1  0
 37 76  1  0
 37 77  1  0
 38 78  1  0
 38 79  1  0
 39 80  1  0
 43 81  1  0
M  CHG  1  41  -1
M  END
$$$$
[H]OC(c1c([H])nc(N2C([H])([H])C([H])([H])N(S(=O)(=O)c3c([H])nc(N([H])[H])c([H])c3[H])C([H])([H])C2([H])[H])c(-c2c([H])nn(C(C([H])([H])[H])(C([H])([H])[H])C([H])([H])[H])c2[H])c1[H])(C(F)(F)F)C(F)(F)F
     RDKit          3D

 68 71  0  0  0  0  0  0  0  0999 V2000
   -3.2313   -3.5915    1.1354 C   0  0  0  0  0  0  0  0  0  0  0  0
   -3.7844   -3.1790   -0.2340 C   0  0  0  0  0  0  0  0  0  0  0  0
   -3.5006   -4.3571   -1.1562 C   0  0  0  0  0  0  0  0  0  0  0  0
   -5.2627   -2.9585   -0.0696 C   0  0  0  0  0  0  0  0  0  0  0  0
   -3.0708   -1.9871   -0.6552 N   0  0  0  0  0  0  0  0  0  0  0  0
   -2.8706   -0.8777    0.0707 C   0  0  0  0  0  0  0  0  0  0  0  0
   -2.1330    0.0321   -0.6464 C   0  0  0  0  0  0  0  0  0  0  0  0
   -1.8933   -0.5736   -1.8482 C   0  0  0  0  0  0  0  0  0  0  0  0
   -2.4705   -1.8000   -1.8332 N   0  0  0  0  0  0  0  0  0  0  0  0
   -1.7343    1.3365   -0.1825 C   0  0  0  0  0  0  0  0  0  0  0  0
   -2.7309    2.2528    0.2477 C   0  0  0  0  0  0  0  0  0  0  0  0
   -2.4039    3.5057    0.6771 C   0  0  0  0  0  0  0  0  0  0  0  0
   -1.0337    3.8272    0.6677 C   0  0  0  0  0  0  0  0  0  0  0  0
   -0.1061    2.9497    0.2599 N   0  0  0  0  0  0  0  0  0  0  0  0
   -0.4148    1.6867   -0.1740 C   0  0  0  0  0  0  0  0  0  0  0  0
    0.6111    0.7860   -0.5415 N   0  0  0  0  0  0  0  0  0  0  0  0
    0.8809   -0.3384    0.2961 C   0  0  0  0  0  0  0  0  0  0  0  0
    2.3406   -0.7514    0.2596 C   0  0  0  0  0  0  0  0  0  0  0  0
    2.9029   -0.5427   -1.0366 N   0  0  0  0  0  0  0  0  0  0  0  0
    2.8482    0.7737   -1.5394 C   0  0  0  0  0  0  0  0  0  0  0  0
    1.3503    1.0718   -1.7663 C   0  0  0  0  0  0  0  0  0  0  0  0
    4.0713   -1.6130   -1.5246 S   0  0  0  0  0  0  0  0  0  0  0  0
    4.4990   -1.3492   -2.9701 O   0  0  0  0  0  0  0  0  0  0  0  0
    3.4934   -3.0281   -1.5508 O   0  0  0  0  0  0  0  0  0  0  0  0
    5.5029   -1.6705   -0.5714 C   0  0  0  0  0  0  0  0  0  0  0  0
    6.6978   -1.1661   -1.0604 C   0  0  0  0  0  0  0  0  0  0  0  0
    7.8607   -1.1852   -0.2872 C   0  0  0  0  0  0  0  0  0  0  0  0
    7.8439   -1.7119    1.0016 C   0  0  0  0  0  0  0  0  0  0  0  0
    9.0253   -1.7324    1.8047 N   0  0  0  0  0  0  0  0  0  0  0  0
    6.6691   -2.1903    1.4451 N   0  0  0  0  0  0  0  0  0  0  0  0
    5.5227   -2.1827    0.7053 C   0  0  0  0  0  0  0  0  0  0  0  0
   -3.3895    4.4931    1.1644 C   0  0  0  0  0  0  0  0  0  0  0  0
   -2.8964    5.1524    2.3035 O   0  0  0  0  0  0  0  0  0  0  0  0
   -3.6349    5.6113    0.1338 C   0  0  0  0  0  0  0  0  0  0  0  0
   -2.4156    6.2270   -0.0885 F   0  0  0  0  0  0  0  0  0  0  0  0
   -4.0980    5.1356   -1.0541 F   0  0  0  0  0  0  0  0  0  0  0  0
   -4.5235    6.4995    0.7341 F   0  0  0  0  0  0  0  0  0  0  0  0
   -4.7158    3.8831    1.5679 C   0  0  0  0  0  0  0  0  0  0  0  0
   -4.5874    2.9383    2.5418 F   0  0  0  0  0  0  0  0  0  0  0  0
   -5.4950    3.4674    0.5221 F   0  0  0  0  0  0  0  0  0  0  0  0
   -5.4985    4.9027    2.1775 F   0  0  0  0  0  0  0  0  0  0  0  0
   -2.1395   -3.4003    1.2070 H   0  0  0  0  0  0  0  0  0  0  0  0
   -3.8330   -2.9845    1.8631 H   0  0  0  0  0  0  0  0  0  0  0  0
   -3.5054   -4.6467    1.3585 H   0  0  0  0  0  0  0  0  0  0  0  0
   -2.4001   -4.4269   -1.2317 H   0  0  0  0  0  0  0  0  0  0  0  0
   -3.8447   -5.2750   -0.6180 H   0  0  0  0  0  0  0  0  0  0  0  0
   -3.9837   -4.2790   -2.1378 H   0  0  0  0  0  0  0  0  0  0  0  0
   -5.6521   -3.4198    0.8659 H   0  0  0  0  0  0  0  0  0  0  0  0
   -5.8374   -3.4685   -0.8960 H   0  0  0  0  0  0  0  0  0  0  0  0
   -5.4765   -1.8702   -0.0270 H   0  0  0  0  0  0  0  0  0  0  0  0
   -3.2328   -0.7079    1.0709 H   0  0  0  0  0  0  0  0  0  0  0  0
   -1.3441   -0.1809   -2.7157 H   0  0  0  0  0  0  0  0  0  0  0  0
   -3.7465    1.8950    0.2159 H   0  0  0  0  0  0  0  0  0  0  0  0
   -0.7926    4.8224    1.0158 H   0  0  0  0  0  0  0  0  0  0  0  0
    0.5988   -0.0560    1.3494 H   0  0  0  0  0  0  0  0  0  0  0  0
    0.3151   -1.2513    0.0839 H   0  0  0  0  0  0  0  0  0  0  0  0
    2.4420   -1.8243    0.5271 H   0  0  0  0  0  0  0  0  0  0  0  0
    2.8642   -0.1738    1.0399 H   0  0  0  0  0  0  0  0  0  0  0  0
    3.3709    0.8641   -2.4924 H   0  0  0  0  0  0  0  0  0  0  0  0
    3.2083    1.5267   -0.7876 H   0  0  0  0  0  0  0  0  0  0  0  0
    0.9775    0.4517   -2.5901 H   0  0  0  0  0  0  0  0  0  0  0  0
    1.2920    2.1308   -2.0483 H   0  0  0  0  0  0  0  0  0  0  0  0
    6.7551   -0.7449   -2.0768 H   0  0  0  0  0  0  0  0  0  0  0  0
    8.8153   -0.7965   -0.6639 H   0  0  0  0  0  0  0  0  0  0  0  0
    9.8234   -2.3751    1.6697 H   0  0  0  0  0  0  0  0  0  0  0  0
    9.0761   -1.0392    2.5896 H   0  0  0  0  0  0  0  0  0  0  0  0
    4.6041   -2.5837    1.1039 H   0  0  0  0  0  0  0  0  0  0  0  0
   -2.5787    6.0675    2.0838 H   0  0  0  0  0  0  0  0  0  0  0  0
  1  2  1  0
  2  3  1  0
  2  4  1  0
  2  5  1  0
  5  6  1  0
  6  7  2  0
  7  8  1  0
  8  9  2  0
  7 10  1  0
 10 11  2  0
 11 12  1  0
 12 13  2  0
 13 14  1  0
 14 15  2  0
 15 16  1  0
 16 17  1  0
 17 18  1  0
 18 19  1  0
 19 20  1  0
 20 21  1  0
 19 22  1  0
 22 23  2  0
 22 24  2  0
 22 25  1  0
 25 26  2  0
 26 27  1  0
 27 28  2  0
 28 29  1  0
 28 30  1  0
 30 31  2  0
 12 32  1  0
 32 33  1  0
 32 34  1  0
 34 35  1  0
 34 36  1  0
 34 37  1  0
 32 38  1  0
 38 39  1  0
 38 40  1  0
 38 41  1  0
  9  5  1  0
 15 10  1  0
 21 16  1  0
 31 25  1  0
  1 42  1  0
  1 43  1  0
  1 44  1  0
  3 45  1  0
  3 46  1  0
  3 47  1  0
  4 48  1  0
  4 49  1  0
  4 50  1  0
  6 51  1  0
  8 52  1  0
 11 53  1  0
 13 54  1  0
 17 55  1  0
 17 56  1  0
 18 57  1  0
 18 58  1  0
 20 59  1  0
 20 60  1  0
 21 61  1  0
 21 62  1  0
 26 63  1  0
 27 64  1  0
 29 65  1  0
 29 66  1  0
 31 67  1  0
 33 68  1  0
M  END
$$$$
[H]OC(=O)[C@@]1([H])O[C@@]2([H])C([H])([H])[C@@]2([H])OB1[C@@]([H])(N([H])C(=O)[C@@]([H])(N([H])C(=O)[C@@]([H])(N([H])C(=O)N1C([H])([H])C([H])([H])C([H])(C(=O)[C@]2(C([H])([H])[H])OC2([H])[H])C([H])([H])C1([H])[H])C([H])([H])O[H])C([H])([H])C([H])(C([H])([H])[H])C([H])([H])[H])C([H])([H])C([H])(C([H])([H])[H])C([H])([H])[H]
     RDKit          3D

 91 94  0  0  0  0  0  0  0  0999 V2000
   -6.2637   -1.2514    4.5082 C   0  0  0  0  0  0  0  0  0  0  0  0
   -5.8052   -0.5330    3.2099 C   0  0  0  0  0  0  0  0  0  0  0  0
   -4.8528    0.5105    3.7287 C   0  0  0  0  0  0  0  0  0  0  0  0
   -5.2430   -1.5289    2.2806 C   0  0  0  0  0  0  0  0  0  0  0  0
   -4.7447   -1.1278    0.9565 C   0  0  2  0  0  0  0  0  0  0  0  0
   -3.6708   -0.2138    0.8507 N   0  0  0  0  0  0  0  0  0  0  0  0
   -2.4869   -0.3121    0.0698 C   0  0  0  0  0  0  0  0  0  0  0  0
   -2.3802   -1.3308   -0.6238 O   0  0  0  0  0  0  0  0  0  0  0  0
   -1.3943    0.6711    0.0130 C   0  0  2  0  0  0  0  0  0  0  0  0
   -1.7300    2.0934   -0.0412 C   0  0  0  0  0  0  0  0  0  0  0  0
   -2.4953    2.7089   -1.1126 C   0  0  0  0  0  0  0  0  0  0  0  0
   -1.9094    2.6018   -2.5016 C   0  0  0  0  0  0  0  0  0  0  0  0
   -3.9840    2.4825   -1.1377 C   0  0  0  0  0  0  0  0  0  0  0  0
   -0.3913    0.2794   -0.9640 N   0  0  0  0  0  0  0  0  0  0  0  0
    0.9338   -0.0813   -0.6652 C   0  0  0  0  0  0  0  0  0  0  0  0
    1.3709   -0.1088    0.5009 O   0  0  0  0  0  0  0  0  0  0  0  0
    1.8650   -0.4433   -1.7811 C   0  0  2  0  0  0  0  0  0  0  0  0
    1.2467   -1.5690   -2.5523 C   0  0  0  0  0  0  0  0  0  0  0  0
    1.2150   -2.7442   -1.7796 O   0  0  0  0  0  0  0  0  0  0  0  0
    3.2034   -0.7042   -1.3734 N   0  0  0  0  0  0  0  0  0  0  0  0
    4.2064    0.2495   -1.0979 C   0  0  0  0  0  0  0  0  0  0  0  0
    3.8247    1.4703   -1.2093 O   0  0  0  0  0  0  0  0  0  0  0  0
    5.5390    0.0226   -0.7272 N   0  0  0  0  0  0  0  0  0  0  0  0
    6.4377    1.1151   -0.4262 C   0  0  0  0  0  0  0  0  0  0  0  0
    7.1203    0.9342    0.9114 C   0  0  0  0  0  0  0  0  0  0  0  0
    7.7301   -0.4508    1.0275 C   0  0  0  0  0  0  0  0  0  0  0  0
    6.7697   -1.5205    0.6285 C   0  0  0  0  0  0  0  0  0  0  0  0
    6.0754   -1.3105   -0.6746 C   0  0  0  0  0  0  0  0  0  0  0  0
    9.0494   -0.5371    0.3820 C   0  0  0  0  0  0  0  0  0  0  0  0
    9.1412   -1.2888   -0.6083 O   0  0  0  0  0  0  0  0  0  0  0  0
   10.2798    0.1601    0.7669 C   0  0  1  0  0  0  0  0  0  0  0  0
   10.3131    1.0548    2.0010 C   0  0  0  0  0  0  0  0  0  0  0  0
   11.6015   -0.4026    0.3119 C   0  0  0  0  0  0  0  0  0  0  0  0
   11.0567    0.6990   -0.3184 O   0  0  0  0  0  0  0  0  0  0  0  0
   -5.9350   -0.8224   -0.0751 B   0  0  0  0  0  0  0  0  0  0  0  0
   -7.0905   -0.0863    0.3685 O   0  0  0  0  0  0  0  0  0  0  0  0
   -7.5082    0.9175   -0.4619 C   0  0  2  0  0  0  0  0  0  0  0  0
   -8.7085    0.8335   -1.3093 C   0  0  0  0  0  0  0  0  0  0  0  0
   -7.3156    0.6034   -1.8752 C   0  0  2  0  0  0  0  0  0  0  0  0
   -7.0653   -0.7233   -2.1990 O   0  0  0  0  0  0  0  0  0  0  0  0
   -5.8888   -1.1939   -1.6023 C   0  0  2  0  0  0  0  0  0  0  0  0
   -5.8089   -2.6371   -1.8141 C   0  0  0  0  0  0  0  0  0  0  0  0
   -6.8584   -3.2540   -2.5756 O   0  0  0  0  0  0  0  0  0  0  0  0
   -4.9448   -3.4059   -1.4250 O   0  0  0  0  0  0  0  0  0  0  0  0
   -5.3221   -1.5371    5.0186 H   0  0  0  0  0  0  0  0  0  0  0  0
   -6.7861   -0.5165    5.1580 H   0  0  0  0  0  0  0  0  0  0  0  0
   -6.8353   -2.1493    4.3090 H   0  0  0  0  0  0  0  0  0  0  0  0
   -6.6859    0.0281    2.7915 H   0  0  0  0  0  0  0  0  0  0  0  0
   -3.7917    0.1990    3.7285 H   0  0  0  0  0  0  0  0  0  0  0  0
   -5.0430    1.4560    3.1584 H   0  0  0  0  0  0  0  0  0  0  0  0
   -5.1629    0.7969    4.7828 H   0  0  0  0  0  0  0  0  0  0  0  0
   -5.9964   -2.3805    2.2202 H   0  0  0  0  0  0  0  0  0  0  0  0
   -4.3830   -2.0392    2.8181 H   0  0  0  0  0  0  0  0  0  0  0  0
   -4.3249   -2.0993    0.5000 H   0  0  0  0  0  0  0  0  0  0  0  0
   -3.6785    0.7111    1.4096 H   0  0  0  0  0  0  0  0  0  0  0  0
   -0.8410    0.5419    1.0032 H   0  0  0  0  0  0  0  0  0  0  0  0
   -0.7566    2.6688    0.0591 H   0  0  0  0  0  0  0  0  0  0  0  0
   -2.2480    2.3452    0.9297 H   0  0  0  0  0  0  0  0  0  0  0  0
   -2.4227    3.8349   -0.8949 H   0  0  0  0  0  0  0  0  0  0  0  0
   -0.8318    2.7368   -2.4491 H   0  0  0  0  0  0  0  0  0  0  0  0
   -2.2632    1.7205   -3.0731 H   0  0  0  0  0  0  0  0  0  0  0  0
   -2.3181    3.4790   -3.0822 H   0  0  0  0  0  0  0  0  0  0  0  0
   -4.4534    2.5695   -0.1533 H   0  0  0  0  0  0  0  0  0  0  0  0
   -4.2407    1.5399   -1.6806 H   0  0  0  0  0  0  0  0  0  0  0  0
   -4.5019    3.2676   -1.7599 H   0  0  0  0  0  0  0  0  0  0  0  0
   -0.7183    0.2773   -1.9738 H   0  0  0  0  0  0  0  0  0  0  0  0
    1.8252    0.4859   -2.4406 H   0  0  0  0  0  0  0  0  0  0  0  0
    1.7374   -1.7524   -3.5318 H   0  0  0  0  0  0  0  0  0  0  0  0
    0.1834   -1.3238   -2.7462 H   0  0  0  0  0  0  0  0  0  0  0  0
    0.4725   -3.3321   -1.9968 H   0  0  0  0  0  0  0  0  0  0  0  0
    3.4728   -1.7284   -1.2792 H   0  0  0  0  0  0  0  0  0  0  0  0
    5.9236    2.1001   -0.3958 H   0  0  0  0  0  0  0  0  0  0  0  0
    7.2163    1.1348   -1.2474 H   0  0  0  0  0  0  0  0  0  0  0  0
    7.9437    1.6685    0.9588 H   0  0  0  0  0  0  0  0  0  0  0  0
    6.3916    1.1272    1.7145 H   0  0  0  0  0  0  0  0  0  0  0  0
    7.8985   -0.5974    2.1370 H   0  0  0  0  0  0  0  0  0  0  0  0
    7.2846   -2.4898    0.6347 H   0  0  0  0  0  0  0  0  0  0  0  0
    5.9685   -1.5325    1.4180 H   0  0  0  0  0  0  0  0  0  0  0  0
    5.3234   -2.1182   -0.7798 H   0  0  0  0  0  0  0  0  0  0  0  0
    6.8551   -1.3857   -1.4803 H   0  0  0  0  0  0  0  0  0  0  0  0
   11.3658    1.0364    2.4095 H   0  0  0  0  0  0  0  0  0  0  0  0
   10.1211    2.1131    1.7451 H   0  0  0  0  0  0  0  0  0  0  0  0
    9.6302    0.6357    2.7470 H   0  0  0  0  0  0  0  0  0  0  0  0
   12.5110   -0.2118    0.9486 H   0  0  0  0  0  0  0  0  0  0  0  0
   11.5926   -1.3769   -0.1880 H   0  0  0  0  0  0  0  0  0  0  0  0
   -7.1416    1.9351   -0.1410 H   0  0  0  0  0  0  0  0  0  0  0  0
   -9.4136    0.0042   -1.2293 H   0  0  0  0  0  0  0  0  0  0  0  0
   -9.1526    1.8317   -1.5937 H   0  0  0  0  0  0  0  0  0  0  0  0
   -6.9046    1.3825   -2.5712 H   0  0  0  0  0  0  0  0  0  0  0  0
   -5.0730   -0.6394   -2.1371 H   0  0  0  0  0  0  0  0  0  0  0  0
   -6.9307   -4.2427   -2.6789 H   0  0  0  0  0  0  0  0  0  0  0  0
  1  2  1  0
  2  3  1  0
  2  4  1  0
  4  5  1  0
  5  6  1  0
  6  7  1  0
  7  8  2  0
  7  9  1  0
  9 10  1  0
 10 11  1  0
 11 12  1  0
 11 13  1  0
  9 14  1  0
 14 15  1  0
 15 16  2  0
 15 17  1  0
 17 18  1  0
 18 19  1  0
 17 20  1  0
 20 21  1  0
 21 22  2  0
 21 23  1  0
 23 24  1  0
 24 25  1  0
 25 26  1  0
 26 27  1  0
 27 28  1  0
 26 29  1  0
 29 30  2  0
 31 29  1  6
 31 32  1  0
 31 33  1  0
 33 34  1  0
  5 35  1  0
 35 36  1  0
 36 37  1  0
 37 38  1  0
 38 39  1  0
 39 40  1  0
 40 41  1  0
 41 42  1  0
 42 43  1  0
 42 44  2  0
 28 23  1  0
 34 31  1  0
 41 35  1  0
 39 37  1  0
  1 45  1  0
  1 46  1  0
  1 47  1  0
  2 48  1  0
  3 49  1  0
  3 50  1  0
  3 51  1  0
  4 52  1  0
  4 53  1  0
  5 54  1  6
  6 55  1  0
  9 56  1  1
 10 57  1  0
 10 58  1  0
 11 59  1  0
 12 60  1  0
 12 61  1  0
 12 62  1  0
 13 63  1  0
 13 64  1  0
 13 65  1  0
 14 66  1  0
 17 67  1  6
 18 68  1  0
 18 69  1  0
 19 70  1  0
 20 71  1  0
 24 72  1  0
 24 73  1  0
 25 74  1  0
 25 75  1  0
 26 76  1  0
 27 77  1  0
 27 78  1  0
 28 79  1  0
 28 80  1  0
 32 81  1  0
 32 82  1  0
 32 83  1  0
 33 84  1  0
 33 85  1  0
 37 86  1  1
 38 87  1  0
 38 88  1  0
 39 89  1  6
 41 90  1  6
 43 91  1  0
M  END
$$$$
[H]SC([H])([H])[C@]([H])(C(=O)N([H])[C@@]([H])(C([H])([H])c1c([H])c([H])c([H])c([H])c1[H])[C@]([H])(N([H])[H])C([H])([H])c1c([H])c([H])c([H])c([H])c1[H])C([H])([H])[H]
     RDKit          3D

 50 51  0  0  0  0  0  0  0  0999 V2000
   -3.6102   -1.0402   -1.5597 C   0  0  0  0  0  0  0  0  0  0  0  0
   -2.6215   -2.0406   -0.9838 C   0  0  2  0  0  0  0  0  0  0  0  0
   -3.3083   -3.0791   -0.1405 C   0  0  0  0  0  0  0  0  0  0  0  0
   -4.4991   -3.9691   -1.1622 S   0  0  0  0  0  0  0  0  0  0  0  0
   -1.6121   -1.2516   -0.2311 C   0  0  0  0  0  0  0  0  0  0  0  0
   -1.5318   -1.5244    0.9989 O   0  0  0  0  0  0  0  0  0  0  0  0
   -0.8285   -0.2844   -0.8836 N   0  0  0  0  0  0  0  0  0  0  0  0
    0.1658    0.5480   -0.3190 C   0  0  1  0  0  0  0  0  0  0  0  0
   -0.2019    1.3464    0.9025 C   0  0  0  0  0  0  0  0  0  0  0  0
   -1.3120    2.3061    0.6597 C   0  0  0  0  0  0  0  0  0  0  0  0
   -1.0687    3.5583    0.1166 C   0  0  0  0  0  0  0  0  0  0  0  0
   -2.1387    4.4006   -0.0583 C   0  0  0  0  0  0  0  0  0  0  0  0
   -3.4265    4.0542    0.2804 C   0  0  0  0  0  0  0  0  0  0  0  0
   -3.6747    2.8132    0.8201 C   0  0  0  0  0  0  0  0  0  0  0  0
   -2.5893    1.9563    0.9988 C   0  0  0  0  0  0  0  0  0  0  0  0
    1.4605   -0.1776   -0.2072 C   0  0  2  0  0  0  0  0  0  0  0  0
    1.4482   -1.3463    0.5953 N   0  0  0  0  0  0  0  0  0  0  0  0
    2.6238    0.6891    0.2304 C   0  0  0  0  0  0  0  0  0  0  0  0
    3.8149   -0.1770    0.2879 C   0  0  0  0  0  0  0  0  0  0  0  0
    4.6029   -0.3223   -0.8241 C   0  0  0  0  0  0  0  0  0  0  0  0
    5.7358   -1.1273   -0.8199 C   0  0  0  0  0  0  0  0  0  0  0  0
    6.0531   -1.7849    0.3435 C   0  0  0  0  0  0  0  0  0  0  0  0
    5.2889   -1.6682    1.4869 C   0  0  0  0  0  0  0  0  0  0  0  0
    4.1625   -0.8491    1.4324 C   0  0  0  0  0  0  0  0  0  0  0  0
   -4.3694   -1.5302   -2.1952 H   0  0  0  0  0  0  0  0  0  0  0  0
   -3.0285   -0.3471   -2.2019 H   0  0  0  0  0  0  0  0  0  0  0  0
   -4.0336   -0.4791   -0.7162 H   0  0  0  0  0  0  0  0  0  0  0  0
   -2.0803   -2.5082   -1.8317 H   0  0  0  0  0  0  0  0  0  0  0  0
   -3.8221   -2.6166    0.7252 H   0  0  0  0  0  0  0  0  0  0  0  0
   -2.5327   -3.7465    0.2835 H   0  0  0  0  0  0  0  0  0  0  0  0
   -5.7432   -3.3451   -1.0405 H   0  0  0  0  0  0  0  0  0  0  0  0
   -1.0127   -0.1756   -1.9303 H   0  0  0  0  0  0  0  0  0  0  0  0
    0.3643    1.3870   -1.0827 H   0  0  0  0  0  0  0  0  0  0  0  0
   -0.5096    0.7257    1.7568 H   0  0  0  0  0  0  0  0  0  0  0  0
    0.6446    1.9637    1.2650 H   0  0  0  0  0  0  0  0  0  0  0  0
   -0.0640    3.8082   -0.1394 H   0  0  0  0  0  0  0  0  0  0  0  0
   -1.9819    5.3828   -0.4791 H   0  0  0  0  0  0  0  0  0  0  0  0
   -4.2709    4.7167    0.1430 H   0  0  0  0  0  0  0  0  0  0  0  0
   -4.6907    2.5069    1.1006 H   0  0  0  0  0  0  0  0  0  0  0  0
   -2.8525    0.9958    1.4437 H   0  0  0  0  0  0  0  0  0  0  0  0
    1.7300   -0.5091   -1.2564 H   0  0  0  0  0  0  0  0  0  0  0  0
    1.8667   -2.1837    0.2210 H   0  0  0  0  0  0  0  0  0  0  0  0
    1.3295   -1.2420    1.5885 H   0  0  0  0  0  0  0  0  0  0  0  0
    2.8206    1.5070   -0.4979 H   0  0  0  0  0  0  0  0  0  0  0  0
    2.4871    1.1049    1.2512 H   0  0  0  0  0  0  0  0  0  0  0  0
    4.3924    0.1768   -1.7648 H   0  0  0  0  0  0  0  0  0  0  0  0
    6.3452   -1.2344   -1.6940 H   0  0  0  0  0  0  0  0  0  0  0  0
    6.9169   -2.4093    0.3750 H   0  0  0  0  0  0  0  0  0  0  0  0
    5.5768   -2.1996    2.3668 H   0  0  0  0  0  0  0  0  0  0  0  0
    3.5848   -0.7790    2.3458 H   0  0  0  0  0  0  0  0  0  0  0  0
  1  2  1  0
  2  3  1  0
  3  4  1  0
  2  5  1  0
  5  6  2  0
  5  7  1  0
  7  8  1  0
  8  9  1  0
  9 10  1  0
 10 11  2  0
 11 12  1  0
 12 13  2  0
 13 14  1  0
 14 15  2  0
  8 16  1  0
 16 17  1  0
 16 18  1  0
 18 19  1  0
 19 20  2  0
 20 21  1  0
 21 22  2  0
 22 23  1  0
 23 24  2  0
 15 10  1  0
 24 19  1  0
  1 25  1  0
  1 26  1  0
  1 27  1  0
  2 28  1  6
  3 29  1  0
  3 30  1  0
  4 31  1  0
  7 32  1  0
  8 33  1  6
  9 34  1  0
  9 35  1  0
 11 36  1  0
 12 37  1  0
 13 38  1  0
 14 39  1  0
 15 40  1  0
 16 41  1  6
 17 42  1  0
 17 43  1  0
 18 44  1  0
 18 45  1  0
 20 46  1  0
 21 47  1  0
 22 48  1  0
 23 49  1  0
 24 50  1  0
M  END
$$$$
[H]c1nc(N([H])[H])c2c(-c3c([H])c([H])c(Oc4c([H])c([H])c([H])c([H])c4[H])c([H])c3[H])nn([C@@]3([H])OC([H])([H])C([H])([H])N(C([H])(C(=O)N4C([H])([H])C([H])([H])OC([H])([H])C4([H])[H])C4([H])C([H])([H])C4([H])[H])C3([H])[H])c2c1[H]
     RDKit          3D

 75 81  0  0  0  0  0  0  0  0999 V2000
    3.8938    0.2997   -3.0496 N   0  0  0  0  0  0  0  0  0  0  0  0
    2.5453   -0.0779   -2.8587 C   0  0  0  0  0  0  0  0  0  0  0  0
    1.7608   -0.4244   -3.8931 N   0  0  0  0  0  0  0  0  0  0  0  0
    0.4793   -0.7403   -3.7227 C   0  0  0  0  0  0  0  0  0  0  0  0
   -0.1209   -0.7293   -2.4635 C   0  0  0  0  0  0  0  0  0  0  0  0
    0.6634   -0.3808   -1.4079 C   0  0  0  0  0  0  0  0  0  0  0  0
    0.3610   -0.2697   -0.1183 N   0  0  0  0  0  0  0  0  0  0  0  0
    1.4682    0.1138    0.4950 N   0  0  0  0  0  0  0  0  0  0  0  0
    2.4880    0.2569   -0.3471 C   0  0  0  0  0  0  0  0  0  0  0  0
    3.8565    0.6993    0.0165 C   0  0  0  0  0  0  0  0  0  0  0  0
    4.9548   -0.0898   -0.2074 C   0  0  0  0  0  0  0  0  0  0  0  0
    6.2391    0.3031    0.0940 C   0  0  0  0  0  0  0  0  0  0  0  0
    6.4208    1.5519    0.6484 C   0  0  0  0  0  0  0  0  0  0  0  0
    7.7134    1.9807    0.9659 O   0  0  0  0  0  0  0  0  0  0  0  0
    8.8004    1.1323    0.7144 C   0  0  0  0  0  0  0  0  0  0  0  0
    9.2308    0.2331    1.6849 C   0  0  0  0  0  0  0  0  0  0  0  0
   10.2926   -0.6262    1.4989 C   0  0  0  0  0  0  0  0  0  0  0  0
   10.9433   -0.5763    0.2900 C   0  0  0  0  0  0  0  0  0  0  0  0
   10.5580    0.2953   -0.7067 C   0  0  0  0  0  0  0  0  0  0  0  0
    9.4782    1.1540   -0.4881 C   0  0  0  0  0  0  0  0  0  0  0  0
    5.3182    2.3582    0.8800 C   0  0  0  0  0  0  0  0  0  0  0  0
    4.0460    1.9458    0.5710 C   0  0  0  0  0  0  0  0  0  0  0  0
    2.0240   -0.0475   -1.5940 C   0  0  0  0  0  0  0  0  0  0  0  0
   -0.8104   -0.4685    0.6454 C   0  0  2  0  0  0  0  0  0  0  0  0
   -1.9418   -1.2354    0.2660 C   0  0  0  0  0  0  0  0  0  0  0  0
   -3.1712   -0.6481   -0.1945 N   0  0  0  0  0  0  0  0  0  0  0  0
   -3.1127    0.7893   -0.3673 C   0  0  0  0  0  0  0  0  0  0  0  0
   -1.8643    1.4602    0.0956 C   0  0  0  0  0  0  0  0  0  0  0  0
   -1.2185    0.8107    1.1130 O   0  0  0  0  0  0  0  0  0  0  0  0
   -4.3299   -0.8869    0.6115 C   0  0  0  0  0  0  0  0  0  0  0  0
   -4.7780   -2.2811    0.7995 C   0  0  0  0  0  0  0  0  0  0  0  0
   -5.1460   -2.9614   -0.5616 C   0  0  0  0  0  0  0  0  0  0  0  0
   -4.1906   -3.5411    0.4748 C   0  0  0  0  0  0  0  0  0  0  0  0
   -5.4863   -0.2349   -0.0616 C   0  0  0  0  0  0  0  0  0  0  0  0
   -5.3915    0.0011   -1.2907 O   0  0  0  0  0  0  0  0  0  0  0  0
   -6.6964    0.1523    0.5512 N   0  0  0  0  0  0  0  0  0  0  0  0
   -6.9093   -0.0533    1.9643 C   0  0  0  0  0  0  0  0  0  0  0  0
   -7.6636    1.1005    2.6168 C   0  0  0  0  0  0  0  0  0  0  0  0
   -8.8673    1.3295    1.9266 O   0  0  0  0  0  0  0  0  0  0  0  0
   -8.5014    1.8211    0.6771 C   0  0  0  0  0  0  0  0  0  0  0  0
   -7.7972    0.7676   -0.1541 C   0  0  0  0  0  0  0  0  0  0  0  0
    4.1640    1.2852   -2.9223 H   0  0  0  0  0  0  0  0  0  0  0  0
    4.5996   -0.3985   -3.3138 H   0  0  0  0  0  0  0  0  0  0  0  0
   -0.1464   -1.0190   -4.5598 H   0  0  0  0  0  0  0  0  0  0  0  0
   -1.1355   -0.9740   -2.3139 H   0  0  0  0  0  0  0  0  0  0  0  0
    4.8319   -1.1091   -0.6338 H   0  0  0  0  0  0  0  0  0  0  0  0
    7.1010   -0.3601   -0.1013 H   0  0  0  0  0  0  0  0  0  0  0  0
    8.7160    0.1965    2.6327 H   0  0  0  0  0  0  0  0  0  0  0  0
   10.6331   -1.3293    2.2486 H   0  0  0  0  0  0  0  0  0  0  0  0
   11.7963   -1.2237    0.0581 H   0  0  0  0  0  0  0  0  0  0  0  0
   11.0833    0.3254   -1.6644 H   0  0  0  0  0  0  0  0  0  0  0  0
    9.1676    1.8403   -1.2611 H   0  0  0  0  0  0  0  0  0  0  0  0
    5.5240    3.3316    1.3190 H   0  0  0  0  0  0  0  0  0  0  0  0
    3.1984    2.5793    0.7548 H   0  0  0  0  0  0  0  0  0  0  0  0
   -0.4489   -0.9154    1.6459 H   0  0  0  0  0  0  0  0  0  0  0  0
   -1.6109   -2.1104   -0.3346 H   0  0  0  0  0  0  0  0  0  0  0  0
   -2.3253   -1.8015    1.1920 H   0  0  0  0  0  0  0  0  0  0  0  0
   -3.9534    1.3353    0.1108 H   0  0  0  0  0  0  0  0  0  0  0  0
   -3.1925    0.9839   -1.4646 H   0  0  0  0  0  0  0  0  0  0  0  0
   -1.1919    1.6853   -0.7723 H   0  0  0  0  0  0  0  0  0  0  0  0
   -2.1032    2.4939    0.4949 H   0  0  0  0  0  0  0  0  0  0  0  0
   -4.1949   -0.3997    1.5857 H   0  0  0  0  0  0  0  0  0  0  0  0
   -5.6226   -2.2976    1.5261 H   0  0  0  0  0  0  0  0  0  0  0  0
   -6.1671   -3.3773   -0.6432 H   0  0  0  0  0  0  0  0  0  0  0  0
   -4.7439   -2.5159   -1.4689 H   0  0  0  0  0  0  0  0  0  0  0  0
   -3.2233   -3.7972    0.0499 H   0  0  0  0  0  0  0  0  0  0  0  0
   -4.6237   -4.4593    0.9769 H   0  0  0  0  0  0  0  0  0  0  0  0
   -5.9724   -0.1576    2.5446 H   0  0  0  0  0  0  0  0  0  0  0  0
   -7.5043   -0.9687    2.1636 H   0  0  0  0  0  0  0  0  0  0  0  0
   -7.8818    0.8002    3.6506 H   0  0  0  0  0  0  0  0  0  0  0  0
   -7.1063    2.0403    2.6222 H   0  0  0  0  0  0  0  0  0  0  0  0
   -9.3890    2.1446    0.0838 H   0  0  0  0  0  0  0  0  0  0  0  0
   -7.7778    2.6782    0.7584 H   0  0  0  0  0  0  0  0  0  0  0  0
   -7.4940    1.2537   -1.0954 H   0  0  0  0  0  0  0  0  0  0  0  0
   -8.5448   -0.0433   -0.3441 H   0  0  0  0  0  0  0  0  0  0  0  0
  1  2  1  0
  2  3  2  0
  3  4  1  0
  4  5  2  0
  5  6  1  0
  6  7  1  0
  7  8  1  0
  8  9  2  0
  9 10  1  0
 10 11  2  0
 11 12  1  0
 12 13  2  0
 13 14  1  0
 14 15  1  0
 15 16  2  0
 16 17  1  0
 17 18  2  0
 18 19  1  0
 19 20  2  0
 13 21  1  0
 21 22  2  0
  9 23  1  0
  7 24  1  0
 24 25  1  0
 25 26  1  0
 26 27  1  0
 27 28  1  0
 28 29  1  0
 26 30  1  0
 30 31  1  0
 31 32  1  0
 32 33  1  0
 30 34  1  0
 34 35  2  0
 34 36  1  0
 36 37  1  0
 37 38  1  0
 38 39  1  0
 39 40  1  0
 40 41  1  0
 23  2  1  0
 29 24  1  0
 33 31  1  0
 41 36  1  0
 23  6  2  0
 22 10  1  0
 20 15  1  0
  1 42  1  0
  1 43  1  0
  4 44  1  0
  5 45  1  0
 11 46  1  0
 12 47  1  0
 16 48  1  0
 17 49  1  0
 18 50  1  0
 19 51  1  0
 20 52  1  0
 21 53  1  0
 22 54  1  0
 24 55  1  1
 25 56  1  0
 25 57  1  0
 27 58  1  0
 27 59  1  0
 28 60  1  0
 28 61  1  0
 30 62  1  0
 31 63  1  0
 32 64  1  0
 32 65  1  0
 33 66  1  0
 33 67  1  0
 37 68  1  0
 37 69  1  0
 38 70  1  0
 38 71  1  0
 40 72  1  0
 40 73  1  0
 41 74  1  0
 41 75  1  0
M  END
$$$$
[H]OB(O[H])[C@@]([H])(N([H])C(=O)[C@@]([H])(N([H])C(=O)[C@@]([H])(N([H])C(=O)C([H])([H])[H])C([H])([H])C([H])([H])C([H])([H])N=C(N([H])[H])N([H])[H])C([H])(C([H])([H])[H])C([H])([H])[H])C([H])([H])C([H])([H])C([H])([H])[H]
     RDKit          3D

 64 63  0  0  0  0  0  0  0  0999 V2000
   -5.2341    3.0325   -0.6057 C   0  0  0  0  0  0  0  0  0  0  0  0
   -5.8015    2.4233    0.6420 C   0  0  0  0  0  0  0  0  0  0  0  0
   -5.0228    1.1796    0.9711 C   0  0  0  0  0  0  0  0  0  0  0  0
   -3.5650    1.4428    1.2132 C   0  0  2  0  0  0  0  0  0  0  0  0
   -2.9526    0.1402    1.5193 N   0  0  0  0  0  0  0  0  0  0  0  0
   -1.8775   -0.4054    0.8093 C   0  0  0  0  0  0  0  0  0  0  0  0
   -1.4634    0.3785   -0.1607 O   0  0  0  0  0  0  0  0  0  0  0  0
   -1.1842   -1.6804    1.0004 C   0  0  1  0  0  0  0  0  0  0  0  0
    0.2212   -1.4834    0.6665 N   0  0  0  0  0  0  0  0  0  0  0  0
    0.8662   -2.0207   -0.4600 C   0  0  0  0  0  0  0  0  0  0  0  0
    0.2278   -2.7218   -1.2681 O   0  0  0  0  0  0  0  0  0  0  0  0
    2.2941   -1.7566   -0.6878 C   0  0  2  0  0  0  0  0  0  0  0  0
    2.4979   -0.2660   -0.8290 C   0  0  0  0  0  0  0  0  0  0  0  0
    4.0028   -0.0809   -1.0565 C   0  0  0  0  0  0  0  0  0  0  0  0
    4.2673    1.3838   -1.1960 C   0  0  0  0  0  0  0  0  0  0  0  0
    3.5003    1.8721   -2.3457 N   0  0  0  0  0  0  0  0  0  0  0  0
    4.0972    2.5744   -3.2709 C   0  0  0  0  0  0  0  0  0  0  0  0
    3.3076    3.0216   -4.3617 N   0  0  0  0  0  0  0  0  0  0  0  0
    5.4973    2.8842   -3.1889 N   0  0  0  0  0  0  0  0  0  0  0  0
    2.7487   -2.3747   -1.9330 N   0  0  0  0  0  0  0  0  0  0  0  0
    3.7891   -3.3281   -1.8612 C   0  0  0  0  0  0  0  0  0  0  0  0
    4.2706   -3.9663   -3.1087 C   0  0  0  0  0  0  0  0  0  0  0  0
    4.3395   -3.6693   -0.7688 O   0  0  0  0  0  0  0  0  0  0  0  0
   -1.3598   -2.3980    2.2783 C   0  0  0  0  0  0  0  0  0  0  0  0
   -2.7587   -2.8330    2.5928 C   0  0  0  0  0  0  0  0  0  0  0  0
   -0.7386   -1.6232    3.4326 C   0  0  0  0  0  0  0  0  0  0  0  0
   -3.3861    2.4642    2.4045 B   0  0  0  0  0  0  0  0  0  0  0  0
   -3.6897    2.0746    3.7840 O   0  0  0  0  0  0  0  0  0  0  0  0
   -2.5376    3.6487    2.2211 O   0  0  0  0  0  0  0  0  0  0  0  0
   -4.2368    3.4515   -0.4393 H   0  0  0  0  0  0  0  0  0  0  0  0
   -5.8919    3.8134   -1.0413 H   0  0  0  0  0  0  0  0  0  0  0  0
   -5.1396    2.2160   -1.3543 H   0  0  0  0  0  0  0  0  0  0  0  0
   -6.8598    2.1268    0.4602 H   0  0  0  0  0  0  0  0  0  0  0  0
   -5.7649    3.1649    1.4442 H   0  0  0  0  0  0  0  0  0  0  0  0
   -5.4372    0.6221    1.8311 H   0  0  0  0  0  0  0  0  0  0  0  0
   -5.0666    0.4816    0.0828 H   0  0  0  0  0  0  0  0  0  0  0  0
   -3.0315    1.8177    0.3250 H   0  0  0  0  0  0  0  0  0  0  0  0
   -3.3767   -0.3430    2.3179 H   0  0  0  0  0  0  0  0  0  0  0  0
   -1.5498   -2.4000    0.1738 H   0  0  0  0  0  0  0  0  0  0  0  0
    0.7954   -0.8872    1.3313 H   0  0  0  0  0  0  0  0  0  0  0  0
    2.8652   -2.1508    0.1797 H   0  0  0  0  0  0  0  0  0  0  0  0
    1.9415    0.1489   -1.6889 H   0  0  0  0  0  0  0  0  0  0  0  0
    2.1857    0.2931    0.0714 H   0  0  0  0  0  0  0  0  0  0  0  0
    4.2066   -0.6042   -2.0211 H   0  0  0  0  0  0  0  0  0  0  0  0
    4.5197   -0.5525   -0.2013 H   0  0  0  0  0  0  0  0  0  0  0  0
    3.9525    1.8941   -0.2718 H   0  0  0  0  0  0  0  0  0  0  0  0
    5.3551    1.5748   -1.3670 H   0  0  0  0  0  0  0  0  0  0  0  0
    3.5724    3.9101   -4.8224 H   0  0  0  0  0  0  0  0  0  0  0  0
    2.4936    2.4651   -4.6775 H   0  0  0  0  0  0  0  0  0  0  0  0
    6.2058    2.1226   -3.1418 H   0  0  0  0  0  0  0  0  0  0  0  0
    5.7998    3.8774   -3.1770 H   0  0  0  0  0  0  0  0  0  0  0  0
    2.3152   -2.1150   -2.8312 H   0  0  0  0  0  0  0  0  0  0  0  0
    4.5706   -5.0085   -2.8521 H   0  0  0  0  0  0  0  0  0  0  0  0
    5.1322   -3.3783   -3.5182 H   0  0  0  0  0  0  0  0  0  0  0  0
    3.4383   -3.9482   -3.8437 H   0  0  0  0  0  0  0  0  0  0  0  0
   -0.7528   -3.3456    2.2188 H   0  0  0  0  0  0  0  0  0  0  0  0
   -2.8368   -3.9581    2.6881 H   0  0  0  0  0  0  0  0  0  0  0  0
   -3.1855   -2.3754    3.4959 H   0  0  0  0  0  0  0  0  0  0  0  0
   -3.4000   -2.6122    1.6891 H   0  0  0  0  0  0  0  0  0  0  0  0
   -0.4366   -0.6321    3.0322 H   0  0  0  0  0  0  0  0  0  0  0  0
   -1.5076   -1.5422    4.2202 H   0  0  0  0  0  0  0  0  0  0  0  0
    0.1385   -2.1395    3.8659 H   0  0  0  0  0  0  0  0  0  0  0  0
   -2.8579    2.1634    4.3392 H   0  0  0  0  0  0  0  0  0  0  0  0
   -2.5121    3.9366    1.2697 H   0  0  0  0  0  0  0  0  0  0  0  0
  1  2  1  0
  2  3  1  0
  3  4  1  0
  4  5  1  0
  5  6  1  0
  6  7  2  0
  6  8  1  0
  8  9  1  0
  9 10  1  0
 10 11  2  0
 10 12  1  0
 12 13  1  0
 13 14  1  0
 14 15  1  0
 15 16  1  0
 16 17  2  3
 17 18  1  0
 17 19  1  0
 12 20  1  0
 20 21  1  0
 21 22  1  0
 21 23  2  0
  8 24  1  0
 24 25  1  0
 24 26  1  0
  4 27  1  0
 27 28  1  0
 27 29  1  0
  1 30  1  0
  1 31  1  0
  1 32  1  0
  2 33  1  0
  2 34  1  0
  3 35  1  0
  3 36  1  0
  4 37  1  6
  5 38  1  0
  8 39  1  6
  9 40  1  0
 12 41  1  1
 13 42  1  0
 13 43  1  0
 14 44  1  0
 14 45  1  0
 15 46  1  0
 15 47  1  0
 18 48  1  0
 18 49  1  0
 19 50  1  0
 19 51  1  0
 20 52  1  0
 22 53  1  0
 22 54  1  0
 22 55  1  0
 24 56  1  0
 25 57  1  0
 25 58  1  0
 25 59  1  0
 26 60  1  0
 26 61  1  0
 26 62  1  0
 28 63  1  0
 29 64  1  0
M  END
$$$$
[H]c1c(C([H])([H])C([H])(C#N)N([H])S(=O)(=O)C2([H])C([H])([H])C2([H])[H])sc(S(=O)(=O)N([H])c2c([H])c([H])c(-c3c([H])c([H])c([H])c(Br)c3[H])c([H])c2[H])c1[H]
     RDKit          3D

 53 56  0  0  0  0  0  0  0  0999 V2000
    8.1873    2.9275   -2.1380 Br  0  0  0  0  0  0  0  0  0  0  0  0
    6.7580    2.6779   -0.9156 C   0  0  0  0  0  0  0  0  0  0  0  0
    6.3546    3.6762   -0.0656 C   0  0  0  0  0  0  0  0  0  0  0  0
    5.3102    3.4794    0.8196 C   0  0  0  0  0  0  0  0  0  0  0  0
    4.6759    2.2532    0.8341 C   0  0  0  0  0  0  0  0  0  0  0  0
    5.0536    1.2072   -0.0144 C   0  0  0  0  0  0  0  0  0  0  0  0
    6.1014    1.4674   -0.8729 C   0  0  0  0  0  0  0  0  0  0  0  0
    4.3678   -0.0678    0.0252 C   0  0  0  0  0  0  0  0  0  0  0  0
    3.8528   -0.5091    1.2127 C   0  0  0  0  0  0  0  0  0  0  0  0
    3.1898   -1.7439    1.2470 C   0  0  0  0  0  0  0  0  0  0  0  0
    3.0506   -2.5069    0.1239 C   0  0  0  0  0  0  0  0  0  0  0  0
    2.4012   -3.7435    0.1381 N   0  0  0  0  0  0  0  0  0  0  0  0
    0.8920   -3.9148    0.8914 S   0  0  0  0  0  0  0  0  0  0  0  0
    1.0194   -3.5884    2.3446 O   0  0  0  0  0  0  0  0  0  0  0  0
    0.5086   -5.3692    0.8050 O   0  0  0  0  0  0  0  0  0  0  0  0
   -0.3534   -2.9038    0.1666 C   0  0  0  0  0  0  0  0  0  0  0  0
   -1.5310   -3.2643   -0.4214 C   0  0  0  0  0  0  0  0  0  0  0  0
   -2.3182   -2.2916   -0.9050 C   0  0  0  0  0  0  0  0  0  0  0  0
   -1.8830   -1.0065   -0.7732 C   0  0  0  0  0  0  0  0  0  0  0  0
   -2.4754    0.2817   -1.1807 C   0  0  0  0  0  0  0  0  0  0  0  0
   -3.7877    0.1998   -1.8713 C   0  0  0  0  0  0  0  0  0  0  0  0
   -4.7785   -0.4286   -1.0233 N   0  0  0  0  0  0  0  0  0  0  0  0
   -6.0973    0.6185   -0.7028 S   0  0  0  0  0  0  0  0  0  0  0  0
   -7.0962   -0.1467    0.1344 O   0  0  0  0  0  0  0  0  0  0  0  0
   -6.7969    0.9879   -1.9819 O   0  0  0  0  0  0  0  0  0  0  0  0
   -5.5935    2.0766    0.1514 C   0  0  0  0  0  0  0  0  0  0  0  0
   -5.4557    1.9942    1.6619 C   0  0  0  0  0  0  0  0  0  0  0  0
   -6.5272    2.8632    0.9806 C   0  0  0  0  0  0  0  0  0  0  0  0
   -3.6895   -0.5362   -3.1362 C   0  0  0  0  0  0  0  0  0  0  0  0
   -3.5994   -1.1099   -4.1297 N   0  0  0  0  0  0  0  0  0  0  0  0
   -0.3837   -1.2006    0.0244 S   0  0  0  0  0  0  0  0  0  0  0  0
    3.5849   -2.0298   -1.0638 C   0  0  0  0  0  0  0  0  0  0  0  0
    4.2454   -0.8094   -1.1194 C   0  0  0  0  0  0  0  0  0  0  0  0
    6.8344    4.6519   -0.0530 H   0  0  0  0  0  0  0  0  0  0  0  0
    4.9576    4.2332    1.5054 H   0  0  0  0  0  0  0  0  0  0  0  0
    3.8547    2.0371    1.5010 H   0  0  0  0  0  0  0  0  0  0  0  0
    6.4242    0.6862   -1.5446 H   0  0  0  0  0  0  0  0  0  0  0  0
    3.9594    0.0870    2.0952 H   0  0  0  0  0  0  0  0  0  0  0  0
    2.8202   -2.0177    2.2194 H   0  0  0  0  0  0  0  0  0  0  0  0
    2.9151   -4.5410   -0.3469 H   0  0  0  0  0  0  0  0  0  0  0  0
   -1.7971   -4.3403   -0.4800 H   0  0  0  0  0  0  0  0  0  0  0  0
   -3.2946   -2.4872   -1.3996 H   0  0  0  0  0  0  0  0  0  0  0  0
   -1.7624    0.8342   -1.8574 H   0  0  0  0  0  0  0  0  0  0  0  0
   -2.5484    0.9776   -0.2906 H   0  0  0  0  0  0  0  0  0  0  0  0
   -4.1807    1.2417   -2.0825 H   0  0  0  0  0  0  0  0  0  0  0  0
   -4.3326   -0.6542   -0.1019 H   0  0  0  0  0  0  0  0  0  0  0  0
   -4.8411    2.6775   -0.4213 H   0  0  0  0  0  0  0  0  0  0  0  0
   -4.5706    2.4901    2.0762 H   0  0  0  0  0  0  0  0  0  0  0  0
   -5.8313    1.0927    2.1640 H   0  0  0  0  0  0  0  0  0  0  0  0
   -6.3486    3.9706    1.0686 H   0  0  0  0  0  0  0  0  0  0  0  0
   -7.5756    2.5921    1.1468 H   0  0  0  0  0  0  0  0  0  0  0  0
    3.4690   -2.6388   -1.9390 H   0  0  0  0  0  0  0  0  0  0  0  0
    4.6619   -0.4327   -2.0353 H   0  0  0  0  0  0  0  0  0  0  0  0
  1  2  1  0
  2  3  2  0
  3  4  1  0
  4  5  2  0
  5  6  1  0
  6  7  2  0
  6  8  1  0
  8  9  2  0
  9 10  1  0
 10 11  2  0
 11 12  1  0
 12 13  1  0
 13 14  2  0
 13 15  2  0
 13 16  1  0
 16 17  2  0
 17 18  1  0
 18 19  2  0
 19 20  1  0
 20 21  1  0
 21 22  1  0
 22 23  1  0
 23 24  2  0
 23 25  2  0
 23 26  1  0
 26 27  1  0
 27 28  1  0
 21 29  1  0
 29 30  3  0
 19 31  1  0
 11 32  1  0
 32 33  2  0
  7  2  1  0
 33  8  1  0
 31 16  1  0
 28 26  1  0
  3 34  1  0
  4 35  1  0
  5 36  1  0
  7 37  1  0
  9 38  1  0
 10 39  1  0
 12 40  1  0
 17 41  1  0
 18 42  1  0
 20 43  1  0
 20 44  1  0
 21 45  1  0
 22 46  1  0
 26 47  1  0
 27 48  1  0
 27 49  1  0
 28 50  1  0
 28 51  1  0
 32 52  1  0
 33 53  1  0
M  END
$$$$
[H]O[C@]1([H])[C@]([H])(n2c([H])nc3c([H])c([H])c([H])c([H])c32)O[C@@]([H])(C(=O)OC([H])([H])[H])C(=O)O[C@]1([H])C([H])([H])c1c([H])c([H])c(-c2c([H])c([H])c([H])c(C(F)(F)P(=O)(O[H])O[H])c2[H])c([H])c1[H]
     RDKit          3D

 67 71  0  0  0  0  0  0  0  0999 V2000
   -6.0215    2.5290    1.9697 C   0  0  0  0  0  0  0  0  0  0  0  0
   -5.3577    1.8772    0.9447 O   0  0  0  0  0  0  0  0  0  0  0  0
   -4.7741    2.3670   -0.1659 C   0  0  0  0  0  0  0  0  0  0  0  0
   -4.8261    3.6342   -0.3125 O   0  0  0  0  0  0  0  0  0  0  0  0
   -4.0909    1.6180   -1.2191 C   0  0  2  0  0  0  0  0  0  0  0  0
   -4.0517    0.2644   -1.1215 O   0  0  0  0  0  0  0  0  0  0  0  0
   -3.5676   -0.3832   -0.0551 C   0  0  2  0  0  0  0  0  0  0  0  0
   -2.0286   -0.3541    0.1151 C   0  0  1  0  0  0  0  0  0  0  0  0
   -1.4228   -0.8250   -1.0453 O   0  0  0  0  0  0  0  0  0  0  0  0
   -1.6182    0.9926    0.5381 C   0  0  1  0  0  0  0  0  0  0  0  0
   -0.4686    1.3084    1.3574 C   0  0  0  0  0  0  0  0  0  0  0  0
    0.9003    1.0360    0.9914 C   0  0  0  0  0  0  0  0  0  0  0  0
    1.4833    1.6935   -0.1152 C   0  0  0  0  0  0  0  0  0  0  0  0
    2.8157    1.6170   -0.4041 C   0  0  0  0  0  0  0  0  0  0  0  0
    3.6875    0.8726    0.3928 C   0  0  0  0  0  0  0  0  0  0  0  0
    3.1483    0.2218    1.4662 C   0  0  0  0  0  0  0  0  0  0  0  0
    1.7638    0.3132    1.7489 C   0  0  0  0  0  0  0  0  0  0  0  0
    5.1084    0.9326    0.0396 C   0  0  0  0  0  0  0  0  0  0  0  0
    5.5972    2.1245   -0.5342 C   0  0  0  0  0  0  0  0  0  0  0  0
    6.9213    2.2867   -0.8762 C   0  0  0  0  0  0  0  0  0  0  0  0
    7.8125    1.2767   -0.6631 C   0  0  0  0  0  0  0  0  0  0  0  0
    7.3528    0.0940   -0.0999 C   0  0  0  0  0  0  0  0  0  0  0  0
    6.0083   -0.0699    0.2451 C   0  0  0  0  0  0  0  0  0  0  0  0
    8.3418   -0.9556    0.1615 C   0  0  0  0  0  0  0  0  0  0  0  0
    8.1475   -1.3690    1.4825 F   0  0  0  0  0  0  0  0  0  0  0  0
    9.6221   -0.3544    0.1836 F   0  0  0  0  0  0  0  0  0  0  0  0
    8.3540   -2.3086   -1.0132 P   0  0  0  0  0  0  0  0  0  0  0  0
    7.3901   -3.5550   -0.4392 O   0  0  0  0  0  0  0  0  0  0  0  0
    7.8837   -1.7589   -2.5397 O   0  0  0  0  0  0  0  0  0  0  0  0
    9.7845   -2.8461   -1.0861 O   0  0  0  0  0  0  0  0  0  0  0  0
   -1.6188    1.8985   -0.6257 O   0  0  0  0  0  0  0  0  0  0  0  0
   -2.7284    2.2227   -1.3497 C   0  0  0  0  0  0  0  0  0  0  0  0
   -2.6153    3.0990   -2.2020 O   0  0  0  0  0  0  0  0  0  0  0  0
   -4.0511   -1.7612   -0.1654 N   0  0  0  0  0  0  0  0  0  0  0  0
   -3.3933   -2.9133   -0.0960 C   0  0  0  0  0  0  0  0  0  0  0  0
   -4.2695   -3.9273   -0.2489 N   0  0  0  0  0  0  0  0  0  0  0  0
   -5.5037   -3.4523   -0.4177 C   0  0  0  0  0  0  0  0  0  0  0  0
   -6.7339   -4.0147   -0.6175 C   0  0  0  0  0  0  0  0  0  0  0  0
   -7.8934   -3.2599   -0.7731 C   0  0  0  0  0  0  0  0  0  0  0  0
   -7.7771   -1.8912   -0.7232 C   0  0  0  0  0  0  0  0  0  0  0  0
   -6.5176   -1.3279   -0.5213 C   0  0  0  0  0  0  0  0  0  0  0  0
   -5.3742   -2.0775   -0.3662 C   0  0  0  0  0  0  0  0  0  0  0  0
   -6.5497    3.4280    1.5438 H   0  0  0  0  0  0  0  0  0  0  0  0
   -5.3396    2.9279    2.7536 H   0  0  0  0  0  0  0  0  0  0  0  0
   -6.7570    1.7815    2.3960 H   0  0  0  0  0  0  0  0  0  0  0  0
   -4.6146    1.8770   -2.1622 H   0  0  0  0  0  0  0  0  0  0  0  0
   -3.9204   -0.0591    0.9554 H   0  0  0  0  0  0  0  0  0  0  0  0
   -1.8052   -1.0854    0.9179 H   0  0  0  0  0  0  0  0  0  0  0  0
   -1.8223   -0.4651   -1.8649 H   0  0  0  0  0  0  0  0  0  0  0  0
   -2.5045    1.4221    1.1181 H   0  0  0  0  0  0  0  0  0  0  0  0
   -0.5359    2.4024    1.6295 H   0  0  0  0  0  0  0  0  0  0  0  0
   -0.6306    0.8211    2.3748 H   0  0  0  0  0  0  0  0  0  0  0  0
    0.8109    2.2600   -0.7209 H   0  0  0  0  0  0  0  0  0  0  0  0
    3.2487    2.1216   -1.2846 H   0  0  0  0  0  0  0  0  0  0  0  0
    3.7830   -0.3819    2.1055 H   0  0  0  0  0  0  0  0  0  0  0  0
    1.4470   -0.2589    2.6359 H   0  0  0  0  0  0  0  0  0  0  0  0
    4.8907    2.9218   -0.6907 H   0  0  0  0  0  0  0  0  0  0  0  0
    7.2698    3.2337   -1.3231 H   0  0  0  0  0  0  0  0  0  0  0  0
    8.8668    1.4291   -0.9383 H   0  0  0  0  0  0  0  0  0  0  0  0
    5.6552   -0.9951    0.6828 H   0  0  0  0  0  0  0  0  0  0  0  0
    7.6496   -3.6946    0.5107 H   0  0  0  0  0  0  0  0  0  0  0  0
    8.5795   -1.1773   -2.8852 H   0  0  0  0  0  0  0  0  0  0  0  0
   -2.3267   -3.0118    0.0543 H   0  0  0  0  0  0  0  0  0  0  0  0
   -6.8732   -5.0946   -0.6739 H   0  0  0  0  0  0  0  0  0  0  0  0
   -8.8307   -3.7539   -0.9258 H   0  0  0  0  0  0  0  0  0  0  0  0
   -8.6486   -1.2496   -0.8492 H   0  0  0  0  0  0  0  0  0  0  0  0
   -6.4612   -0.2734   -0.4877 H   0  0  0  0  0  0  0  0  0  0  0  0
  1  2  1  0
  2  3  1  0
  3  4  2  0
  3  5  1  0
  5  6  1  0
  6  7  1  0
  7  8  1  0
  8  9  1  0
  8 10  1  0
 10 11  1  0
 11 12  1  0
 12 13  2  0
 13 14  1  0
 14 15  2  0
 15 16  1  0
 16 17  2  0
 15 18  1  0
 18 19  2  0
 19 20  1  0
 20 21  2  0
 21 22  1  0
 22 23  2  0
 22 24  1  0
 24 25  1  0
 24 26  1  0
 24 27  1  0
 27 28  1  0
 27 29  1  0
 27 30  2  0
 10 31  1  0
 31 32  1  0
 32 33  2  0
  7 34  1  0
 34 35  1  0
 35 36  2  0
 36 37  1  0
 37 38  2  0
 38 39  1  0
 39 40  2  0
 40 41  1  0
 41 42  2  0
 32  5  1  0
 42 34  1  0
 17 12  1  0
 23 18  1  0
 42 37  1  0
  1 43  1  0
  1 44  1  0
  1 45  1  0
  5 46  1  6
  7 47  1  1
  8 48  1  1
  9 49  1  0
 10 50  1  1
 11 51  1  0
 11 52  1  0
 13 53  1  0
 14 54  1  0
 16 55  1  0
 17 56  1  0
 19 57  1  0
 20 58  1  0
 21 59  1  0
 23 60  1  0
 28 61  1  0
 29 62  1  0
 35 63  1  0
 38 64  1  0
 39 65  1  0
 40 66  1  0
 41 67  1  0
M  END
$$$$
[H]c1c([H])c([H])c(-c2c([H])c(OC([H])([H])C([H])([H])C([H])([H])N(C([H])([H])[H])C([H])([H])C([H])([H])N([H])C(=O)C([H])([H])[H])c([H])c([H])c2OC([H])([H])C([H])([H])[H])c([H])c1[H]
     RDKit          3D

 57 58  0  0  0  0  0  0  0  0999 V2000
   -6.9776    2.6025   -1.7161 C   0  0  0  0  0  0  0  0  0  0  0  0
   -5.5356    2.4519   -1.3341 C   0  0  0  0  0  0  0  0  0  0  0  0
   -5.2510    1.1827   -0.7547 O   0  0  0  0  0  0  0  0  0  0  0  0
   -3.9537    0.9356   -0.3642 C   0  0  0  0  0  0  0  0  0  0  0  0
   -2.9480    1.8601   -0.5153 C   0  0  0  0  0  0  0  0  0  0  0  0
   -1.6440    1.5523   -0.0989 C   0  0  0  0  0  0  0  0  0  0  0  0
   -1.3508    0.3319    0.4617 C   0  0  0  0  0  0  0  0  0  0  0  0
   -0.0974    0.0006    0.8722 O   0  0  0  0  0  0  0  0  0  0  0  0
    1.1151    0.6068    0.8641 C   0  0  0  0  0  0  0  0  0  0  0  0
    1.7176    0.8986   -0.4940 C   0  0  0  0  0  0  0  0  0  0  0  0
    3.0456    1.5713   -0.3981 C   0  0  0  0  0  0  0  0  0  0  0  0
    4.0830    0.8380    0.2740 N   0  0  0  0  0  0  0  0  0  0  0  0
    5.2590    1.6164    0.3939 C   0  0  0  0  0  0  0  0  0  0  0  0
    4.1797   -0.5077   -0.1159 C   0  0  0  0  0  0  0  0  0  0  0  0
    5.2102   -1.3805    0.4762 C   0  0  0  0  0  0  0  0  0  0  0  0
    6.5812   -1.0570    0.2306 N   0  0  0  0  0  0  0  0  0  0  0  0
    7.6035   -1.8440    0.8049 C   0  0  0  0  0  0  0  0  0  0  0  0
    9.0341   -1.5337    0.5693 C   0  0  0  0  0  0  0  0  0  0  0  0
    7.3253   -2.8268    1.5301 O   0  0  0  0  0  0  0  0  0  0  0  0
   -2.3888   -0.6135    0.6146 C   0  0  0  0  0  0  0  0  0  0  0  0
   -3.6495   -0.2825    0.1991 C   0  0  0  0  0  0  0  0  0  0  0  0
   -4.7248   -1.2485    0.3584 C   0  0  0  0  0  0  0  0  0  0  0  0
   -4.4717   -2.5528   -0.0403 C   0  0  0  0  0  0  0  0  0  0  0  0
   -5.4149   -3.5593    0.0665 C   0  0  0  0  0  0  0  0  0  0  0  0
   -6.6629   -3.2729    0.5881 C   0  0  0  0  0  0  0  0  0  0  0  0
   -6.9224   -1.9785    0.9868 C   0  0  0  0  0  0  0  0  0  0  0  0
   -5.9636   -0.9641    0.8763 C   0  0  0  0  0  0  0  0  0  0  0  0
   -7.4535    3.4116   -1.1273 H   0  0  0  0  0  0  0  0  0  0  0  0
   -7.5606    1.6692   -1.5006 H   0  0  0  0  0  0  0  0  0  0  0  0
   -7.0903    2.8886   -2.7965 H   0  0  0  0  0  0  0  0  0  0  0  0
   -4.8476    2.5809   -2.1957 H   0  0  0  0  0  0  0  0  0  0  0  0
   -5.2875    3.2051   -0.5589 H   0  0  0  0  0  0  0  0  0  0  0  0
   -3.1658    2.8170   -0.9531 H   0  0  0  0  0  0  0  0  0  0  0  0
   -0.9035    2.3198   -0.2217 H   0  0  0  0  0  0  0  0  0  0  0  0
    1.8433    0.0147    1.4920 H   0  0  0  0  0  0  0  0  0  0  0  0
    1.0556    1.5801    1.4618 H   0  0  0  0  0  0  0  0  0  0  0  0
    1.7618   -0.0745   -1.0386 H   0  0  0  0  0  0  0  0  0  0  0  0
    1.0022    1.5054   -1.0666 H   0  0  0  0  0  0  0  0  0  0  0  0
    2.9347    2.6063   -0.0174 H   0  0  0  0  0  0  0  0  0  0  0  0
    3.4057    1.7057   -1.4613 H   0  0  0  0  0  0  0  0  0  0  0  0
    5.7669    1.8226   -0.5816 H   0  0  0  0  0  0  0  0  0  0  0  0
    4.9302    2.6546    0.7287 H   0  0  0  0  0  0  0  0  0  0  0  0
    5.9851    1.3162    1.1477 H   0  0  0  0  0  0  0  0  0  0  0  0
    3.2156   -1.0688   -0.0770 H   0  0  0  0  0  0  0  0  0  0  0  0
    4.4034   -0.4957   -1.2374 H   0  0  0  0  0  0  0  0  0  0  0  0
    5.0699   -2.4004   -0.0153 H   0  0  0  0  0  0  0  0  0  0  0  0
    5.0202   -1.6298    1.5543 H   0  0  0  0  0  0  0  0  0  0  0  0
    6.8479   -0.2710   -0.3741 H   0  0  0  0  0  0  0  0  0  0  0  0
    9.4417   -0.8643    1.3791 H   0  0  0  0  0  0  0  0  0  0  0  0
    9.1556   -1.0327   -0.4106 H   0  0  0  0  0  0  0  0  0  0  0  0
    9.6563   -2.4616    0.6119 H   0  0  0  0  0  0  0  0  0  0  0  0
   -2.1413   -1.5691    1.0592 H   0  0  0  0  0  0  0  0  0  0  0  0
   -3.5138   -2.8118   -0.4508 H   0  0  0  0  0  0  0  0  0  0  0  0
   -5.2197   -4.5722   -0.2424 H   0  0  0  0  0  0  0  0  0  0  0  0
   -7.4474   -4.0097    0.7007 H   0  0  0  0  0  0  0  0  0  0  0  0
   -7.8801   -1.6939    1.4025 H   0  0  0  0  0  0  0  0  0  0  0  0
   -6.1826    0.0309    1.1924 H   0  0  0  0  0  0  0  0  0  0  0  0
  1  2  1  0
  2  3  1  0
  3  4  1  0
  4  5  2  0
  5  6  1  0
  6  7  2  0
  7  8  1  0
  8  9  1  0
  9 10  1  0
 10 11  1  0
 11 12  1  0
 12 13  1  0
 12 14  1  0
 14 15  1  0
 15 16  1  0
 16 17  1  0
 17 18  1  0
 17 19  2  0
  7 20  1  0
 20 21  2  0
 21 22  1  0
 22 23  2  0
 23 24  1  0
 24 25  2  0
 25 26  1  0
 26 27  2  0
 21  4  1  0
 27 22  1  0
  1 28  1  0
  1 29  1  0
  1 30  1  0
  2 31  1  0
  2 32  1  0
  5 33  1  0
  6 34  1  0
  9 35  1  0
  9 36  1  0
 10 37  1  0
 10 38  1  0
 11 39  1  0
 11 40  1  0
 13 41  1  0
 13 42  1  0
 13 43  1  0
 14 44  1  0
 14 45  1  0
 15 46  1  0
 15 47  1  0
 16 48  1  0
 18 49  1  0
 18 50  1  0
 18 51  1  0
 20 52  1  0
 23 53  1  0
 24 54  1  0
 25 55  1  0
 26 56  1  0
 27 57  1  0
M  END
$$$$
[H]c1c(N([H])c2nc(N([H])c3c([H])c(N([H])C(=O)c4c([H])c(N5C([H])([H])C([H])([H])N(C([H])([H])[H])C([H])([H])C5([H])[H])c([H])c(C(F)(F)F)c4[H])c([H])c([H])c3C([H])([H])[H])nc3nn([H])c([H])c23)noc1C([H])([H])[H]
     RDKit          3D

 73 78  0  0  0  0  0  0  0  0999 V2000
   -7.6631    4.7165   -0.3687 C   0  0  0  0  0  0  0  0  0  0  0  0
   -7.1057    3.4788   -0.7601 N   0  0  0  0  0  0  0  0  0  0  0  0
   -7.7948    2.2915   -0.4688 C   0  0  0  0  0  0  0  0  0  0  0  0
   -6.9530    1.2162    0.1701 C   0  0  0  0  0  0  0  0  0  0  0  0
   -5.6017    1.1776   -0.3845 N   0  0  0  0  0  0  0  0  0  0  0  0
   -4.8883    2.4337   -0.3675 C   0  0  0  0  0  0  0  0  0  0  0  0
   -5.7510    3.4395   -1.1296 C   0  0  0  0  0  0  0  0  0  0  0  0
   -5.0645   -0.0082   -0.9396 C   0  0  0  0  0  0  0  0  0  0  0  0
   -3.8199   -0.4971   -0.6786 C   0  0  0  0  0  0  0  0  0  0  0  0
   -3.3456   -1.6601   -1.2801 C   0  0  0  0  0  0  0  0  0  0  0  0
   -4.1645   -2.3245   -2.1556 C   0  0  0  0  0  0  0  0  0  0  0  0
   -5.4374   -1.8543   -2.4444 C   0  0  0  0  0  0  0  0  0  0  0  0
   -5.8717   -0.7134   -1.8404 C   0  0  0  0  0  0  0  0  0  0  0  0
   -6.2511   -2.6258   -3.3978 C   0  0  0  0  0  0  0  0  0  0  0  0
   -7.3720   -1.8974   -3.7357 F   0  0  0  0  0  0  0  0  0  0  0  0
   -6.6426   -3.7897   -2.7095 F   0  0  0  0  0  0  0  0  0  0  0  0
   -5.5459   -3.0106   -4.5047 F   0  0  0  0  0  0  0  0  0  0  0  0
   -2.0259   -2.1999   -1.0178 C   0  0  0  0  0  0  0  0  0  0  0  0
   -1.5629   -3.0952   -1.8307 O   0  0  0  0  0  0  0  0  0  0  0  0
   -1.1681   -1.8403    0.0557 N   0  0  0  0  0  0  0  0  0  0  0  0
    0.0921   -2.5163    0.1135 C   0  0  0  0  0  0  0  0  0  0  0  0
    0.1085   -3.8773   -0.0509 C   0  0  0  0  0  0  0  0  0  0  0  0
    1.3362   -4.4980   -0.0841 C   0  0  0  0  0  0  0  0  0  0  0  0
    2.5088   -3.8325    0.0370 C   0  0  0  0  0  0  0  0  0  0  0  0
    3.8137   -4.5310    0.0308 C   0  0  0  0  0  0  0  0  0  0  0  0
    2.5166   -2.4213    0.2120 C   0  0  0  0  0  0  0  0  0  0  0  0
    3.7312   -1.7422    0.2465 N   0  0  0  0  0  0  0  0  0  0  0  0
    4.0157   -0.4660    0.8232 C   0  0  0  0  0  0  0  0  0  0  0  0
    5.2350    0.0795    0.7228 N   0  0  0  0  0  0  0  0  0  0  0  0
    5.6724    1.1976    1.2891 C   0  0  0  0  0  0  0  0  0  0  0  0
    6.9936    1.6565    1.1223 N   0  0  0  0  0  0  0  0  0  0  0  0
    7.9073    0.9950    0.2849 C   0  0  0  0  0  0  0  0  0  0  0  0
    9.2190    1.2981    0.0892 C   0  0  0  0  0  0  0  0  0  0  0  0
    9.7068    0.3356   -0.8450 C   0  0  0  0  0  0  0  0  0  0  0  0
   11.1351    0.3645   -1.2944 C   0  0  0  0  0  0  0  0  0  0  0  0
    8.7165   -0.3749   -1.0848 O   0  0  0  0  0  0  0  0  0  0  0  0
    7.6098   -0.1172   -0.5051 N   0  0  0  0  0  0  0  0  0  0  0  0
    4.7782    1.8852    2.0774 C   0  0  0  0  0  0  0  0  0  0  0  0
    4.8137    3.0350    2.8232 C   0  0  0  0  0  0  0  0  0  0  0  0
    3.6186    3.1987    3.3841 N   0  0  0  0  0  0  0  0  0  0  0  0
    2.8257    2.2005    3.0261 N   0  0  0  0  0  0  0  0  0  0  0  0
    3.4797    1.3386    2.2123 C   0  0  0  0  0  0  0  0  0  0  0  0
    3.1337    0.2008    1.5951 N   0  0  0  0  0  0  0  0  0  0  0  0
    1.3013   -1.8088    0.2447 C   0  0  0  0  0  0  0  0  0  0  0  0
   -8.4612    4.5726    0.3951 H   0  0  0  0  0  0  0  0  0  0  0  0
   -8.1727    5.2166   -1.2404 H   0  0  0  0  0  0  0  0  0  0  0  0
   -6.8970    5.4502   -0.0146 H   0  0  0  0  0  0  0  0  0  0  0  0
   -8.6276    2.5282    0.2607 H   0  0  0  0  0  0  0  0  0  0  0  0
   -8.3318    1.9101   -1.3689 H   0  0  0  0  0  0  0  0  0  0  0  0
   -6.9578    1.3520    1.2717 H   0  0  0  0  0  0  0  0  0  0  0  0
   -7.4574    0.2549   -0.0426 H   0  0  0  0  0  0  0  0  0  0  0  0
   -3.9526    2.3157   -1.0022 H   0  0  0  0  0  0  0  0  0  0  0  0
   -4.5693    2.7897    0.6117 H   0  0  0  0  0  0  0  0  0  0  0  0
   -5.2961    4.4292   -0.9879 H   0  0  0  0  0  0  0  0  0  0  0  0
   -5.6763    3.1589   -2.2110 H   0  0  0  0  0  0  0  0  0  0  0  0
   -3.1797    0.0120    0.0004 H   0  0  0  0  0  0  0  0  0  0  0  0
   -3.8328   -3.2307   -2.6354 H   0  0  0  0  0  0  0  0  0  0  0  0
   -6.8434   -0.3259   -2.0423 H   0  0  0  0  0  0  0  0  0  0  0  0
   -1.4451   -1.1255    0.7688 H   0  0  0  0  0  0  0  0  0  0  0  0
   -0.7995   -4.4625   -0.1437 H   0  0  0  0  0  0  0  0  0  0  0  0
    1.3521   -5.5800   -0.2151 H   0  0  0  0  0  0  0  0  0  0  0  0
    4.5465   -4.1301   -0.6730 H   0  0  0  0  0  0  0  0  0  0  0  0
    4.1792   -4.5947    1.0857 H   0  0  0  0  0  0  0  0  0  0  0  0
    3.6487   -5.6106   -0.2469 H   0  0  0  0  0  0  0  0  0  0  0  0
    4.5919   -2.1997   -0.2167 H   0  0  0  0  0  0  0  0  0  0  0  0
    7.3008    2.5105    1.6202 H   0  0  0  0  0  0  0  0  0  0  0  0
    9.8457    2.0730    0.4903 H   0  0  0  0  0  0  0  0  0  0  0  0
   11.6632   -0.4777   -0.8052 H   0  0  0  0  0  0  0  0  0  0  0  0
   11.2078    0.1564   -2.3809 H   0  0  0  0  0  0  0  0  0  0  0  0
   11.6644    1.2951   -0.9891 H   0  0  0  0  0  0  0  0  0  0  0  0
    5.7306    3.6374    2.8691 H   0  0  0  0  0  0  0  0  0  0  0  0
    3.3568    3.9976    4.0058 H   0  0  0  0  0  0  0  0  0  0  0  0
    1.1731   -0.7600    0.3548 H   0  0  0  0  0  0  0  0  0  0  0  0
  1  2  1  0
  2  3  1  0
  3  4  1  0
  4  5  1  0
  5  6  1  0
  6  7  1  0
  5  8  1  0
  8  9  2  0
  9 10  1  0
 10 11  2  0
 11 12  1  0
 12 13  2  0
 12 14  1  0
 14 15  1  0
 14 16  1  0
 14 17  1  0
 10 18  1  0
 18 19  2  0
 18 20  1  0
 20 21  1  0
 21 22  2  0
 22 23  1  0
 23 24  2  0
 24 25  1  0
 24 26  1  0
 26 27  1  0
 27 28  1  0
 28 29  1  0
 29 30  2  0
 30 31  1  0
 31 32  1  0
 32 33  1  0
 33 34  2  0
 34 35  1  0
 34 36  1  0
 36 37  1  0
 30 38  1  0
 38 39  2  0
 39 40  1  0
 40 41  1  0
 41 42  2  0
 42 43  1  0
 26 44  2  0
  7  2  1  0
 13  8  1  0
 44 21  1  0
 43 28  2  0
 37 32  2  0
 42 38  1  0
  1 45  1  0
  1 46  1  0
  1 47  1  0
  3 48  1  0
  3 49  1  0
  4 50  1  0
  4 51  1  0
  6 52  1  0
  6 53  1  0
  7 54  1  0
  7 55  1  0
  9 56  1  0
 11 57  1  0
 13 58  1  0
 20 59  1  0
 22 60  1  0
 23 61  1  0
 25 62  1  0
 25 63  1  0
 25 64  1  0
 27 65  1  0
 31 66  1  0
 33 67  1  0
 35 68  1  0
 35 69  1  0
 35 70  1  0
 39 71  1  0
 40 72  1  0
 44 73  1  0
M  END
$$$$
[H]OC([H])([H])[C@@]1(O[H])C([H])([H])[C@@]2([H])O[C@]1(C([H])([H])[H])n1c3c([H])c([H])c([H])c([H])c3c3c4c(c5c6c([H])c([H])c([H])c([H])c6n2c5c31)C(=O)N([H])C4=O
     RDKit          3D

 53 60  0  0  0  0  0  0  0  0999 V2000
   -3.2536   -0.3191   -1.3077 C   0  0  0  0  0  0  0  0  0  0  0  0
   -1.9922   -0.5302   -0.4891 C   0  0  2  0  0  0  0  0  0  0  0  0
   -1.2261   -1.3263   -1.3816 O   0  0  0  0  0  0  0  0  0  0  0  0
   -0.4552   -2.1851   -0.6434 C   0  0  2  0  0  0  0  0  0  0  0  0
   -1.1492   -2.4550    0.6346 C   0  0  0  0  0  0  0  0  0  0  0  0
   -2.1837   -1.3578    0.7255 C   0  0  1  0  0  0  0  0  0  0  0  0
   -1.9546   -0.6647    1.9131 O   0  0  0  0  0  0  0  0  0  0  0  0
   -3.5376   -2.0044    0.8351 C   0  0  0  0  0  0  0  0  0  0  0  0
   -3.5035   -2.8809    1.9429 O   0  0  0  0  0  0  0  0  0  0  0  0
    0.8706   -1.5405   -0.4677 N   0  0  0  0  0  0  0  0  0  0  0  0
    2.0538   -2.1365   -0.4814 C   0  0  0  0  0  0  0  0  0  0  0  0
    2.3914   -3.4572   -0.6338 C   0  0  0  0  0  0  0  0  0  0  0  0
    3.7055   -3.8346   -0.6121 C   0  0  0  0  0  0  0  0  0  0  0  0
    4.7011   -2.9015   -0.4384 C   0  0  0  0  0  0  0  0  0  0  0  0
    4.3734   -1.5527   -0.2818 C   0  0  0  0  0  0  0  0  0  0  0  0
    3.0666   -1.1853   -0.3044 C   0  0  0  0  0  0  0  0  0  0  0  0
    2.4186    0.0421   -0.1795 C   0  0  0  0  0  0  0  0  0  0  0  0
    2.8449    1.3517    0.0302 C   0  0  0  0  0  0  0  0  0  0  0  0
    4.1760    1.9185    0.1715 C   0  0  0  0  0  0  0  0  0  0  0  0
    5.3248    1.4136    0.1523 O   0  0  0  0  0  0  0  0  0  0  0  0
    3.9953    3.3287    0.3634 N   0  0  0  0  0  0  0  0  0  0  0  0
    2.5851    3.6428    0.3433 C   0  0  0  0  0  0  0  0  0  0  0  0
    2.1845    4.8257    0.4922 O   0  0  0  0  0  0  0  0  0  0  0  0
    1.9021    2.3866    0.1339 C   0  0  0  0  0  0  0  0  0  0  0  0
    0.5577    2.0739    0.0234 C   0  0  0  0  0  0  0  0  0  0  0  0
   -0.6212    2.8071    0.1087 C   0  0  0  0  0  0  0  0  0  0  0  0
   -0.8522    4.1373    0.3325 C   0  0  0  0  0  0  0  0  0  0  0  0
   -2.1789    4.5830    0.3956 C   0  0  0  0  0  0  0  0  0  0  0  0
   -3.2184    3.7235    0.2404 C   0  0  0  0  0  0  0  0  0  0  0  0
   -2.9946    2.3720    0.0133 C   0  0  0  0  0  0  0  0  0  0  0  0
   -1.6901    1.9279   -0.0519 C   0  0  0  0  0  0  0  0  0  0  0  0
   -1.2201    0.6787   -0.2397 N   0  0  0  0  0  0  0  0  0  0  0  0
    0.1527    0.7758   -0.1867 C   0  0  0  0  0  0  0  0  0  0  0  0
    1.0789   -0.2375   -0.2874 C   0  0  0  0  0  0  0  0  0  0  0  0
   -3.1208    0.5742   -1.9395 H   0  0  0  0  0  0  0  0  0  0  0  0
   -3.3563   -1.1553   -2.0912 H   0  0  0  0  0  0  0  0  0  0  0  0
   -4.1831   -0.4024   -0.7531 H   0  0  0  0  0  0  0  0  0  0  0  0
   -0.2576   -3.0975   -1.2082 H   0  0  0  0  0  0  0  0  0  0  0  0
   -1.6411   -3.4681    0.5339 H   0  0  0  0  0  0  0  0  0  0  0  0
   -0.4690   -2.4559    1.5142 H   0  0  0  0  0  0  0  0  0  0  0  0
   -1.6587   -1.3562    2.5850 H   0  0  0  0  0  0  0  0  0  0  0  0
   -4.2695   -1.2222    1.1100 H   0  0  0  0  0  0  0  0  0  0  0  0
   -3.8200   -2.6146   -0.0282 H   0  0  0  0  0  0  0  0  0  0  0  0
   -4.2951   -3.4856    1.8211 H   0  0  0  0  0  0  0  0  0  0  0  0
    1.5744   -4.1807   -0.7709 H   0  0  0  0  0  0  0  0  0  0  0  0
    3.9673   -4.8787   -0.7329 H   0  0  0  0  0  0  0  0  0  0  0  0
    5.7406   -3.1581   -0.4159 H   0  0  0  0  0  0  0  0  0  0  0  0
    5.1602   -0.8441   -0.1477 H   0  0  0  0  0  0  0  0  0  0  0  0
    4.7619    4.0384    0.4993 H   0  0  0  0  0  0  0  0  0  0  0  0
   -0.0814    4.8576    0.4628 H   0  0  0  0  0  0  0  0  0  0  0  0
   -2.3091    5.6540    0.5756 H   0  0  0  0  0  0  0  0  0  0  0  0
   -4.2457    4.0593    0.2881 H   0  0  0  0  0  0  0  0  0  0  0  0
   -3.8490    1.7165   -0.0715 H   0  0  0  0  0  0  0  0  0  0  0  0
  2  1  1  6
  2  3  1  0
  3  4  1  0
  4  5  1  0
  5  6  1  0
  6  7  1  1
  6  8  1  0
  8  9  1  0
  4 10  1  0
 10 11  1  0
 11 12  2  0
 12 13  1  0
 13 14  2  0
 14 15  1  0
 15 16  2  0
 16 17  1  0
 17 18  2  0
 18 19  1  0
 19 20  2  0
 19 21  1  0
 21 22  1  0
 22 23  2  0
 22 24  1  0
 24 25  2  0
 25 26  1  0
 26 27  2  0
 27 28  1  0
 28 29  2  0
 29 30  1  0
 30 31  2  0
 31 32  1  0
 32 33  1  0
 33 34  2  0
  6  2  1  0
 34 10  1  0
 32  2  1  0
 16 11  1  0
 34 17  1  0
 24 18  1  0
 33 25  1  0
 31 26  1  0
  1 35  1  0
  1 36  1  0
  1 37  1  0
  4 38  1  6
  5 39  1  0
  5 40  1  0
  7 41  1  0
  8 42  1  0
  8 43  1  0
  9 44  1  0
 12 45  1  0
 13 46  1  0
 14 47  1  0
 15 48  1  0
 21 49  1  0
 27 50  1  0
 28 51  1  0
 29 52  1  0
 30 53  1  0
M  END
$$$$
[H]c1nc(N([H])C(=O)c2sc([H])c([H])c2[H])c2c(-c3c([H])c([H])c([H])c([H])c3[H])c(-c3c([H])c([H])c(OC([H])([H])C([H])([H])N(C([H])([H])[H])C([H])([H])[H])c([H])c3[H])oc2n1
     RDKit          3D

 59 63  0  0  0  0  0  0  0  0999 V2000
    8.0406   -0.8421   -0.3805 C   0  0  0  0  0  0  0  0  0  0  0  0
    7.3598   -0.7168    0.9319 N   0  0  0  0  0  0  0  0  0  0  0  0
    7.0143   -1.9977    1.4500 C   0  0  0  0  0  0  0  0  0  0  0  0
    6.2705    0.2228    0.8087 C   0  0  0  0  0  0  0  0  0  0  0  0
    5.4761    0.4519    2.0598 C   0  0  0  0  0  0  0  0  0  0  0  0
    4.4514    1.3691    1.8137 O   0  0  0  0  0  0  0  0  0  0  0  0
    3.3666    1.2027    1.0329 C   0  0  0  0  0  0  0  0  0  0  0  0
    3.0917    0.0144    0.4126 C   0  0  0  0  0  0  0  0  0  0  0  0
    1.9883   -0.1151   -0.3807 C   0  0  0  0  0  0  0  0  0  0  0  0
    1.0993    0.9590   -0.5885 C   0  0  0  0  0  0  0  0  0  0  0  0
    1.3763    2.1447    0.0335 C   0  0  0  0  0  0  0  0  0  0  0  0
    2.4827    2.2843    0.8330 C   0  0  0  0  0  0  0  0  0  0  0  0
   -0.0416    0.7841   -1.4684 C   0  0  0  0  0  0  0  0  0  0  0  0
   -0.0586    0.7567   -2.7537 O   0  0  0  0  0  0  0  0  0  0  0  0
   -1.2821    0.5733   -3.2127 C   0  0  0  0  0  0  0  0  0  0  0  0
   -1.7373    0.4727   -4.4740 N   0  0  0  0  0  0  0  0  0  0  0  0
   -3.0342    0.2730   -4.7334 C   0  0  0  0  0  0  0  0  0  0  0  0
   -3.9255    0.1669   -3.7555 N   0  0  0  0  0  0  0  0  0  0  0  0
   -3.5179    0.2654   -2.4278 C   0  0  0  0  0  0  0  0  0  0  0  0
   -4.4752    0.3454   -1.4248 N   0  0  0  0  0  0  0  0  0  0  0  0
   -5.3972    0.4214   -0.4619 C   0  0  0  0  0  0  0  0  0  0  0  0
   -5.2492    1.2487    0.5303 O   0  0  0  0  0  0  0  0  0  0  0  0
   -6.6743   -0.3320   -0.3001 C   0  0  0  0  0  0  0  0  0  0  0  0
   -7.2250   -1.2937   -1.1060 C   0  0  0  0  0  0  0  0  0  0  0  0
   -8.4037   -1.8195   -0.7316 C   0  0  0  0  0  0  0  0  0  0  0  0
   -8.9686   -1.3599    0.4238 C   0  0  0  0  0  0  0  0  0  0  0  0
   -7.8301   -0.2063    0.9449 S   0  0  0  0  0  0  0  0  0  0  0  0
   -2.1741    0.4709   -2.1670 C   0  0  0  0  0  0  0  0  0  0  0  0
   -1.3677    0.6060   -1.0446 C   0  0  0  0  0  0  0  0  0  0  0  0
   -1.8002    0.5332    0.3282 C   0  0  0  0  0  0  0  0  0  0  0  0
   -2.1363   -0.6674    0.9096 C   0  0  0  0  0  0  0  0  0  0  0  0
   -2.5016   -0.6887    2.2548 C   0  0  0  0  0  0  0  0  0  0  0  0
   -2.5426    0.4420    3.0359 C   0  0  0  0  0  0  0  0  0  0  0  0
   -2.2094    1.6269    2.4582 C   0  0  0  0  0  0  0  0  0  0  0  0
   -1.8477    1.6775    1.1363 C   0  0  0  0  0  0  0  0  0  0  0  0
    9.1199   -0.9858   -0.1732 H   0  0  0  0  0  0  0  0  0  0  0  0
    7.6418   -1.7030   -0.9277 H   0  0  0  0  0  0  0  0  0  0  0  0
    7.8805    0.1389   -0.8898 H   0  0  0  0  0  0  0  0  0  0  0  0
    5.9777   -2.1592    1.7275 H   0  0  0  0  0  0  0  0  0  0  0  0
    7.6516   -2.1528    2.3691 H   0  0  0  0  0  0  0  0  0  0  0  0
    7.3805   -2.7691    0.7356 H   0  0  0  0  0  0  0  0  0  0  0  0
    6.7896    1.2264    0.6118 H   0  0  0  0  0  0  0  0  0  0  0  0
    5.6720   -0.0468   -0.0649 H   0  0  0  0  0  0  0  0  0  0  0  0
    6.1271    0.8505    2.8696 H   0  0  0  0  0  0  0  0  0  0  0  0
    4.9999   -0.4815    2.4219 H   0  0  0  0  0  0  0  0  0  0  0  0
    3.6993   -0.8822    0.5286 H   0  0  0  0  0  0  0  0  0  0  0  0
    1.7291   -1.0283   -0.8940 H   0  0  0  0  0  0  0  0  0  0  0  0
    0.7232    2.9895   -0.1016 H   0  0  0  0  0  0  0  0  0  0  0  0
    2.7006    3.2167    1.3219 H   0  0  0  0  0  0  0  0  0  0  0  0
   -3.4036    0.1965   -5.7769 H   0  0  0  0  0  0  0  0  0  0  0  0
   -5.1943   -0.5852   -2.0552 H   0  0  0  0  0  0  0  0  0  0  0  0
   -6.7269   -1.6406   -2.0410 H   0  0  0  0  0  0  0  0  0  0  0  0
   -8.9410   -2.5997   -1.3253 H   0  0  0  0  0  0  0  0  0  0  0  0
   -9.9254   -1.6946    0.8622 H   0  0  0  0  0  0  0  0  0  0  0  0
   -2.1149   -1.5758    0.3330 H   0  0  0  0  0  0  0  0  0  0  0  0
   -2.7735   -1.6231    2.7294 H   0  0  0  0  0  0  0  0  0  0  0  0
   -2.8207    0.4438    4.0917 H   0  0  0  0  0  0  0  0  0  0  0  0
   -2.2072    2.5775    2.9979 H   0  0  0  0  0  0  0  0  0  0  0  0
   -1.6028    2.6262    0.6626 H   0  0  0  0  0  0  0  0  0  0  0  0
  1  2  1  0
  2  3  1  0
  2  4  1  0
  4  5  1  0
  5  6  1  0
  6  7  1  0
  7  8  2  0
  8  9  1  0
  9 10  2  0
 10 11  1  0
 11 12  2  0
 10 13  1  0
 13 14  1  0
 14 15  1  0
 15 16  2  0
 16 17  1  0
 17 18  2  0
 18 19  1  0
 19 20  1  0
 20 21  1  0
 21 22  2  0
 21 23  1  0
 23 24  2  0
 24 25  1  0
 25 26  2  0
 26 27  1  0
 19 28  2  0
 28 29  1  0
 29 30  1  0
 30 31  2  0
 31 32  1  0
 32 33  2  0
 33 34  1  0
 34 35  2  0
 12  7  1  0
 29 13  2  0
 35 30  1  0
 28 15  1  0
 27 23  1  0
  1 36  1  0
  1 37  1  0
  1 38  1  0
  3 39  1  0
  3 40  1  0
  3 41  1  0
  4 42  1  0
  4 43  1  0
  5 44  1  0
  5 45  1  0
  8 46  1  0
  9 47  1  0
 11 48  1  0
 12 49  1  0
 17 50  1  0
 20 51  1  0
 24 52  1  0
 25 53  1  0
 26 54  1  0
 31 55  1  0
 32 56  1  0
 33 57  1  0
 34 58  1  0
 35 59  1  0
M  END
$$$$
[H]C([H])=C([H])S(=O)(=O)N([H])c1c([H])c([H])c([H])c(N([H])c2c([H])c([H])c3c(N([H])C(=O)c4c([H])c([H])c(N5C([H])([H])C([H])([H])N(S(=O)(=O)C([H])([H])[H])C([H])([H])C5([H])[H])c([H])c4OC([H])([H])[H])nn([H])c3c2[H])c1[H]
     RDKit          3D

 74 78  0  0  0  0  0  0  0  0999 V2000
   -1.6180    1.1259    1.3284 C   0  0  0  0  0  0  0  0  0  0  0  0
   -1.5627    0.3647    0.1448 O   0  0  0  0  0  0  0  0  0  0  0  0
   -2.6524   -0.2750   -0.3802 C   0  0  0  0  0  0  0  0  0  0  0  0
   -3.8532   -0.1648    0.2839 C   0  0  0  0  0  0  0  0  0  0  0  0
   -5.0128   -0.7656   -0.1531 C   0  0  0  0  0  0  0  0  0  0  0  0
   -4.8963   -1.4986   -1.3190 C   0  0  0  0  0  0  0  0  0  0  0  0
   -3.7225   -1.6357   -2.0129 C   0  0  0  0  0  0  0  0  0  0  0  0
   -2.5505   -1.0107   -1.5441 C   0  0  0  0  0  0  0  0  0  0  0  0
   -1.3365   -1.1821   -2.3065 C   0  0  0  0  0  0  0  0  0  0  0  0
   -1.4125   -1.8987   -3.3702 O   0  0  0  0  0  0  0  0  0  0  0  0
   -0.0575   -0.6647   -2.0436 N   0  0  0  0  0  0  0  0  0  0  0  0
    1.0501   -0.9371   -2.9221 C   0  0  0  0  0  0  0  0  0  0  0  0
    1.0964   -1.6552   -4.0493 N   0  0  0  0  0  0  0  0  0  0  0  0
    2.3165   -1.6538   -4.5549 N   0  0  0  0  0  0  0  0  0  0  0  0
    3.1291   -0.9110   -3.7470 C   0  0  0  0  0  0  0  0  0  0  0  0
    4.4616   -0.5883   -3.8020 C   0  0  0  0  0  0  0  0  0  0  0  0
    5.0341    0.2094   -2.8083 C   0  0  0  0  0  0  0  0  0  0  0  0
    6.3990    0.5397   -2.9463 N   0  0  0  0  0  0  0  0  0  0  0  0
    7.2103    0.8261   -1.8235 C   0  0  0  0  0  0  0  0  0  0  0  0
    8.3182    1.6801   -1.9574 C   0  0  0  0  0  0  0  0  0  0  0  0
    9.1238    1.9204   -0.8739 C   0  0  0  0  0  0  0  0  0  0  0  0
    8.8738    1.3399    0.3591 C   0  0  0  0  0  0  0  0  0  0  0  0
    7.8109    0.5087    0.5223 C   0  0  0  0  0  0  0  0  0  0  0  0
    7.4998   -0.1090    1.7462 N   0  0  0  0  0  0  0  0  0  0  0  0
    8.5693   -0.9112    2.7971 S   0  0  0  0  0  0  0  0  0  0  0  0
    7.8311   -1.4838    3.9775 O   0  0  0  0  0  0  0  0  0  0  0  0
    9.2170   -2.0951    2.1143 O   0  0  0  0  0  0  0  0  0  0  0  0
    9.7813    0.2175    3.3662 C   0  0  0  0  0  0  0  0  0  0  0  0
    9.5262    1.0628    4.3552 C   0  0  0  0  0  0  0  0  0  0  0  0
    6.9973    0.2712   -0.5888 C   0  0  0  0  0  0  0  0  0  0  0  0
    4.2599    0.6698   -1.7768 C   0  0  0  0  0  0  0  0  0  0  0  0
    2.9268    0.3270   -1.7520 C   0  0  0  0  0  0  0  0  0  0  0  0
    2.3231   -0.4643   -2.7223 C   0  0  0  0  0  0  0  0  0  0  0  0
   -6.2402   -0.6387    0.5422 N   0  0  0  0  0  0  0  0  0  0  0  0
   -6.3038    0.2086    1.7092 C   0  0  0  0  0  0  0  0  0  0  0  0
   -7.7209    0.6324    2.0251 C   0  0  0  0  0  0  0  0  0  0  0  0
   -8.6405   -0.4546    2.0639 N   0  0  0  0  0  0  0  0  0  0  0  0
   -8.2028   -1.6550    1.4300 C   0  0  0  0  0  0  0  0  0  0  0  0
   -7.4393   -1.3232    0.1393 C   0  0  0  0  0  0  0  0  0  0  0  0
  -10.1842    0.0490    1.5097 S   0  0  0  0  0  0  0  0  0  0  0  0
  -10.7899    1.3228    2.5862 C   0  0  0  0  0  0  0  0  0  0  0  0
  -10.1435    0.5636    0.0918 O   0  0  0  0  0  0  0  0  0  0  0  0
  -11.1793   -1.0839    1.5261 O   0  0  0  0  0  0  0  0  0  0  0  0
   -2.3114    1.9909    1.2376 H   0  0  0  0  0  0  0  0  0  0  0  0
   -2.0279    0.4510    2.1270 H   0  0  0  0  0  0  0  0  0  0  0  0
   -0.6117    1.4551    1.6383 H   0  0  0  0  0  0  0  0  0  0  0  0
   -3.8929    0.4285    1.2065 H   0  0  0  0  0  0  0  0  0  0  0  0
   -5.8012   -1.9923   -1.7009 H   0  0  0  0  0  0  0  0  0  0  0  0
   -3.6743   -2.2186   -2.9215 H   0  0  0  0  0  0  0  0  0  0  0  0
    0.1479   -0.0732   -1.2238 H   0  0  0  0  0  0  0  0  0  0  0  0
    2.6780   -2.1151   -5.4171 H   0  0  0  0  0  0  0  0  0  0  0  0
    5.0481   -0.9652   -4.6273 H   0  0  0  0  0  0  0  0  0  0  0  0
    6.8325    0.5745   -3.9353 H   0  0  0  0  0  0  0  0  0  0  0  0
    8.4852    2.1161   -2.9310 H   0  0  0  0  0  0  0  0  0  0  0  0
    9.9672    2.5887   -1.0316 H   0  0  0  0  0  0  0  0  0  0  0  0
    9.5543    1.5885    1.1448 H   0  0  0  0  0  0  0  0  0  0  0  0
    6.4731   -0.0702    2.0521 H   0  0  0  0  0  0  0  0  0  0  0  0
   10.7619    0.2309    2.9049 H   0  0  0  0  0  0  0  0  0  0  0  0
   10.2861    1.7378    4.6784 H   0  0  0  0  0  0  0  0  0  0  0  0
    8.5597    1.0828    4.8436 H   0  0  0  0  0  0  0  0  0  0  0  0
    6.1730   -0.4124   -0.4071 H   0  0  0  0  0  0  0  0  0  0  0  0
    4.6297    1.2993   -0.9813 H   0  0  0  0  0  0  0  0  0  0  0  0
    2.2596    0.6656   -0.9527 H   0  0  0  0  0  0  0  0  0  0  0  0
   -5.7739    1.1657    1.4264 H   0  0  0  0  0  0  0  0  0  0  0  0
   -5.7646   -0.1884    2.5688 H   0  0  0  0  0  0  0  0  0  0  0  0
   -8.0233    1.4378    1.3011 H   0  0  0  0  0  0  0  0  0  0  0  0
   -7.6987    1.1140    3.0246 H   0  0  0  0  0  0  0  0  0  0  0  0
   -9.0191   -2.3202    1.1499 H   0  0  0  0  0  0  0  0  0  0  0  0
   -7.4465   -2.1497    2.1023 H   0  0  0  0  0  0  0  0  0  0  0  0
   -7.2789   -2.2936   -0.3572 H   0  0  0  0  0  0  0  0  0  0  0  0
   -8.0390   -0.6362   -0.5056 H   0  0  0  0  0  0  0  0  0  0  0  0
  -11.8601    1.1489    2.8328 H   0  0  0  0  0  0  0  0  0  0  0  0
  -10.6599    2.3127    2.0770 H   0  0  0  0  0  0  0  0  0  0  0  0
  -10.2094    1.3302    3.5118 H   0  0  0  0  0  0  0  0  0  0  0  0
  1  2  1  0
  2  3  1  0
  3  4  2  0
  4  5  1  0
  5  6  2  0
  6  7  1  0
  7  8  2  0
  8  9  1  0
  9 10  2  0
  9 11  1  0
 11 12  1  0
 12 13  2  0
 13 14  1  0
 14 15  1  0
 15 16  2  0
 16 17  1  0
 17 18  1  0
 18 19  1  0
 19 20  2  0
 20 21  1  0
 21 22  2  0
 22 23  1  0
 23 24  1  0
 24 25  1  0
 25 26  2  0
 25 27  2  0
 25 28  1  0
 28 29  2  3
 23 30  2  0
 17 31  2  0
 31 32  1  0
 32 33  2  0
  5 34  1  0
 34 35  1  0
 35 36  1  0
 36 37  1  0
 37 38  1  0
 38 39  1  0
 37 40  1  0
 40 41  1  0
 40 42  2  0
 40 43  2  0
  8  3  1  0
 33 12  1  0
 39 34  1  0
 33 15  1  0
 30 19  1  0
  1 44  1  0
  1 45  1  0
  1 46  1  0
  4 47  1  0
  6 48  1  0
  7 49  1  0
 11 50  1  0
 14 51  1  0
 16 52  1  0
 18 53  1  0
 20 54  1  0
 21 55  1  0
 22 56  1  0
 24 57  1  0
 28 58  1  0
 29 59  1  0
 29 60  1  0
 30 61  1  0
 31 62  1  0
 32 63  1  0
 35 64  1  0
 35 65  1  0
 36 66  1  0
 36 67  1  0
 38 68  1  0
 38 69  1  0
 39 70  1  0
 39 71  1  0
 41 72  1  0
 41 73  1  0
 41 74  1  0
M  END
$$$$
[H]c1c([H])c([H])c2c(c1[H])c1c3c(c4c5c([H])c([H])c([H])c([H])c5n5c4c1n2C1([H])O[C@@]5(C([H])([H])[H])[C@]([H])(OC([H])([H])[H])[C@]([H])(N([H])C([H])([H])[H])C1([H])[H])C([H])([H])N([H])C3=O
     RDKit          3D

 61 68  0  0  0  0  0  0  0  0999 V2000
   -3.5629   -2.3714    1.6152 C   0  0  0  0  0  0  0  0  0  0  0  0
   -3.1396   -1.0595    1.2056 N   0  0  0  0  0  0  0  0  0  0  0  0
   -2.8076   -1.0224   -0.2351 C   0  0  2  0  0  0  0  0  0  0  0  0
   -1.6773   -1.9365   -0.4513 C   0  0  0  0  0  0  0  0  0  0  0  0
   -0.7677   -1.5182   -1.5686 C   0  0  0  0  0  0  0  0  0  0  0  0
   -0.9038   -0.3292   -2.0847 O   0  0  0  0  0  0  0  0  0  0  0  0
   -1.3936    0.7614   -1.3814 C   0  0  1  0  0  0  0  0  0  0  0  0
   -1.7100    1.7309   -2.5420 C   0  0  0  0  0  0  0  0  0  0  0  0
   -2.6358    0.3964   -0.7147 C   0  0  2  0  0  0  0  0  0  0  0  0
   -3.0629    1.1796    0.3486 O   0  0  0  0  0  0  0  0  0  0  0  0
   -4.3099    1.7627    0.1433 C   0  0  0  0  0  0  0  0  0  0  0  0
   -0.3125    1.3098   -0.5645 N   0  0  0  0  0  0  0  0  0  0  0  0
   -0.1806    2.5601   -0.1074 C   0  0  0  0  0  0  0  0  0  0  0  0
   -0.9672    3.6618   -0.1931 C   0  0  0  0  0  0  0  0  0  0  0  0
   -0.6027    4.8625    0.3735 C   0  0  0  0  0  0  0  0  0  0  0  0
    0.5973    5.0088    1.0667 C   0  0  0  0  0  0  0  0  0  0  0  0
    1.3975    3.8931    1.1556 C   0  0  0  0  0  0  0  0  0  0  0  0
    1.0186    2.7048    0.5850 C   0  0  0  0  0  0  0  0  0  0  0  0
    1.6312    1.4891    0.5421 C   0  0  0  0  0  0  0  0  0  0  0  0
    2.8523    1.0149    1.0364 C   0  0  0  0  0  0  0  0  0  0  0  0
    3.8949    1.7270    1.8147 C   0  0  0  0  0  0  0  0  0  0  0  0
    4.9399    0.7979    2.0710 N   0  0  0  0  0  0  0  0  0  0  0  0
    4.5686   -0.4517    1.4778 C   0  0  0  0  0  0  0  0  0  0  0  0
    5.3153   -1.4363    1.5596 O   0  0  0  0  0  0  0  0  0  0  0  0
    3.2722   -0.2937    0.8429 C   0  0  0  0  0  0  0  0  0  0  0  0
    2.4330   -1.1272    0.1374 C   0  0  0  0  0  0  0  0  0  0  0  0
    2.4790   -2.4409   -0.2391 C   0  0  0  0  0  0  0  0  0  0  0  0
    3.4159   -3.4238   -0.0540 C   0  0  0  0  0  0  0  0  0  0  0  0
    3.1740   -4.6949   -0.5674 C   0  0  0  0  0  0  0  0  0  0  0  0
    2.0071   -4.9543   -1.2509 C   0  0  0  0  0  0  0  0  0  0  0  0
    1.0540   -3.9579   -1.4403 C   0  0  0  0  0  0  0  0  0  0  0  0
    1.3076   -2.7178   -0.9303 C   0  0  0  0  0  0  0  0  0  0  0  0
    0.5730   -1.6276   -0.9793 N   0  0  0  0  0  0  0  0  0  0  0  0
    1.2104   -0.6426   -0.3533 C   0  0  0  0  0  0  0  0  0  0  0  0
    0.8101    0.6716   -0.1516 C   0  0  0  0  0  0  0  0  0  0  0  0
   -3.5833   -2.3414    2.7438 H   0  0  0  0  0  0  0  0  0  0  0  0
   -2.8352   -3.1650    1.3285 H   0  0  0  0  0  0  0  0  0  0  0  0
   -4.5467   -2.6640    1.2307 H   0  0  0  0  0  0  0  0  0  0  0  0
   -2.2889   -0.8047    1.7574 H   0  0  0  0  0  0  0  0  0  0  0  0
   -3.7214   -1.5209   -0.6901 H   0  0  0  0  0  0  0  0  0  0  0  0
   -1.1293   -2.0677    0.5302 H   0  0  0  0  0  0  0  0  0  0  0  0
   -2.0392   -2.9909   -0.6539 H   0  0  0  0  0  0  0  0  0  0  0  0
   -0.8410   -2.2945   -2.3858 H   0  0  0  0  0  0  0  0  0  0  0  0
   -2.7231    2.1691   -2.4397 H   0  0  0  0  0  0  0  0  0  0  0  0
   -0.9169    2.5159   -2.6094 H   0  0  0  0  0  0  0  0  0  0  0  0
   -1.7183    1.2455   -3.5348 H   0  0  0  0  0  0  0  0  0  0  0  0
   -3.4752    0.5154   -1.4808 H   0  0  0  0  0  0  0  0  0  0  0  0
   -4.6178    2.3777    1.0230 H   0  0  0  0  0  0  0  0  0  0  0  0
   -4.3226    2.4677   -0.7119 H   0  0  0  0  0  0  0  0  0  0  0  0
   -5.1049    1.0109   -0.0327 H   0  0  0  0  0  0  0  0  0  0  0  0
   -1.8874    3.5945   -0.7062 H   0  0  0  0  0  0  0  0  0  0  0  0
   -1.2336    5.7169    0.2959 H   0  0  0  0  0  0  0  0  0  0  0  0
    0.8847    5.9552    1.5129 H   0  0  0  0  0  0  0  0  0  0  0  0
    2.3494    3.9840    1.6980 H   0  0  0  0  0  0  0  0  0  0  0  0
    4.3147    2.5577    1.1784 H   0  0  0  0  0  0  0  0  0  0  0  0
    3.4970    2.1160    2.7794 H   0  0  0  0  0  0  0  0  0  0  0  0
    5.8250    1.0065    2.6048 H   0  0  0  0  0  0  0  0  0  0  0  0
    4.3272   -3.3128    0.4510 H   0  0  0  0  0  0  0  0  0  0  0  0
    3.9089   -5.5018   -0.4324 H   0  0  0  0  0  0  0  0  0  0  0  0
    1.8255   -5.9467   -1.6475 H   0  0  0  0  0  0  0  0  0  0  0  0
    0.1345   -4.1490   -1.9752 H   0  0  0  0  0  0  0  0  0  0  0  0
  1  2  1  0
  2  3  1  0
  3  4  1  0
  4  5  1  0
  5  6  1  0
  6  7  1  0
  7  8  1  6
  7  9  1  0
  9 10  1  0
 10 11  1  0
  7 12  1  0
 12 13  1  0
 13 14  2  0
 14 15  1  0
 15 16  2  0
 16 17  1  0
 17 18  2  0
 18 19  1  0
 19 20  2  0
 20 21  1  0
 21 22  1  0
 22 23  1  0
 23 24  2  0
 23 25  1  0
 25 26  2  0
 26 27  1  0
 27 28  2  0
 28 29  1  0
 29 30  2  0
 30 31  1  0
 31 32  2  0
 32 33  1  0
 33 34  1  0
 34 35  2  0
  9  3  1  0
 35 12  1  0
 33  5  1  0
 18 13  1  0
 35 19  1  0
 25 20  1  0
 34 26  1  0
 32 27  1  0
  1 36  1  0
  1 37  1  0
  1 38  1  0
  2 39  1  0
  3 40  1  6
  4 41  1  0
  4 42  1  0
  5 43  1  0
  8 44  1  0
  8 45  1  0
  8 46  1  0
  9 47  1  6
 11 48  1  0
 11 49  1  0
 11 50  1  0
 14 51  1  0
 15 52  1  0
 16 53  1  0
 17 54  1  0
 21 55  1  0
 21 56  1  0
 22 57  1  0
 28 58  1  0
 29 59  1  0
 30 60  1  0
 31 61  1  0
M  END
$$$$
[H]ON1C(=O)C(=O)N([H])[C@@]([H])(C([H])([H])c2c([H])c([H])c(-c3c([H])c([H])c(F)c(F)c3[H])c([H])c2[H])C1([H])[H]
     RDKit          3D

 38 40  0  0  0  0  0  0  0  0999 V2000
   -4.4305   -1.9751   -1.5589 O   0  0  0  0  0  0  0  0  0  0  0  0
   -4.2772   -0.7502   -0.9352 N   0  0  0  0  0  0  0  0  0  0  0  0
   -2.9695   -0.2989   -0.5459 C   0  0  0  0  0  0  0  0  0  0  0  0
   -2.9134    0.6841    0.5650 C   0  0  2  0  0  0  0  0  0  0  0  0
   -1.8920    0.2876    1.5735 C   0  0  0  0  0  0  0  0  0  0  0  0
   -0.5161    0.1704    1.1479 C   0  0  0  0  0  0  0  0  0  0  0  0
    0.3039    1.2997    1.1014 C   0  0  0  0  0  0  0  0  0  0  0  0
    1.6337    1.2288    0.7202 C   0  0  0  0  0  0  0  0  0  0  0  0
    2.1713    0.0038    0.3738 C   0  0  0  0  0  0  0  0  0  0  0  0
    1.3706   -1.1166    0.4167 C   0  0  0  0  0  0  0  0  0  0  0  0
    0.0234   -1.0424    0.8035 C   0  0  0  0  0  0  0  0  0  0  0  0
    3.5627   -0.0878   -0.0275 C   0  0  0  0  0  0  0  0  0  0  0  0
    4.2892   -1.2207    0.2282 C   0  0  0  0  0  0  0  0  0  0  0  0
    5.6017   -1.3065   -0.1505 C   0  0  0  0  0  0  0  0  0  0  0  0
    6.2028   -0.2578   -0.7903 C   0  0  0  0  0  0  0  0  0  0  0  0
    7.5187   -0.3092   -1.1846 F   0  0  0  0  0  0  0  0  0  0  0  0
    5.4936    0.9018   -1.0629 C   0  0  0  0  0  0  0  0  0  0  0  0
    6.0907    1.9545   -1.7031 F   0  0  0  0  0  0  0  0  0  0  0  0
    4.1778    0.9631   -0.6726 C   0  0  0  0  0  0  0  0  0  0  0  0
   -4.1673    0.8960    1.2579 N   0  0  0  0  0  0  0  0  0  0  0  0
   -5.3541    0.9373    0.4829 C   0  0  0  0  0  0  0  0  0  0  0  0
   -6.3247    1.6928    0.7792 O   0  0  0  0  0  0  0  0  0  0  0  0
   -5.4054    0.0640   -0.6769 C   0  0  0  0  0  0  0  0  0  0  0  0
   -6.4053    0.0101   -1.4460 O   0  0  0  0  0  0  0  0  0  0  0  0
   -4.8561   -2.5581   -0.8806 H   0  0  0  0  0  0  0  0  0  0  0  0
   -2.3789   -1.2395   -0.3512 H   0  0  0  0  0  0  0  0  0  0  0  0
   -2.5188    0.1674   -1.4618 H   0  0  0  0  0  0  0  0  0  0  0  0
   -2.6845    1.7302    0.1490 H   0  0  0  0  0  0  0  0  0  0  0  0
   -1.9510    0.9492    2.4672 H   0  0  0  0  0  0  0  0  0  0  0  0
   -2.2205   -0.7232    1.9609 H   0  0  0  0  0  0  0  0  0  0  0  0
   -0.1688    2.2257    1.3816 H   0  0  0  0  0  0  0  0  0  0  0  0
    2.2299    2.1492    0.7023 H   0  0  0  0  0  0  0  0  0  0  0  0
    1.8212   -2.0590    0.1398 H   0  0  0  0  0  0  0  0  0  0  0  0
   -0.5219   -1.9755    0.8186 H   0  0  0  0  0  0  0  0  0  0  0  0
    3.8378   -2.0810    0.7398 H   0  0  0  0  0  0  0  0  0  0  0  0
    6.1956   -2.1994    0.0443 H   0  0  0  0  0  0  0  0  0  0  0  0
    3.6086    1.8703   -0.8811 H   0  0  0  0  0  0  0  0  0  0  0  0
   -4.1772    1.0152    2.2740 H   0  0  0  0  0  0  0  0  0  0  0  0
  1  2  1  0
  2  3  1  0
  3  4  1  0
  4  5  1  0
  5  6  1  0
  6  7  2  0
  7  8  1  0
  8  9  2  0
  9 10  1  0
 10 11  2  0
  9 12  1  0
 12 13  2  0
 13 14  1  0
 14 15  2  0
 15 16  1  0
 15 17  1  0
 17 18  1  0
 17 19  2  0
  4 20  1  0
 20 21  1  0
 21 22  2  0
 21 23  1  0
 23 24  2  0
 23  2  1  0
 11  6  1  0
 19 12  1  0
  1 25  1  0
  3 26  1  0
  3 27  1  0
  4 28  1  6
  5 29  1  0
  5 30  1  0
  7 31  1  0
  8 32  1  0
 10 33  1  0
 11 34  1  0
 13 35  1  0
 14 36  1  0
 19 37  1  0
 20 38  1  0
M  END
$$$$
[H]OC(=O)C(=O)N([H])[C@]([H])(C([H])([H])c1nc2c([H])c([H])c([H])c([H])c2c([H])c1[H])C([H])([H])[C@]([H])(C(=O)N([H])[C@]([H])(C(=O)O[H])C([H])([H])c1c([H])c([H])c([H])c([H])c1[H])C([H])([H])[H]
     RDKit          3D

 62 64  0  0  0  0  0  0  0  0999 V2000
   -0.3650   -3.1206   -0.7316 C   0  0  0  0  0  0  0  0  0  0  0  0
    0.0047   -1.6927   -0.7326 C   0  0  2  0  0  0  0  0  0  0  0  0
    1.1876   -1.2355    0.0262 C   0  0  0  0  0  0  0  0  0  0  0  0
    2.4978   -1.8095   -0.3671 C   0  0  1  0  0  0  0  0  0  0  0  0
    3.6730   -1.2849    0.3770 C   0  0  0  0  0  0  0  0  0  0  0  0
    3.9708    0.1526    0.2137 C   0  0  0  0  0  0  0  0  0  0  0  0
    3.4655    0.9625   -0.7702 C   0  0  0  0  0  0  0  0  0  0  0  0
    3.7617    2.3244   -0.8502 C   0  0  0  0  0  0  0  0  0  0  0  0
    4.5928    2.9050    0.0827 C   0  0  0  0  0  0  0  0  0  0  0  0
    4.9084    4.2607    0.0325 C   0  0  0  0  0  0  0  0  0  0  0  0
    5.7458    4.8186    0.9827 C   0  0  0  0  0  0  0  0  0  0  0  0
    6.2564    4.0056    1.9733 C   0  0  0  0  0  0  0  0  0  0  0  0
    5.9280    2.6780    1.9960 C   0  0  0  0  0  0  0  0  0  0  0  0
    5.0931    2.0736    1.0658 C   0  0  0  0  0  0  0  0  0  0  0  0
    4.7907    0.7669    1.1182 N   0  0  0  0  0  0  0  0  0  0  0  0
    2.5161   -3.2456   -0.1912 N   0  0  0  0  0  0  0  0  0  0  0  0
    2.3823   -3.9271    1.0396 C   0  0  0  0  0  0  0  0  0  0  0  0
    2.2280   -3.2833    2.0938 O   0  0  0  0  0  0  0  0  0  0  0  0
    2.4215   -5.3780    1.1002 C   0  0  0  0  0  0  0  0  0  0  0  0
    2.2914   -6.0482    2.2938 O   0  0  0  0  0  0  0  0  0  0  0  0
    2.5763   -6.0271    0.0477 O   0  0  0  0  0  0  0  0  0  0  0  0
   -1.1973   -0.9428   -0.2029 C   0  0  0  0  0  0  0  0  0  0  0  0
   -1.0892   -0.2574    0.8332 O   0  0  0  0  0  0  0  0  0  0  0  0
   -2.4467   -1.0034   -0.8616 N   0  0  0  0  0  0  0  0  0  0  0  0
   -3.5856   -0.2566   -0.3076 C   0  0  1  0  0  0  0  0  0  0  0  0
   -3.9945    0.6909   -1.3895 C   0  0  0  0  0  0  0  0  0  0  0  0
   -5.1274    1.5193   -0.9886 C   0  0  0  0  0  0  0  0  0  0  0  0
   -4.9069    2.6680   -0.2572 C   0  0  0  0  0  0  0  0  0  0  0  0
   -5.9341    3.5135    0.1146 C   0  0  0  0  0  0  0  0  0  0  0  0
   -7.2146    3.1559   -0.2829 C   0  0  0  0  0  0  0  0  0  0  0  0
   -7.4698    2.0209   -1.0107 C   0  0  0  0  0  0  0  0  0  0  0  0
   -6.4050    1.2115   -1.3552 C   0  0  0  0  0  0  0  0  0  0  0  0
   -4.6582   -1.1650    0.0815 C   0  0  0  0  0  0  0  0  0  0  0  0
   -5.8006   -0.7900    0.7252 O   0  0  0  0  0  0  0  0  0  0  0  0
   -4.5405   -2.4193   -0.1873 O   0  0  0  0  0  0  0  0  0  0  0  0
    0.2720   -3.8266   -1.2485 H   0  0  0  0  0  0  0  0  0  0  0  0
   -1.3898   -3.2600   -1.2352 H   0  0  0  0  0  0  0  0  0  0  0  0
   -0.5715   -3.5342    0.2972 H   0  0  0  0  0  0  0  0  0  0  0  0
    0.0543   -1.3773   -1.8142 H   0  0  0  0  0  0  0  0  0  0  0  0
    1.2196   -0.1295   -0.0547 H   0  0  0  0  0  0  0  0  0  0  0  0
    0.9887   -1.4155    1.1334 H   0  0  0  0  0  0  0  0  0  0  0  0
    2.6351   -1.5773   -1.4642 H   0  0  0  0  0  0  0  0  0  0  0  0
    4.5774   -1.8497    0.0468 H   0  0  0  0  0  0  0  0  0  0  0  0
    3.6059   -1.4764    1.4661 H   0  0  0  0  0  0  0  0  0  0  0  0
    2.8170    0.5420   -1.5461 H   0  0  0  0  0  0  0  0  0  0  0  0
    3.3614    2.9471   -1.6216 H   0  0  0  0  0  0  0  0  0  0  0  0
    4.4933    4.8620   -0.7517 H   0  0  0  0  0  0  0  0  0  0  0  0
    6.0055    5.8720    0.9635 H   0  0  0  0  0  0  0  0  0  0  0  0
    6.9124    4.4750    2.7061 H   0  0  0  0  0  0  0  0  0  0  0  0
    6.3360    2.0569    2.7774 H   0  0  0  0  0  0  0  0  0  0  0  0
    2.6472   -3.8265   -1.0873 H   0  0  0  0  0  0  0  0  0  0  0  0
    3.0821   -6.5433    2.7126 H   0  0  0  0  0  0  0  0  0  0  0  0
   -2.5322   -1.5742   -1.7212 H   0  0  0  0  0  0  0  0  0  0  0  0
   -3.2236    0.2575    0.5994 H   0  0  0  0  0  0  0  0  0  0  0  0
   -4.2058    0.1417   -2.3468 H   0  0  0  0  0  0  0  0  0  0  0  0
   -3.1611    1.3890   -1.6448 H   0  0  0  0  0  0  0  0  0  0  0  0
   -3.8914    2.9134    0.0345 H   0  0  0  0  0  0  0  0  0  0  0  0
   -5.7769    4.4158    0.6869 H   0  0  0  0  0  0  0  0  0  0  0  0
   -8.0198    3.8285    0.0148 H   0  0  0  0  0  0  0  0  0  0  0  0
   -8.4771    1.7783   -1.2995 H   0  0  0  0  0  0  0  0  0  0  0  0
   -6.6100    0.3171   -1.9298 H   0  0  0  0  0  0  0  0  0  0  0  0
   -6.7053   -1.2467    0.6155 H   0  0  0  0  0  0  0  0  0  0  0  0
  1  2  1  0
  2  3  1  0
  3  4  1  0
  4  5  1  0
  5  6  1  0
  6  7  2  0
  7  8  1  0
  8  9  2  0
  9 10  1  0
 10 11  2  0
 11 12  1  0
 12 13  2  0
 13 14  1  0
 14 15  2  0
  4 16  1  0
 16 17  1  0
 17 18  2  0
 17 19  1  0
 19 20  1  0
 19 21  2  0
  2 22  1  0
 22 23  2  0
 22 24  1  0
 24 25  1  0
 25 26  1  0
 26 27  1  0
 27 28  2  0
 28 29  1  0
 29 30  2  0
 30 31  1  0
 31 32  2  0
 25 33  1  0
 33 34  1  0
 33 35  2  0
 15  6  1  0
 32 27  1  0
 14  9  1  0
  1 36  1  0
  1 37  1  0
  1 38  1  0
  2 39  1  6
  3 40  1  0
  3 41  1  0
  4 42  1  6
  5 43  1  0
  5 44  1  0
  7 45  1  0
  8 46  1  0
 10 47  1  0
 11 48  1  0
 12 49  1  0
 13 50  1  0
 16 51  1  0
 20 52  1  0
 24 53  1  0
 25 54  1  1
 26 55  1  0
 26 56  1  0
 28 57  1  0
 29 58  1  0
 30 59  1  0
 31 60  1  0
 32 61  1  0
 34 62  1  0
M  END
$$$$
[H]c1nc(N([H])[H])c2nc([H])c(C([H])([H])N3C4([H])C([H])([H])C([H])([H])C3([H])C([H])([H])C([H])(N([H])c3nc(C(F)(F)F)c([H])s3)C4([H])[H])n2c1[H]
     RDKit          3D

 49 53  0  0  0  0  0  0  0  0999 V2000
   -7.2401    1.3521   -0.4108 N   0  0  0  0  0  0  0  0  0  0  0  0
   -6.2178    0.5289    0.1141 C   0  0  0  0  0  0  0  0  0  0  0  0
   -6.3817   -0.0118    1.3467 N   0  0  0  0  0  0  0  0  0  0  0  0
   -5.4074   -0.7940    1.8553 C   0  0  0  0  0  0  0  0  0  0  0  0
   -4.2540   -1.0553    1.1532 C   0  0  0  0  0  0  0  0  0  0  0  0
   -4.0692   -0.5224   -0.0860 N   0  0  0  0  0  0  0  0  0  0  0  0
   -3.0751   -0.5941   -0.9898 C   0  0  0  0  0  0  0  0  0  0  0  0
   -1.8425   -1.3418   -0.8256 C   0  0  0  0  0  0  0  0  0  0  0  0
   -0.6625   -0.6690   -0.5593 N   0  0  0  0  0  0  0  0  0  0  0  0
   -0.1644    0.2782   -1.4645 C   0  0  0  0  0  0  0  0  0  0  0  0
   -0.2166    1.6465   -0.8096 C   0  0  0  0  0  0  0  0  0  0  0  0
   -0.5632    1.3564    0.6334 C   0  0  0  0  0  0  0  0  0  0  0  0
   -0.3451   -0.1649    0.7079 C   0  0  0  0  0  0  0  0  0  0  0  0
    1.1496   -0.3336    0.9365 C   0  0  0  0  0  0  0  0  0  0  0  0
    1.9500   -0.4178   -0.2943 C   0  0  0  0  0  0  0  0  0  0  0  0
    1.3375   -0.0564   -1.5881 C   0  0  0  0  0  0  0  0  0  0  0  0
    3.1607    0.3655   -0.1445 N   0  0  0  0  0  0  0  0  0  0  0  0
    4.4485   -0.2078    0.1123 C   0  0  0  0  0  0  0  0  0  0  0  0
    5.6155    0.3856    0.2880 N   0  0  0  0  0  0  0  0  0  0  0  0
    6.6825   -0.3097    0.4720 C   0  0  0  0  0  0  0  0  0  0  0  0
    6.5679   -1.6784    0.4786 C   0  0  0  0  0  0  0  0  0  0  0  0
    4.8717   -1.8610    0.2122 S   0  0  0  0  0  0  0  0  0  0  0  0
    8.0474    0.3289    0.6835 C   0  0  0  0  0  0  0  0  0  0  0  0
    7.9082    1.6210    1.1533 F   0  0  0  0  0  0  0  0  0  0  0  0
    8.8038   -0.4569    1.5189 F   0  0  0  0  0  0  0  0  0  0  0  0
    8.6465    0.3956   -0.5590 F   0  0  0  0  0  0  0  0  0  0  0  0
   -3.4827    0.1702   -2.0575 C   0  0  0  0  0  0  0  0  0  0  0  0
   -4.7047    0.7023   -1.8197 N   0  0  0  0  0  0  0  0  0  0  0  0
   -5.0670    0.2626   -0.5821 C   0  0  0  0  0  0  0  0  0  0  0  0
   -7.9046    1.7957    0.2527 H   0  0  0  0  0  0  0  0  0  0  0  0
   -7.3180    1.5089   -1.4296 H   0  0  0  0  0  0  0  0  0  0  0  0
   -5.5602   -1.2003    2.8352 H   0  0  0  0  0  0  0  0  0  0  0  0
   -3.4606   -1.6872    1.5591 H   0  0  0  0  0  0  0  0  0  0  0  0
   -1.9287   -2.1680   -0.0585 H   0  0  0  0  0  0  0  0  0  0  0  0
   -1.7012   -1.9326   -1.7806 H   0  0  0  0  0  0  0  0  0  0  0  0
   -0.6037    0.2813   -2.4724 H   0  0  0  0  0  0  0  0  0  0  0  0
   -0.9782    2.3054   -1.2799 H   0  0  0  0  0  0  0  0  0  0  0  0
    0.7427    2.1874   -0.8931 H   0  0  0  0  0  0  0  0  0  0  0  0
   -1.6150    1.6366    0.8614 H   0  0  0  0  0  0  0  0  0  0  0  0
    0.0978    1.9094    1.3123 H   0  0  0  0  0  0  0  0  0  0  0  0
   -0.9473   -0.5223    1.5520 H   0  0  0  0  0  0  0  0  0  0  0  0
    1.2575   -1.2553    1.5396 H   0  0  0  0  0  0  0  0  0  0  0  0
    1.4623    0.5003    1.6352 H   0  0  0  0  0  0  0  0  0  0  0  0
    2.3110   -1.4966   -0.4175 H   0  0  0  0  0  0  0  0  0  0  0  0
    1.3551   -0.9066   -2.3342 H   0  0  0  0  0  0  0  0  0  0  0  0
    1.8296    0.7814   -2.1093 H   0  0  0  0  0  0  0  0  0  0  0  0
    3.0724    1.3973   -0.2160 H   0  0  0  0  0  0  0  0  0  0  0  0
    7.3608   -2.4321    0.6216 H   0  0  0  0  0  0  0  0  0  0  0  0
   -2.9677    0.3786   -2.9951 H   0  0  0  0  0  0  0  0  0  0  0  0
  1  2  1  0
  2  3  2  0
  3  4  1  0
  4  5  2  0
  5  6  1  0
  6  7  1  0
  7  8  1  0
  8  9  1  0
  9 10  1  0
 10 11  1  0
 11 12  1  0
 12 13  1  0
 13 14  1  0
 14 15  1  0
 15 16  1  0
 15 17  1  0
 17 18  1  0
 18 19  2  0
 19 20  1  0
 20 21  2  0
 21 22  1  0
 20 23  1  0
 23 24  1  0
 23 25  1  0
 23 26  1  0
  7 27  2  0
 27 28  1  0
 28 29  2  0
 29  2  1  0
 29  6  1  0
 13  9  1  0
 22 18  1  0
 16 10  1  0
  1 30  1  0
  1 31  1  0
  4 32  1  0
  5 33  1  0
  8 34  1  0
  8 35  1  0
 10 36  1  0
 11 37  1  0
 11 38  1  0
 12 39  1  0
 12 40  1  0
 13 41  1  0
 14 42  1  0
 14 43  1  0
 15 44  1  0
 16 45  1  0
 16 46  1  0
 17 47  1  0
 21 48  1  0
 27 49  1  0
M  END
$$$$
[H]c1nc2sc(-c3c([H])c([H])c(C#N)c([H])c3[H])c([H])c2c(N([H])c2c([H])c([H])c3c(c([H])c([H])n3[H])c2C([H])([H])[H])c1C#N
     RDKit          3D

 45 49  0  0  0  0  0  0  0  0999 V2000
   -2.3511    1.4329   -2.4865 C   0  0  0  0  0  0  0  0  0  0  0  0
   -2.5988    1.0526   -1.0784 C   0  0  0  0  0  0  0  0  0  0  0  0
   -2.0466   -0.1211   -0.6260 C   0  0  0  0  0  0  0  0  0  0  0  0
   -1.2721   -0.9224   -1.4958 N   0  0  0  0  0  0  0  0  0  0  0  0
   -0.6839   -2.1501   -1.0497 C   0  0  0  0  0  0  0  0  0  0  0  0
   -1.4082   -3.3004   -1.1812 C   0  0  0  0  0  0  0  0  0  0  0  0
   -0.9182   -4.5203   -0.7786 C   0  0  0  0  0  0  0  0  0  0  0  0
    0.3099   -4.5354   -0.2471 N   0  0  0  0  0  0  0  0  0  0  0  0
    1.0522   -3.3888   -0.1073 C   0  0  0  0  0  0  0  0  0  0  0  0
    2.6132   -3.0507    0.5121 S   0  0  0  0  0  0  0  0  0  0  0  0
    2.6462   -1.3660    0.2619 C   0  0  0  0  0  0  0  0  0  0  0  0
    1.4258   -1.1144   -0.3034 C   0  0  0  0  0  0  0  0  0  0  0  0
    0.6026   -2.1575   -0.4943 C   0  0  0  0  0  0  0  0  0  0  0  0
    3.7140   -0.3921    0.5690 C   0  0  0  0  0  0  0  0  0  0  0  0
    4.8789   -0.8351    1.1406 C   0  0  0  0  0  0  0  0  0  0  0  0
    5.8970    0.0803    1.4355 C   0  0  0  0  0  0  0  0  0  0  0  0
    5.7496    1.4226    1.1612 C   0  0  0  0  0  0  0  0  0  0  0  0
    4.5643    1.8522    0.5830 C   0  0  0  0  0  0  0  0  0  0  0  0
    3.5454    0.9382    0.2875 C   0  0  0  0  0  0  0  0  0  0  0  0
    6.8079    2.3263    1.4753 C   0  0  0  0  0  0  0  0  0  0  0  0
    7.6666    3.0800    1.7466 N   0  0  0  0  0  0  0  0  0  0  0  0
   -2.7517   -3.2525   -1.7675 C   0  0  0  0  0  0  0  0  0  0  0  0
   -3.8009   -3.2041   -2.2176 N   0  0  0  0  0  0  0  0  0  0  0  0
   -2.2746   -0.4793    0.6846 C   0  0  0  0  0  0  0  0  0  0  0  0
   -3.0372    0.3306    1.5007 C   0  0  0  0  0  0  0  0  0  0  0  0
   -3.5961    1.5112    1.0557 C   0  0  0  0  0  0  0  0  0  0  0  0
   -4.3571    2.4678    1.6065 N   0  0  0  0  0  0  0  0  0  0  0  0
   -4.6258    3.4247    0.7009 C   0  0  0  0  0  0  0  0  0  0  0  0
   -4.0185    3.0794   -0.4813 C   0  0  0  0  0  0  0  0  0  0  0  0
   -3.3727    1.8879   -0.2739 C   0  0  0  0  0  0  0  0  0  0  0  0
   -1.2702    1.3592   -2.7256 H   0  0  0  0  0  0  0  0  0  0  0  0
   -2.6059    2.5060   -2.5968 H   0  0  0  0  0  0  0  0  0  0  0  0
   -2.9957    0.8883   -3.2061 H   0  0  0  0  0  0  0  0  0  0  0  0
   -1.1071   -0.6537   -2.4677 H   0  0  0  0  0  0  0  0  0  0  0  0
   -1.5407   -5.3862   -0.9108 H   0  0  0  0  0  0  0  0  0  0  0  0
    1.1830   -0.0587   -0.5737 H   0  0  0  0  0  0  0  0  0  0  0  0
    5.0862   -1.8652    1.3917 H   0  0  0  0  0  0  0  0  0  0  0  0
    6.8221   -0.2590    1.8874 H   0  0  0  0  0  0  0  0  0  0  0  0
    4.4681    2.9057    0.3761 H   0  0  0  0  0  0  0  0  0  0  0  0
    2.6508    1.3440   -0.1617 H   0  0  0  0  0  0  0  0  0  0  0  0
   -1.8597   -1.3959    1.0860 H   0  0  0  0  0  0  0  0  0  0  0  0
   -3.2381    0.0773    2.5448 H   0  0  0  0  0  0  0  0  0  0  0  0
   -4.6954    2.4818    2.5818 H   0  0  0  0  0  0  0  0  0  0  0  0
   -5.2153    4.3296    0.8362 H   0  0  0  0  0  0  0  0  0  0  0  0
   -4.0420    3.6307   -1.3914 H   0  0  0  0  0  0  0  0  0  0  0  0
  1  2  1  0
  2  3  2  0
  3  4  1  0
  4  5  1  0
  5  6  2  0
  6  7  1  0
  7  8  2  0
  8  9  1  0
  9 10  1  0
 10 11  1  0
 11 12  2  0
 12 13  1  0
 11 14  1  0
 14 15  2  0
 15 16  1  0
 16 17  2  0
 17 18  1  0
 18 19  2  0
 17 20  1  0
 20 21  3  0
  6 22  1  0
 22 23  3  0
  3 24  1  0
 24 25  2  0
 25 26  1  0
 26 27  1  0
 27 28  1  0
 28 29  2  0
 29 30  1  0
 30  2  1  0
 13  5  1  0
 19 14  1  0
 30 26  2  0
 13  9  2  0
  1 31  1  0
  1 32  1  0
  1 33  1  0
  4 34  1  0
  7 35  1  0
 12 36  1  0
 15 37  1  0
 16 38  1  0
 18 39  1  0
 19 40  1  0
 24 41  1  0
 25 42  1  0
 27 43  1  0
 28 44  1  0
 29 45  1  0
M  END
$$$$
[H]c1nc(N(C([H])([H])[H])C([H])(c2c([H])c3c(c([H])c2C([H])([H])[H])OC([H])([H])O3)C([H])([H])C([H])([H])[H])c2c([H])c([H])n([H])c2n1
     RDKit          3D

 44 47  0  0  0  0  0  0  0  0999 V2000
    0.9275   -2.8196    1.5647 C   0  0  0  0  0  0  0  0  0  0  0  0
   -0.1281   -1.7665    1.5485 C   0  0  0  0  0  0  0  0  0  0  0  0
   -0.2450   -1.3146    0.0863 C   0  0  0  0  0  0  0  0  0  0  0  0
    1.0112   -0.6790   -0.3161 N   0  0  0  0  0  0  0  0  0  0  0  0
    1.4514   -0.9538   -1.6822 C   0  0  0  0  0  0  0  0  0  0  0  0
    1.8486    0.1154    0.5015 C   0  0  0  0  0  0  0  0  0  0  0  0
    1.8954   -0.0249    1.8535 N   0  0  0  0  0  0  0  0  0  0  0  0
    2.7144    0.6141    2.6840 C   0  0  0  0  0  0  0  0  0  0  0  0
    3.5856    1.4785    2.1712 N   0  0  0  0  0  0  0  0  0  0  0  0
    3.6344    1.7083    0.8565 C   0  0  0  0  0  0  0  0  0  0  0  0
    4.4103    2.5586    0.1907 N   0  0  0  0  0  0  0  0  0  0  0  0
    4.0721    2.4611   -1.0939 C   0  0  0  0  0  0  0  0  0  0  0  0
    3.0543    1.5291   -1.2476 C   0  0  0  0  0  0  0  0  0  0  0  0
    2.7569    1.0223   -0.0007 C   0  0  0  0  0  0  0  0  0  0  0  0
   -1.4512   -0.4950   -0.1155 C   0  0  0  0  0  0  0  0  0  0  0  0
   -1.7896    0.6164    0.6391 C   0  0  0  0  0  0  0  0  0  0  0  0
   -2.8651    1.4267    0.3619 C   0  0  0  0  0  0  0  0  0  0  0  0
   -3.3892    2.5883    0.9697 O   0  0  0  0  0  0  0  0  0  0  0  0
   -4.7762    2.6459    0.6010 C   0  0  0  0  0  0  0  0  0  0  0  0
   -4.6605    2.1391   -0.7453 O   0  0  0  0  0  0  0  0  0  0  0  0
   -3.6751    1.1439   -0.7241 C   0  0  0  0  0  0  0  0  0  0  0  0
   -3.3919    0.0617   -1.5057 C   0  0  0  0  0  0  0  0  0  0  0  0
   -2.3183   -0.7188   -1.1992 C   0  0  0  0  0  0  0  0  0  0  0  0
   -2.1016   -1.9711   -1.9981 C   0  0  0  0  0  0  0  0  0  0  0  0
    0.4756   -3.8418    1.3425 H   0  0  0  0  0  0  0  0  0  0  0  0
    1.6568   -2.7106    0.7167 H   0  0  0  0  0  0  0  0  0  0  0  0
    1.4972   -2.9326    2.4937 H   0  0  0  0  0  0  0  0  0  0  0  0
   -0.1916   -1.0211    2.2935 H   0  0  0  0  0  0  0  0  0  0  0  0
   -1.1080   -2.3636    1.6692 H   0  0  0  0  0  0  0  0  0  0  0  0
   -0.3617   -2.2539   -0.4740 H   0  0  0  0  0  0  0  0  0  0  0  0
    1.1667   -2.0486   -1.8318 H   0  0  0  0  0  0  0  0  0  0  0  0
    2.5660   -1.0048   -1.7229 H   0  0  0  0  0  0  0  0  0  0  0  0
    0.9454   -0.4138   -2.4549 H   0  0  0  0  0  0  0  0  0  0  0  0
    2.6774    0.4235    3.7635 H   0  0  0  0  0  0  0  0  0  0  0  0
    5.1747    3.1988    0.5591 H   0  0  0  0  0  0  0  0  0  0  0  0
    4.5137    3.0135   -1.9054 H   0  0  0  0  0  0  0  0  0  0  0  0
    2.5492    1.2587   -2.1488 H   0  0  0  0  0  0  0  0  0  0  0  0
   -1.1667    0.8619    1.5094 H   0  0  0  0  0  0  0  0  0  0  0  0
   -5.3746    1.9481    1.1924 H   0  0  0  0  0  0  0  0  0  0  0  0
   -5.1638    3.6592    0.5596 H   0  0  0  0  0  0  0  0  0  0  0  0
   -4.0354   -0.1760   -2.3651 H   0  0  0  0  0  0  0  0  0  0  0  0
   -3.0323   -2.1914   -2.6035 H   0  0  0  0  0  0  0  0  0  0  0  0
   -1.2911   -1.9124   -2.6956 H   0  0  0  0  0  0  0  0  0  0  0  0
   -2.0679   -2.8592   -1.2976 H   0  0  0  0  0  0  0  0  0  0  0  0
  1  2  1  0
  2  3  1  0
  3  4  1  0
  4  5  1  0
  4  6  1  0
  6  7  2  0
  7  8  1  0
  8  9  2  0
  9 10  1  0
 10 11  1  0
 11 12  1  0
 12 13  2  0
 13 14  1  0
  3 15  1  0
 15 16  2  0
 16 17  1  0
 17 18  1  0
 18 19  1  0
 19 20  1  0
 20 21  1  0
 21 22  1  0
 22 23  2  0
 23 24  1  0
 14  6  1  0
 23 15  1  0
 14 10  2  0
 21 17  2  0
  1 25  1  0
  1 26  1  0
  1 27  1  0
  2 28  1  0
  2 29  1  0
  3 30  1  0
  5 31  1  0
  5 32  1  0
  5 33  1  0
  8 34  1  0
 11 35  1  0
 12 36  1  0
 13 37  1  0
 16 38  1  0
 19 39  1  0
 19 40  1  0
 22 41  1  0
 24 42  1  0
 24 43  1  0
 24 44  1  0
M  END
$$$$
[H]OP(=O)(O[H])OC(C([H])([H])[H])(C([H])([H])[H])[C@]([H])(c1c([H])c([H])c([H])c([H])c1[H])C([H])([H])c1c([H])c([H])c(C2([H])C([H])([H])C([H])([H])C([H])([H])C([H])([H])C2([H])[H])c([H])c1[H]
     RDKit          3D

 59 61  0  0  0  0  0  0  0  0999 V2000
   -3.9451    1.1964   -2.0925 C   0  0  0  0  0  0  0  0  0  0  0  0
   -3.6538   -0.0940   -1.4402 C   0  0  0  0  0  0  0  0  0  0  0  0
   -3.7109   -1.2216   -2.4845 C   0  0  0  0  0  0  0  0  0  0  0  0
   -4.5577   -0.3300   -0.4157 O   0  0  0  0  0  0  0  0  0  0  0  0
   -6.1527   -0.4173   -0.8505 P   0  0  0  0  0  0  0  0  0  0  0  0
   -6.5597   -1.9760   -1.4202 O   0  0  0  0  0  0  0  0  0  0  0  0
   -7.0702   -0.2365    0.5890 O   0  0  0  0  0  0  0  0  0  0  0  0
   -6.6332    0.6467   -1.7778 O   0  0  0  0  0  0  0  0  0  0  0  0
   -2.2836   -0.2234   -0.8035 C   0  0  1  0  0  0  0  0  0  0  0  0
   -1.1650   -0.0481   -1.7716 C   0  0  0  0  0  0  0  0  0  0  0  0
    0.1873   -0.1725   -1.1866 C   0  0  0  0  0  0  0  0  0  0  0  0
    0.7984   -1.4219   -1.0692 C   0  0  0  0  0  0  0  0  0  0  0  0
    2.0646   -1.5543   -0.5367 C   0  0  0  0  0  0  0  0  0  0  0  0
    2.7758   -0.4652   -0.1006 C   0  0  0  0  0  0  0  0  0  0  0  0
    2.1878    0.7739   -0.2094 C   0  0  0  0  0  0  0  0  0  0  0  0
    0.9078    0.9115   -0.7474 C   0  0  0  0  0  0  0  0  0  0  0  0
    4.1527   -0.5988    0.4798 C   0  0  0  0  0  0  0  0  0  0  0  0
    4.2124   -0.0834    1.8933 C   0  0  0  0  0  0  0  0  0  0  0  0
    5.5724   -0.4514    2.4497 C   0  0  0  0  0  0  0  0  0  0  0  0
    6.7046    0.0412    1.5971 C   0  0  0  0  0  0  0  0  0  0  0  0
    6.5349   -0.2431    0.1378 C   0  0  0  0  0  0  0  0  0  0  0  0
    5.1470    0.1709   -0.3412 C   0  0  0  0  0  0  0  0  0  0  0  0
   -2.1553    0.4488    0.4895 C   0  0  0  0  0  0  0  0  0  0  0  0
   -1.9280   -0.2108    1.6924 C   0  0  0  0  0  0  0  0  0  0  0  0
   -1.8209    0.4321    2.8894 C   0  0  0  0  0  0  0  0  0  0  0  0
   -1.9373    1.7922    2.9492 C   0  0  0  0  0  0  0  0  0  0  0  0
   -2.1618    2.4858    1.7885 C   0  0  0  0  0  0  0  0  0  0  0  0
   -2.2662    1.8117    0.5901 C   0  0  0  0  0  0  0  0  0  0  0  0
   -3.0671    1.7461   -2.4863 H   0  0  0  0  0  0  0  0  0  0  0  0
   -4.5495    1.9050   -1.4939 H   0  0  0  0  0  0  0  0  0  0  0  0
   -4.5574    0.9815   -3.0190 H   0  0  0  0  0  0  0  0  0  0  0  0
   -3.2464   -2.1390   -2.1143 H   0  0  0  0  0  0  0  0  0  0  0  0
   -3.0842   -0.8355   -3.3422 H   0  0  0  0  0  0  0  0  0  0  0  0
   -4.7166   -1.3362   -2.9099 H   0  0  0  0  0  0  0  0  0  0  0  0
   -5.9538   -2.6078   -0.9484 H   0  0  0  0  0  0  0  0  0  0  0  0
   -7.2704    0.7393    0.7272 H   0  0  0  0  0  0  0  0  0  0  0  0
   -2.2519   -1.3436   -0.5522 H   0  0  0  0  0  0  0  0  0  0  0  0
   -1.2234    0.9180   -2.3556 H   0  0  0  0  0  0  0  0  0  0  0  0
   -1.1983   -0.8338   -2.5861 H   0  0  0  0  0  0  0  0  0  0  0  0
    0.2120   -2.2601   -1.4218 H   0  0  0  0  0  0  0  0  0  0  0  0
    2.5195   -2.5448   -0.4565 H   0  0  0  0  0  0  0  0  0  0  0  0
    2.7160    1.6430    0.1216 H   0  0  0  0  0  0  0  0  0  0  0  0
    0.4940    1.9138   -0.8176 H   0  0  0  0  0  0  0  0  0  0  0  0
    4.4754   -1.6579    0.4950 H   0  0  0  0  0  0  0  0  0  0  0  0
    3.4590   -0.5740    2.5471 H   0  0  0  0  0  0  0  0  0  0  0  0
    4.1419    1.0184    1.9034 H   0  0  0  0  0  0  0  0  0  0  0  0
    5.7336   -0.0585    3.4740 H   0  0  0  0  0  0  0  0  0  0  0  0
    5.6726   -1.5635    2.5104 H   0  0  0  0  0  0  0  0  0  0  0  0
    6.9288    1.1121    1.7285 H   0  0  0  0  0  0  0  0  0  0  0  0
    7.6229   -0.5232    1.9298 H   0  0  0  0  0  0  0  0  0  0  0  0
    6.6208   -1.3283   -0.1046 H   0  0  0  0  0  0  0  0  0  0  0  0
    7.2529    0.3388   -0.4445 H   0  0  0  0  0  0  0  0  0  0  0  0
    4.9746    1.2594   -0.1510 H   0  0  0  0  0  0  0  0  0  0  0  0
    5.0682   -0.0795   -1.4117 H   0  0  0  0  0  0  0  0  0  0  0  0
   -1.8360   -1.3016    1.6349 H   0  0  0  0  0  0  0  0  0  0  0  0
   -1.6429   -0.1833    3.7663 H   0  0  0  0  0  0  0  0  0  0  0  0
   -1.8467    2.2759    3.9227 H   0  0  0  0  0  0  0  0  0  0  0  0
   -2.2533    3.5566    1.8371 H   0  0  0  0  0  0  0  0  0  0  0  0
   -2.4386    2.4116   -0.2807 H   0  0  0  0  0  0  0  0  0  0  0  0
  1  2  1  0
  2  3  1  0
  2  4  1  0
  4  5  1  0
  5  6  1  0
  5  7  1  0
  5  8  2  0
  2  9  1  0
  9 10  1  0
 10 11  1  0
 11 12  2  0
 12 13  1  0
 13 14  2  0
 14 15  1  0
 15 16  2  0
 14 17  1  0
 17 18  1  0
 18 19  1  0
 19 20  1  0
 20 21  1  0
 21 22  1  0
  9 23  1  0
 23 24  2  0
 24 25  1  0
 25 26  2  0
 26 27  1  0
 27 28  2  0
 16 11  1  0
 22 17  1  0
 28 23  1  0
  1 29  1  0
  1 30  1  0
  1 31  1  0
  3 32  1  0
  3 33  1  0
  3 34  1  0
  6 35  1  0
  7 36  1  0
  9 37  1  1
 10 38  1  0
 10 39  1  0
 12 40  1  0
 13 41  1  0
 15 42  1  0
 16 43  1  0
 17 44  1  0
 18 45  1  0
 18 46  1  0
 19 47  1  0
 19 48  1  0
 20 49  1  0
 20 50  1  0
 21 51  1  0
 21 52  1  0
 22 53  1  0
 22 54  1  0
 24 55  1  0
 25 56  1  0
 26 57  1  0
 27 58  1  0
 28 59  1  0
M  END
$$$$
[H]c1nc(N([H])[H])c2c(-c3c([H])c([H])c4c(c3[H])C([H])([H])C(=O)N4C([H])([H])c3c([H])c([H])c([H])c(F)c3C([H])([H])[H])nn(C3([H])C([H])([H])C([H])([H])N(C([H])(C([H])([H])[H])C([H])([H])[H])C([H])([H])C3([H])[H])c2n1
     RDKit          3D

 70 75  0  0  0  0  0  0  0  0999 V2000
    7.3305    2.8886   -0.7945 C   0  0  0  0  0  0  0  0  0  0  0  0
    7.5174    1.3716   -0.6598 C   0  0  0  0  0  0  0  0  0  0  0  0
    8.3948    1.1684    0.5559 C   0  0  0  0  0  0  0  0  0  0  0  0
    6.2586    0.6999   -0.5514 N   0  0  0  0  0  0  0  0  0  0  0  0
    5.5005    0.9211   -1.7720 C   0  0  0  0  0  0  0  0  0  0  0  0
    4.2402    0.0484   -1.7763 C   0  0  0  0  0  0  0  0  0  0  0  0
    4.0216   -0.3836   -0.3548 C   0  0  0  0  0  0  0  0  0  0  0  0
    5.0924   -1.3460    0.0398 C   0  0  0  0  0  0  0  0  0  0  0  0
    6.4201   -0.7120   -0.3618 C   0  0  0  0  0  0  0  0  0  0  0  0
    2.6887   -0.8369   -0.0655 N   0  0  0  0  0  0  0  0  0  0  0  0
    1.6150   -0.1643   -0.3867 N   0  0  0  0  0  0  0  0  0  0  0  0
    0.4804   -0.8342    0.0131 C   0  0  0  0  0  0  0  0  0  0  0  0
   -0.8707   -0.3336   -0.1767 C   0  0  0  0  0  0  0  0  0  0  0  0
   -1.8770   -0.9857   -0.8330 C   0  0  0  0  0  0  0  0  0  0  0  0
   -3.1618   -0.4707   -0.9663 C   0  0  0  0  0  0  0  0  0  0  0  0
   -3.4429    0.7596   -0.4126 C   0  0  0  0  0  0  0  0  0  0  0  0
   -4.6464    1.5528   -0.3780 N   0  0  0  0  0  0  0  0  0  0  0  0
   -5.9168    1.1844   -0.9730 C   0  0  0  0  0  0  0  0  0  0  0  0
   -6.7768    0.4403   -0.0382 C   0  0  0  0  0  0  0  0  0  0  0  0
   -6.3268    0.1790    1.2314 C   0  0  0  0  0  0  0  0  0  0  0  0
   -7.0641   -0.5070    2.1651 C   0  0  0  0  0  0  0  0  0  0  0  0
   -8.3176   -0.9672    1.8431 C   0  0  0  0  0  0  0  0  0  0  0  0
   -8.7992   -0.7213    0.5757 C   0  0  0  0  0  0  0  0  0  0  0  0
  -10.0384   -1.1706    0.2454 F   0  0  0  0  0  0  0  0  0  0  0  0
   -8.0284   -0.0190   -0.3609 C   0  0  0  0  0  0  0  0  0  0  0  0
   -8.5557    0.2395   -1.7210 C   0  0  0  0  0  0  0  0  0  0  0  0
   -4.4044    2.7659    0.3290 C   0  0  0  0  0  0  0  0  0  0  0  0
   -5.2737    3.6539    0.5178 O   0  0  0  0  0  0  0  0  0  0  0  0
   -2.9844    2.7444    0.7641 C   0  0  0  0  0  0  0  0  0  0  0  0
   -2.4604    1.4513    0.2560 C   0  0  0  0  0  0  0  0  0  0  0  0
   -1.2069    0.9072    0.3652 C   0  0  0  0  0  0  0  0  0  0  0  0
    0.9015   -1.9786    0.6130 C   0  0  0  0  0  0  0  0  0  0  0  0
    0.2597   -3.0423    1.2252 C   0  0  0  0  0  0  0  0  0  0  0  0
   -1.1529   -3.0873    1.3446 N   0  0  0  0  0  0  0  0  0  0  0  0
    1.0411   -4.0242    1.7353 N   0  0  0  0  0  0  0  0  0  0  0  0
    2.3808   -3.9710    1.6537 C   0  0  0  0  0  0  0  0  0  0  0  0
    3.0247   -2.9501    1.0675 N   0  0  0  0  0  0  0  0  0  0  0  0
    2.2880   -1.9537    0.5481 C   0  0  0  0  0  0  0  0  0  0  0  0
    8.2896    3.4133   -0.6065 H   0  0  0  0  0  0  0  0  0  0  0  0
    7.0098    3.1664   -1.8192 H   0  0  0  0  0  0  0  0  0  0  0  0
    6.5237    3.2162   -0.0966 H   0  0  0  0  0  0  0  0  0  0  0  0
    8.1006    1.0785   -1.5753 H   0  0  0  0  0  0  0  0  0  0  0  0
    7.7461    1.3118    1.4623 H   0  0  0  0  0  0  0  0  0  0  0  0
    9.1444    2.0125    0.5464 H   0  0  0  0  0  0  0  0  0  0  0  0
    8.9275    0.2156    0.5597 H   0  0  0  0  0  0  0  0  0  0  0  0
    5.1478    1.9713   -1.7328 H   0  0  0  0  0  0  0  0  0  0  0  0
    6.1171    0.7404   -2.6755 H   0  0  0  0  0  0  0  0  0  0  0  0
    3.3892    0.6376   -2.1382 H   0  0  0  0  0  0  0  0  0  0  0  0
    4.3718   -0.8074   -2.4696 H   0  0  0  0  0  0  0  0  0  0  0  0
    4.1733    0.5405    0.2802 H   0  0  0  0  0  0  0  0  0  0  0  0
    5.1120   -1.4161    1.1644 H   0  0  0  0  0  0  0  0  0  0  0  0
    5.0474   -2.3279   -0.4189 H   0  0  0  0  0  0  0  0  0  0  0  0
    6.6766   -1.1302   -1.3783 H   0  0  0  0  0  0  0  0  0  0  0  0
    7.1765   -0.9855    0.3789 H   0  0  0  0  0  0  0  0  0  0  0  0
   -1.7003   -1.9487   -1.3061 H   0  0  0  0  0  0  0  0  0  0  0  0
   -3.9325   -1.0023   -1.4850 H   0  0  0  0  0  0  0  0  0  0  0  0
   -5.7365    0.6321   -1.9218 H   0  0  0  0  0  0  0  0  0  0  0  0
   -6.4353    2.1238   -1.2625 H   0  0  0  0  0  0  0  0  0  0  0  0
   -5.3397    0.5193    1.5434 H   0  0  0  0  0  0  0  0  0  0  0  0
   -6.7034   -0.7113    3.1691 H   0  0  0  0  0  0  0  0  0  0  0  0
   -8.9194   -1.5191    2.5838 H   0  0  0  0  0  0  0  0  0  0  0  0
   -9.6517    0.4275   -1.6241 H   0  0  0  0  0  0  0  0  0  0  0  0
   -8.4527   -0.6836   -2.3281 H   0  0  0  0  0  0  0  0  0  0  0  0
   -8.0597    1.1088   -2.1974 H   0  0  0  0  0  0  0  0  0  0  0  0
   -2.8818    2.8141    1.8650 H   0  0  0  0  0  0  0  0  0  0  0  0
   -2.4827    3.5799    0.2273 H   0  0  0  0  0  0  0  0  0  0  0  0
   -0.4357    1.4563    0.8929 H   0  0  0  0  0  0  0  0  0  0  0  0
   -1.7539   -3.7857    0.8353 H   0  0  0  0  0  0  0  0  0  0  0  0
   -1.5888   -2.3757    1.9798 H   0  0  0  0  0  0  0  0  0  0  0  0
    2.9701   -4.7895    2.0805 H   0  0  0  0  0  0  0  0  0  0  0  0
  1  2  1  0
  2  3  1  0
  2  4  1  0
  4  5  1  0
  5  6  1  0
  6  7  1  0
  7  8  1  0
  8  9  1  0
  7 10  1  0
 10 11  1  0
 11 12  2  0
 12 13  1  0
 13 14  2  0
 14 15  1  0
 15 16  2  0
 16 17  1  0
 17 18  1  0
 18 19  1  0
 19 20  2  0
 20 21  1  0
 21 22  2  0
 22 23  1  0
 23 24  1  0
 23 25  2  0
 25 26  1  0
 17 27  1  0
 27 28  2  0
 27 29  1  0
 29 30  1  0
 30 31  2  0
 12 32  1  0
 32 33  2  0
 33 34  1  0
 33 35  1  0
 35 36  2  0
 36 37  1  0
 37 38  2  0
  9  4  1  0
 38 10  1  0
 31 13  1  0
 38 32  1  0
 30 16  1  0
 25 19  1  0
  1 39  1  0
  1 40  1  0
  1 41  1  0
  2 42  1  0
  3 43  1  0
  3 44  1  0
  3 45  1  0
  5 46  1  0
  5 47  1  0
  6 48  1  0
  6 49  1  0
  7 50  1  0
  8 51  1  0
  8 52  1  0
  9 53  1  0
  9 54  1  0
 14 55  1  0
 15 56  1  0
 18 57  1  0
 18 58  1  0
 20 59  1  0
 21 60  1  0
 22 61  1  0
 26 62  1  0
 26 63  1  0
 26 64  1  0
 29 65  1  0
 29 66  1  0
 31 67  1  0
 34 68  1  0
 34 69  1  0
 36 70  1  0
M  END
$$$$
[H]c1c([H])c([H])c(C([H])([H])N2C([H])([H])C([H])([H])C([H])(N([H])C(=O)c3c([H])n([H])c4c([H])c(Cl)c([H])c([H])c34)C([H])([H])C2([H])[H])c([H])c1[H]
     RDKit          3D

 48 51  0  0  0  0  0  0  0  0999 V2000
    8.9376    1.4937    1.8934 Cl  0  0  0  0  0  0  0  0  0  0  0  0
    7.4092    0.9987    1.1862 C   0  0  0  0  0  0  0  0  0  0  0  0
    6.2428    1.6709    1.4894 C   0  0  0  0  0  0  0  0  0  0  0  0
    5.0461    1.2759    0.9298 C   0  0  0  0  0  0  0  0  0  0  0  0
    4.9484    0.2117    0.0558 C   0  0  0  0  0  0  0  0  0  0  0  0
    3.8715   -0.3574   -0.6193 C   0  0  0  0  0  0  0  0  0  0  0  0
    4.4343   -1.4027   -1.3444 C   0  0  0  0  0  0  0  0  0  0  0  0
    5.7569   -1.4357   -1.1028 N   0  0  0  0  0  0  0  0  0  0  0  0
    6.1137   -0.4607   -0.2478 C   0  0  0  0  0  0  0  0  0  0  0  0
    7.3152   -0.0651    0.3132 C   0  0  0  0  0  0  0  0  0  0  0  0
    2.4706    0.0498   -0.5763 C   0  0  0  0  0  0  0  0  0  0  0  0
    2.2400    1.2821   -0.5047 O   0  0  0  0  0  0  0  0  0  0  0  0
    1.3915   -0.8479   -0.6103 N   0  0  0  0  0  0  0  0  0  0  0  0
    0.0390   -0.3692   -0.5643 C   0  0  0  0  0  0  0  0  0  0  0  0
   -0.6556   -0.8514    0.7016 C   0  0  0  0  0  0  0  0  0  0  0  0
   -2.0348   -0.2511    0.7355 C   0  0  0  0  0  0  0  0  0  0  0  0
   -2.4310    0.3991   -0.4380 N   0  0  0  0  0  0  0  0  0  0  0  0
   -3.4067    1.3917   -0.3803 C   0  0  0  0  0  0  0  0  0  0  0  0
   -4.6743    0.8119    0.1638 C   0  0  0  0  0  0  0  0  0  0  0  0
   -4.9701    0.8015    1.5107 C   0  0  0  0  0  0  0  0  0  0  0  0
   -6.1450    0.2621    1.9959 C   0  0  0  0  0  0  0  0  0  0  0  0
   -7.0758   -0.2938    1.1242 C   0  0  0  0  0  0  0  0  0  0  0  0
   -6.7845   -0.2859   -0.2247 C   0  0  0  0  0  0  0  0  0  0  0  0
   -5.5987    0.2603   -0.6966 C   0  0  0  0  0  0  0  0  0  0  0  0
   -2.1288   -0.1977   -1.6779 C   0  0  0  0  0  0  0  0  0  0  0  0
   -0.7894   -0.8784   -1.7236 C   0  0  0  0  0  0  0  0  0  0  0  0
    6.2891    2.5141    2.1758 H   0  0  0  0  0  0  0  0  0  0  0  0
    4.1025    1.7925    1.1532 H   0  0  0  0  0  0  0  0  0  0  0  0
    3.8467   -2.0539   -1.9862 H   0  0  0  0  0  0  0  0  0  0  0  0
    6.4441   -2.1089   -1.5039 H   0  0  0  0  0  0  0  0  0  0  0  0
    8.2288   -0.5943    0.0738 H   0  0  0  0  0  0  0  0  0  0  0  0
    1.5630   -1.8649   -0.6691 H   0  0  0  0  0  0  0  0  0  0  0  0
    0.0475    0.7307   -0.5031 H   0  0  0  0  0  0  0  0  0  0  0  0
   -0.7101   -1.9577    0.6917 H   0  0  0  0  0  0  0  0  0  0  0  0
   -0.0260   -0.5325    1.5770 H   0  0  0  0  0  0  0  0  0  0  0  0
   -2.0390    0.4818    1.5895 H   0  0  0  0  0  0  0  0  0  0  0  0
   -2.7920   -1.0154    1.0187 H   0  0  0  0  0  0  0  0  0  0  0  0
   -3.5560    1.8475   -1.3714 H   0  0  0  0  0  0  0  0  0  0  0  0
   -3.1672    2.2532    0.3086 H   0  0  0  0  0  0  0  0  0  0  0  0
   -4.2434    1.2375    2.2099 H   0  0  0  0  0  0  0  0  0  0  0  0
   -6.3848    0.2516    3.0674 H   0  0  0  0  0  0  0  0  0  0  0  0
   -7.9758   -0.7020    1.5443 H   0  0  0  0  0  0  0  0  0  0  0  0
   -7.5211   -0.7229   -0.8865 H   0  0  0  0  0  0  0  0  0  0  0  0
   -5.3759    0.2620   -1.7705 H   0  0  0  0  0  0  0  0  0  0  0  0
   -2.9147   -0.9472   -1.9214 H   0  0  0  0  0  0  0  0  0  0  0  0
   -2.1480    0.5969   -2.4766 H   0  0  0  0  0  0  0  0  0  0  0  0
   -0.2985   -0.7041   -2.7007 H   0  0  0  0  0  0  0  0  0  0  0  0
   -0.8915   -1.9763   -1.5965 H   0  0  0  0  0  0  0  0  0  0  0  0
  1  2  1  0
  2  3  2  0
  3  4  1  0
  4  5  2  0
  5  6  1  0
  6  7  2  0
  7  8  1  0
  8  9  1  0
  9 10  2  0
  6 11  1  0
 11 12  2  0
 11 13  1  0
 13 14  1  0
 14 15  1  0
 15 16  1  0
 16 17  1  0
 17 18  1  0
 18 19  1  0
 19 20  2  0
 20 21  1  0
 21 22  2  0
 22 23  1  0
 23 24  2  0
 17 25  1  0
 25 26  1  0
 10  2  1  0
 26 14  1  0
  9  5  1  0
 24 19  1  0
  3 27  1  0
  4 28  1  0
  7 29  1  0
  8 30  1  0
 10 31  1  0
 13 32  1  0
 14 33  1  0
 15 34  1  0
 15 35  1  0
 16 36  1  0
 16 37  1  0
 18 38  1  0
 18 39  1  0
 20 40  1  0
 21 41  1  0
 22 42  1  0
 23 43  1  0
 24 44  1  0
 25 45  1  0
 25 46  1  0
 26 47  1  0
 26 48  1  0
M  END
$$$$
[H]N=C(c1c([H])c([H])c(OC(=O)c2c([H])c([H])c(C3([H])C([H])([H])C([H])([H])C3([H])[H])n2C([H])([H])[C@]([H])(C(=O)O[H])N([H])S(=O)(=O)c2c([H])c([H])c(Cl)c([H])c2[H])c([H])c1[H])N([H])[H]
     RDKit          3D

 62 65  0  0  0  0  0  0  0  0999 V2000
    8.1790   -3.7089   -0.9965 N   0  0  0  0  0  0  0  0  0  0  0  0
    7.7639   -2.8818    0.0597 C   0  0  0  0  0  0  0  0  0  0  0  0
    8.3872   -2.9476    1.1847 N   0  0  0  0  0  0  0  0  0  0  0  0
    6.6473   -1.9706   -0.1209 C   0  0  0  0  0  0  0  0  0  0  0  0
    6.2637   -1.1730    0.9436 C   0  0  0  0  0  0  0  0  0  0  0  0
    5.2092   -0.3227    0.7604 C   0  0  0  0  0  0  0  0  0  0  0  0
    4.5293   -0.2388   -0.4333 C   0  0  0  0  0  0  0  0  0  0  0  0
    3.4673    0.6798   -0.4719 O   0  0  0  0  0  0  0  0  0  0  0  0
    2.1691    0.3025   -0.1416 C   0  0  0  0  0  0  0  0  0  0  0  0
    2.0245   -0.8773    0.1808 O   0  0  0  0  0  0  0  0  0  0  0  0
    1.0330    1.2279   -0.1676 C   0  0  0  0  0  0  0  0  0  0  0  0
    1.2677    2.5925   -0.4337 C   0  0  0  0  0  0  0  0  0  0  0  0
    0.0744    3.2190   -0.3193 C   0  0  0  0  0  0  0  0  0  0  0  0
   -0.8654    2.2470    0.0095 C   0  0  0  0  0  0  0  0  0  0  0  0
   -2.2916    2.6544    0.2845 C   0  0  0  0  0  0  0  0  0  0  0  0
   -2.3377    3.8747    1.2211 C   0  0  0  0  0  0  0  0  0  0  0  0
   -3.5050    4.3600    0.3670 C   0  0  0  0  0  0  0  0  0  0  0  0
   -2.8865    3.5260   -0.7611 C   0  0  0  0  0  0  0  0  0  0  0  0
   -0.2720    1.0345    0.0936 N   0  0  0  0  0  0  0  0  0  0  0  0
   -0.9362   -0.1960    0.3393 C   0  0  0  0  0  0  0  0  0  0  0  0
   -1.5993   -0.9269   -0.7572 C   0  0  1  0  0  0  0  0  0  0  0  0
   -2.6489   -0.1055   -1.3851 N   0  0  0  0  0  0  0  0  0  0  0  0
   -4.2049   -0.7471   -1.2468 S   0  0  0  0  0  0  0  0  0  0  0  0
   -5.1514    0.2236   -1.9403 O   0  0  0  0  0  0  0  0  0  0  0  0
   -4.3249   -2.0359   -2.0058 O   0  0  0  0  0  0  0  0  0  0  0  0
   -4.7851   -0.9340    0.3823 C   0  0  0  0  0  0  0  0  0  0  0  0
   -4.5862   -2.1116    1.0678 C   0  0  0  0  0  0  0  0  0  0  0  0
   -5.0427   -2.2919    2.3755 C   0  0  0  0  0  0  0  0  0  0  0  0
   -5.7188   -1.2784    3.0319 C   0  0  0  0  0  0  0  0  0  0  0  0
   -6.2924   -1.5089    4.6748 Cl  0  0  0  0  0  0  0  0  0  0  0  0
   -5.9180   -0.1031    2.3492 C   0  0  0  0  0  0  0  0  0  0  0  0
   -5.4637    0.0628    1.0618 C   0  0  0  0  0  0  0  0  0  0  0  0
   -0.8306   -1.5551   -1.8179 C   0  0  0  0  0  0  0  0  0  0  0  0
    0.0814   -2.5581   -1.6371 O   0  0  0  0  0  0  0  0  0  0  0  0
   -0.9783   -1.1896   -3.0493 O   0  0  0  0  0  0  0  0  0  0  0  0
    4.9035   -1.0183   -1.4752 C   0  0  0  0  0  0  0  0  0  0  0  0
    5.9656   -1.8869   -1.3191 C   0  0  0  0  0  0  0  0  0  0  0  0
    8.2049   -3.3436   -1.9610 H   0  0  0  0  0  0  0  0  0  0  0  0
    8.4590   -4.6854   -0.8107 H   0  0  0  0  0  0  0  0  0  0  0  0
    9.1825   -3.5904    1.3327 H   0  0  0  0  0  0  0  0  0  0  0  0
    6.8116   -1.2466    1.8905 H   0  0  0  0  0  0  0  0  0  0  0  0
    4.9282    0.2951    1.6188 H   0  0  0  0  0  0  0  0  0  0  0  0
    2.2425    3.0363   -0.6836 H   0  0  0  0  0  0  0  0  0  0  0  0
   -0.1345    4.2976   -0.4571 H   0  0  0  0  0  0  0  0  0  0  0  0
   -2.9710    1.8990    0.6411 H   0  0  0  0  0  0  0  0  0  0  0  0
   -1.4870    4.5578    1.0987 H   0  0  0  0  0  0  0  0  0  0  0  0
   -2.6933    3.6598    2.2349 H   0  0  0  0  0  0  0  0  0  0  0  0
   -3.4958    5.4388    0.1848 H   0  0  0  0  0  0  0  0  0  0  0  0
   -4.4919    3.9976    0.6588 H   0  0  0  0  0  0  0  0  0  0  0  0
   -3.6469    3.0605   -1.4360 H   0  0  0  0  0  0  0  0  0  0  0  0
   -2.2048    4.1688   -1.3424 H   0  0  0  0  0  0  0  0  0  0  0  0
   -1.7506   -0.0076    1.1238 H   0  0  0  0  0  0  0  0  0  0  0  0
   -0.2853   -0.9416    0.8976 H   0  0  0  0  0  0  0  0  0  0  0  0
   -2.2170   -1.7818   -0.3069 H   0  0  0  0  0  0  0  0  0  0  0  0
   -2.4085    0.1463   -2.3439 H   0  0  0  0  0  0  0  0  0  0  0  0
   -4.0752   -2.9425    0.6294 H   0  0  0  0  0  0  0  0  0  0  0  0
   -4.8693   -3.2401    2.8937 H   0  0  0  0  0  0  0  0  0  0  0  0
   -6.4395    0.7003    2.8355 H   0  0  0  0  0  0  0  0  0  0  0  0
   -5.6433    1.0087    0.5611 H   0  0  0  0  0  0  0  0  0  0  0  0
    1.0012   -2.4457   -2.0343 H   0  0  0  0  0  0  0  0  0  0  0  0
    4.3666   -0.9486   -2.4098 H   0  0  0  0  0  0  0  0  0  0  0  0
    6.2911   -2.5295   -2.1445 H   0  0  0  0  0  0  0  0  0  0  0  0
  1  2  1  0
  2  3  2  3
  2  4  1  0
  4  5  2  0
  5  6  1  0
  6  7  2  0
  7  8  1  0
  8  9  1  0
  9 10  2  0
  9 11  1  0
 11 12  2  0
 12 13  1  0
 13 14  2  0
 14 15  1  0
 15 16  1  0
 16 17  1  0
 17 18  1  0
 14 19  1  0
 19 20  1  0
 20 21  1  0
 21 22  1  0
 22 23  1  0
 23 24  2  0
 23 25  2  0
 23 26  1  0
 26 27  2  0
 27 28  1  0
 28 29  2  0
 29 30  1  0
 29 31  1  0
 31 32  2  0
 21 33  1  0
 33 34  1  0
 33 35  2  0
  7 36  1  0
 36 37  2  0
 37  4  1  0
 19 11  1  0
 32 26  1  0
 18 15  1  0
  1 38  1  0
  1 39  1  0
  3 40  1  0
  5 41  1  0
  6 42  1  0
 12 43  1  0
 13 44  1  0
 15 45  1  0
 16 46  1  0
 16 47  1  0
 17 48  1  0
 17 49  1  0
 18 50  1  0
 18 51  1  0
 20 52  1  0
 20 53  1  0
 21 54  1  1
 22 55  1  0
 27 56  1  0
 28 57  1  0
 31 58  1  0
 32 59  1  0
 34 60  1  0
 36 61  1  0
 37 62  1  0
M  END
$$$$
[H]OC([H])([H])[C@@]1(O[H])C([H])([H])[C@@]2([H])O[C@]1(C([H])([H])[H])n1c3c([H])c([H])c([H])c([H])c3c3c4c(c5c6c([H])c([H])c([H])c([H])c6n2c5c31)C(=O)N([H])C4([H])[H]
     RDKit          3D

 54 61  0  0  0  0  0  0  0  0999 V2000
    3.1800    0.8838    1.3878 C   0  0  0  0  0  0  0  0  0  0  0  0
    2.1176    0.2237    0.5774 C   0  0  2  0  0  0  0  0  0  0  0  0
    1.6968   -0.7870    1.4854 O   0  0  0  0  0  0  0  0  0  0  0  0
    1.2511   -1.8639    0.7986 C   0  0  2  0  0  0  0  0  0  0  0  0
    2.0328   -1.9517   -0.4419 C   0  0  0  0  0  0  0  0  0  0  0  0
    2.6347   -0.5714   -0.5849 C   0  0  1  0  0  0  0  0  0  0  0  0
    2.2138   -0.0799   -1.8115 O   0  0  0  0  0  0  0  0  0  0  0  0
    4.1191   -0.7109   -0.6110 C   0  0  0  0  0  0  0  0  0  0  0  0
    4.4589   -1.5975   -1.6334 O   0  0  0  0  0  0  0  0  0  0  0  0
   -0.2014   -1.7853    0.5955 N   0  0  0  0  0  0  0  0  0  0  0  0
   -1.1044   -2.7499    0.6347 C   0  0  0  0  0  0  0  0  0  0  0  0
   -0.9179   -4.0868    0.8734 C   0  0  0  0  0  0  0  0  0  0  0  0
   -2.0299   -4.9199    0.8648 C   0  0  0  0  0  0  0  0  0  0  0  0
   -3.2823   -4.4161    0.6235 C   0  0  0  0  0  0  0  0  0  0  0  0
   -3.4758   -3.0511    0.3794 C   0  0  0  0  0  0  0  0  0  0  0  0
   -2.3768   -2.2421    0.3902 C   0  0  0  0  0  0  0  0  0  0  0  0
   -2.2053   -0.8905    0.1945 C   0  0  0  0  0  0  0  0  0  0  0  0
   -3.0670    0.1511   -0.0975 C   0  0  0  0  0  0  0  0  0  0  0  0
   -4.5001    0.2660   -0.2996 C   0  0  0  0  0  0  0  0  0  0  0  0
   -5.3884   -0.5871   -0.2658 O   0  0  0  0  0  0  0  0  0  0  0  0
   -4.7851    1.6416   -0.5724 N   0  0  0  0  0  0  0  0  0  0  0  0
   -3.5735    2.4248   -0.5610 C   0  0  0  0  0  0  0  0  0  0  0  0
   -2.5314    1.4168   -0.2472 C   0  0  0  0  0  0  0  0  0  0  0  0
   -1.1701    1.6669   -0.1133 C   0  0  0  0  0  0  0  0  0  0  0  0
   -0.3770    2.7657   -0.2198 C   0  0  0  0  0  0  0  0  0  0  0  0
   -0.7006    4.0705   -0.5126 C   0  0  0  0  0  0  0  0  0  0  0  0
    0.3203    5.0230   -0.5829 C   0  0  0  0  0  0  0  0  0  0  0  0
    1.6233    4.6180   -0.3553 C   0  0  0  0  0  0  0  0  0  0  0  0
    1.9232    3.2989   -0.0625 C   0  0  0  0  0  0  0  0  0  0  0  0
    0.9354    2.3466    0.0129 C   0  0  0  0  0  0  0  0  0  0  0  0
    0.9590    1.0103    0.2643 N   0  0  0  0  0  0  0  0  0  0  0  0
   -0.3578    0.6223    0.1746 C   0  0  0  0  0  0  0  0  0  0  0  0
   -0.8544   -0.6533    0.3299 C   0  0  0  0  0  0  0  0  0  0  0  0
    4.0624    1.2462    0.8471 H   0  0  0  0  0  0  0  0  0  0  0  0
    3.5596    0.1949    2.1815 H   0  0  0  0  0  0  0  0  0  0  0  0
    2.7312    1.7230    1.9466 H   0  0  0  0  0  0  0  0  0  0  0  0
    1.4219   -2.7643    1.4120 H   0  0  0  0  0  0  0  0  0  0  0  0
    1.4720   -2.2700   -1.3403 H   0  0  0  0  0  0  0  0  0  0  0  0
    2.8377   -2.7359   -0.3258 H   0  0  0  0  0  0  0  0  0  0  0  0
    2.8799   -0.3390   -2.4928 H   0  0  0  0  0  0  0  0  0  0  0  0
    4.5238   -1.1579    0.3296 H   0  0  0  0  0  0  0  0  0  0  0  0
    4.6358    0.2581   -0.8438 H   0  0  0  0  0  0  0  0  0  0  0  0
    4.7979   -2.4633   -1.2908 H   0  0  0  0  0  0  0  0  0  0  0  0
    0.0592   -4.4684    1.0598 H   0  0  0  0  0  0  0  0  0  0  0  0
   -1.8569   -5.9719    1.0560 H   0  0  0  0  0  0  0  0  0  0  0  0
   -4.1224   -5.0759    0.6219 H   0  0  0  0  0  0  0  0  0  0  0  0
   -4.4721   -2.7398    0.2018 H   0  0  0  0  0  0  0  0  0  0  0  0
   -5.7336    2.0654   -0.7610 H   0  0  0  0  0  0  0  0  0  0  0  0
   -3.6366    3.2333    0.1993 H   0  0  0  0  0  0  0  0  0  0  0  0
   -3.3846    2.8954   -1.5673 H   0  0  0  0  0  0  0  0  0  0  0  0
   -1.7294    4.3700   -0.6881 H   0  0  0  0  0  0  0  0  0  0  0  0
    0.0587    6.0490   -0.8135 H   0  0  0  0  0  0  0  0  0  0  0  0
    2.3774    5.3965   -0.4223 H   0  0  0  0  0  0  0  0  0  0  0  0
    2.9510    3.0689    0.0761 H   0  0  0  0  0  0  0  0  0  0  0  0
  2  1  1  1
  2  3  1  0
  3  4  1  0
  4  5  1  0
  5  6  1  0
  6  7  1  6
  6  8  1  0
  8  9  1  0
  4 10  1  0
 10 11  1  0
 11 12  2  0
 12 13  1  0
 13 14  2  0
 14 15  1  0
 15 16  2  0
 16 17  1  0
 17 18  2  0
 18 19  1  0
 19 20  2  0
 19 21  1  0
 21 22  1  0
 22 23  1  0
 23 24  2  0
 24 25  1  0
 25 26  2  0
 26 27  1  0
 27 28  2  0
 28 29  1  0
 29 30  2  0
 30 31  1  0
 31 32  1  0
 32 33  2  0
  6  2  1  0
 33 10  1  0
 31  2  1  0
 16 11  1  0
 33 17  1  0
 23 18  1  0
 32 24  1  0
 30 25  1  0
  1 34  1  0
  1 35  1  0
  1 36  1  0
  4 37  1  1
  5 38  1  0
  5 39  1  0
  7 40  1  0
  8 41  1  0
  8 42  1  0
  9 43  1  0
 12 44  1  0
 13 45  1  0
 14 46  1  0
 15 47  1  0
 21 48  1  0
 22 49  1  0
 22 50  1  0
 26 51  1  0
 27 52  1  0
 28 53  1  0
 29 54  1  0
M  END
$$$$
[H]c1c(N([H])c2c([H])c(N3C([H])([H])C([H])([H])OC([H])([H])C3([H])[H])nn2[H])nc(N(C(=O)C([H])([H])C([H])([H])C([H])([H])C([H])(C([H])([H])[H])C([H])([H])[H])C([H])([H])[H])nc1C([H])([H])C([H])([H])[H]
     RDKit          3D

 63 65  0  0  0  0  0  0  0  0999 V2000
    0.2044   -5.6870   -3.0887 C   0  0  0  0  0  0  0  0  0  0  0  0
    0.2895   -4.3128   -3.7247 C   0  0  0  0  0  0  0  0  0  0  0  0
    0.1094   -3.2766   -2.6862 C   0  0  0  0  0  0  0  0  0  0  0  0
   -1.1453   -2.8098   -2.3779 C   0  0  0  0  0  0  0  0  0  0  0  0
   -1.3153   -1.8175   -1.3950 C   0  0  0  0  0  0  0  0  0  0  0  0
   -2.6205   -1.3576   -1.0819 N   0  0  0  0  0  0  0  0  0  0  0  0
   -2.9475   -0.3423   -0.1599 C   0  0  0  0  0  0  0  0  0  0  0  0
   -4.2694    0.0399    0.0806 C   0  0  0  0  0  0  0  0  0  0  0  0
   -4.2135    1.0629    1.0050 C   0  0  0  0  0  0  0  0  0  0  0  0
   -2.9257    1.2464    1.2718 N   0  0  0  0  0  0  0  0  0  0  0  0
   -2.1533    0.4217    0.5911 N   0  0  0  0  0  0  0  0  0  0  0  0
   -5.3554    1.7234    1.5172 N   0  0  0  0  0  0  0  0  0  0  0  0
   -6.6563    1.1237    1.4113 C   0  0  0  0  0  0  0  0  0  0  0  0
   -7.3518    1.2895    2.7529 C   0  0  0  0  0  0  0  0  0  0  0  0
   -7.3050    2.5720    3.2395 O   0  0  0  0  0  0  0  0  0  0  0  0
   -6.6802    3.4760    2.3814 C   0  0  0  0  0  0  0  0  0  0  0  0
   -5.2319    3.0201    2.1345 C   0  0  0  0  0  0  0  0  0  0  0  0
   -0.1850   -1.4025   -0.8263 N   0  0  0  0  0  0  0  0  0  0  0  0
    1.0522   -1.8238   -1.0907 C   0  0  0  0  0  0  0  0  0  0  0  0
    1.1635   -2.7866   -2.0513 N   0  0  0  0  0  0  0  0  0  0  0  0
    2.2031   -1.3234   -0.4237 N   0  0  0  0  0  0  0  0  0  0  0  0
    2.5346   -1.8789    0.8642 C   0  0  0  0  0  0  0  0  0  0  0  0
    2.9947   -0.3073   -0.9862 C   0  0  0  0  0  0  0  0  0  0  0  0
    2.7422    0.2597   -2.0744 O   0  0  0  0  0  0  0  0  0  0  0  0
    4.2257    0.1257   -0.2339 C   0  0  0  0  0  0  0  0  0  0  0  0
    4.7560    1.3706   -0.8409 C   0  0  0  0  0  0  0  0  0  0  0  0
    5.9840    1.8943   -0.2177 C   0  0  0  0  0  0  0  0  0  0  0  0
    5.9603    2.2469    1.2251 C   0  0  0  0  0  0  0  0  0  0  0  0
    4.9300    3.2851    1.5971 C   0  0  0  0  0  0  0  0  0  0  0  0
    5.9316    1.1294    2.2032 C   0  0  0  0  0  0  0  0  0  0  0  0
    1.0775   -6.2960   -3.3905 H   0  0  0  0  0  0  0  0  0  0  0  0
    0.2363   -5.6160   -1.9795 H   0  0  0  0  0  0  0  0  0  0  0  0
   -0.7625   -6.2028   -3.3320 H   0  0  0  0  0  0  0  0  0  0  0  0
    1.3046   -4.1904   -4.1794 H   0  0  0  0  0  0  0  0  0  0  0  0
   -0.4298   -4.2171   -4.5646 H   0  0  0  0  0  0  0  0  0  0  0  0
   -2.0271   -3.1894   -2.8764 H   0  0  0  0  0  0  0  0  0  0  0  0
   -3.4234   -1.8340   -1.5990 H   0  0  0  0  0  0  0  0  0  0  0  0
   -5.1702   -0.3695   -0.3580 H   0  0  0  0  0  0  0  0  0  0  0  0
   -1.1038    0.3677    0.6265 H   0  0  0  0  0  0  0  0  0  0  0  0
   -7.1955    1.6245    0.5807 H   0  0  0  0  0  0  0  0  0  0  0  0
   -6.5748    0.0242    1.2426 H   0  0  0  0  0  0  0  0  0  0  0  0
   -8.3658    0.8501    2.7422 H   0  0  0  0  0  0  0  0  0  0  0  0
   -6.7690    0.6335    3.4646 H   0  0  0  0  0  0  0  0  0  0  0  0
   -6.6332    4.4532    2.8544 H   0  0  0  0  0  0  0  0  0  0  0  0
   -7.1598    3.5146    1.3947 H   0  0  0  0  0  0  0  0  0  0  0  0
   -4.7536    3.7461    1.4382 H   0  0  0  0  0  0  0  0  0  0  0  0
   -4.7323    3.0323    3.1001 H   0  0  0  0  0  0  0  0  0  0  0  0
    1.7716   -2.6169    1.2115 H   0  0  0  0  0  0  0  0  0  0  0  0
    2.5961   -1.0922    1.6532 H   0  0  0  0  0  0  0  0  0  0  0  0
    3.5335   -2.3473    0.7935 H   0  0  0  0  0  0  0  0  0  0  0  0
    4.9757   -0.6753   -0.2368 H   0  0  0  0  0  0  0  0  0  0  0  0
    3.8618    0.2576    0.8103 H   0  0  0  0  0  0  0  0  0  0  0  0
    5.0188    1.1122   -1.9126 H   0  0  0  0  0  0  0  0  0  0  0  0
    3.9525    2.1439   -0.9613 H   0  0  0  0  0  0  0  0  0  0  0  0
    6.2802    2.8288   -0.7913 H   0  0  0  0  0  0  0  0  0  0  0  0
    6.8064    1.1475   -0.3937 H   0  0  0  0  0  0  0  0  0  0  0  0
    6.9967    2.7550    1.3892 H   0  0  0  0  0  0  0  0  0  0  0  0
    4.1365    2.7490    2.1901 H   0  0  0  0  0  0  0  0  0  0  0  0
    5.3995    3.9736    2.3289 H   0  0  0  0  0  0  0  0  0  0  0  0
    4.4974    3.8236    0.7314 H   0  0  0  0  0  0  0  0  0  0  0  0
    6.0079    0.1111    1.7382 H   0  0  0  0  0  0  0  0  0  0  0  0
    5.0801    1.1886    2.9351 H   0  0  0  0  0  0  0  0  0  0  0  0
    6.8428    1.1487    2.8894 H   0  0  0  0  0  0  0  0  0  0  0  0
  1  2  1  0
  2  3  1  0
  3  4  2  0
  4  5  1  0
  5  6  1  0
  6  7  1  0
  7  8  2  0
  8  9  1  0
  9 10  2  0
 10 11  1  0
  9 12  1  0
 12 13  1  0
 13 14  1  0
 14 15  1  0
 15 16  1  0
 16 17  1  0
  5 18  2  0
 18 19  1  0
 19 20  2  0
 19 21  1  0
 21 22  1  0
 21 23  1  0
 23 24  2  0
 23 25  1  0
 25 26  1  0
 26 27  1  0
 27 28  1  0
 28 29  1  0
 28 30  1  0
 20  3  1  0
 11  7  1  0
 17 12  1  0
  1 31  1  0
  1 32  1  0
  1 33  1  0
  2 34  1  0
  2 35  1  0
  4 36  1  0
  6 37  1  0
  8 38  1  0
 11 39  1  0
 13 40  1  0
 13 41  1  0
 14 42  1  0
 14 43  1  0
 16 44  1  0
 16 45  1  0
 17 46  1  0
 17 47  1  0
 22 48  1  0
 22 49  1  0
 22 50  1  0
 25 51  1  0
 25 52  1  0
 26 53  1  0
 26 54  1  0
 27 55  1  0
 27 56  1  0
 28 57  1  0
 29 58  1  0
 29 59  1  0
 29 60  1  0
 30 61  1  0
 30 62  1  0
 30 63  1  0
M  END
$$$$
[H]OC(=O)C([H])([H])C([H])([H])C([H])([H])N1C([H])([H])C([H])([H])C2(C1([H])[H])C([H])([H])C([H])([H])N(S(=O)(=O)c1c([H])c([H])c(Oc3c(F)c(F)c([H])c(F)c3F)c([H])c1[H])C([H])([H])C2([H])[H]
     RDKit          3D

 62 65  0  0  0  0  0  0  0  0999 V2000
   -8.2351    3.5845   -0.8683 O   0  0  0  0  0  0  0  0  0  0  0  0
   -8.2021    2.3109   -0.3533 C   0  0  0  0  0  0  0  0  0  0  0  0
   -8.8797    2.0179    0.6446 O   0  0  0  0  0  0  0  0  0  0  0  0
   -7.3563    1.2861   -0.9922 C   0  0  0  0  0  0  0  0  0  0  0  0
   -6.0810    1.1918   -0.1701 C   0  0  0  0  0  0  0  0  0  0  0  0
   -5.1204    0.1580   -0.7278 C   0  0  0  0  0  0  0  0  0  0  0  0
   -3.9582    0.1664    0.1268 N   0  0  0  0  0  0  0  0  0  0  0  0
   -4.2583   -0.3506    1.4604 C   0  0  0  0  0  0  0  0  0  0  0  0
   -2.8374   -0.4318    2.0394 C   0  0  0  0  0  0  0  0  0  0  0  0
   -2.0569   -0.9067    0.8416 C   0  0  0  0  0  0  0  0  0  0  0  0
   -2.8997   -0.6862   -0.3749 C   0  0  0  0  0  0  0  0  0  0  0  0
   -1.7318   -2.3767    1.0077 C   0  0  0  0  0  0  0  0  0  0  0  0
   -0.3293   -2.6780    0.5070 C   0  0  0  0  0  0  0  0  0  0  0  0
   -0.0436   -1.9181   -0.6980 N   0  0  0  0  0  0  0  0  0  0  0  0
   -0.0145   -0.5076   -0.4581 C   0  0  0  0  0  0  0  0  0  0  0  0
   -0.8198   -0.0626    0.7433 C   0  0  0  0  0  0  0  0  0  0  0  0
    1.3291   -2.4617   -1.5487 S   0  0  0  0  0  0  0  0  0  0  0  0
    1.7923   -3.7751   -0.9610 O   0  0  0  0  0  0  0  0  0  0  0  0
    1.0637   -2.7099   -3.0166 O   0  0  0  0  0  0  0  0  0  0  0  0
    2.6225   -1.3075   -1.3422 C   0  0  0  0  0  0  0  0  0  0  0  0
    3.5084   -1.4728   -0.3076 C   0  0  0  0  0  0  0  0  0  0  0  0
    4.5222   -0.5220   -0.1937 C   0  0  0  0  0  0  0  0  0  0  0  0
    4.6553    0.5401   -1.0574 C   0  0  0  0  0  0  0  0  0  0  0  0
    5.6527    1.4908   -0.9603 O   0  0  0  0  0  0  0  0  0  0  0  0
    6.6567    1.4833   -0.0343 C   0  0  0  0  0  0  0  0  0  0  0  0
    6.5134    2.0984    1.1853 C   0  0  0  0  0  0  0  0  0  0  0  0
    5.3615    2.7356    1.5071 F   0  0  0  0  0  0  0  0  0  0  0  0
    7.5572    2.0779    2.1189 C   0  0  0  0  0  0  0  0  0  0  0  0
    7.4324    2.6763    3.3196 F   0  0  0  0  0  0  0  0  0  0  0  0
    8.7444    1.4396    1.8272 C   0  0  0  0  0  0  0  0  0  0  0  0
    8.8869    0.8245    0.6070 C   0  0  0  0  0  0  0  0  0  0  0  0
   10.0516    0.2026    0.3278 F   0  0  0  0  0  0  0  0  0  0  0  0
    7.8390    0.8481   -0.3242 C   0  0  0  0  0  0  0  0  0  0  0  0
    8.0582    0.2255   -1.4979 F   0  0  0  0  0  0  0  0  0  0  0  0
    3.7416    0.6871   -2.1016 C   0  0  0  0  0  0  0  0  0  0  0  0
    2.7412   -0.2487   -2.2177 C   0  0  0  0  0  0  0  0  0  0  0  0
   -7.5386    4.2820   -0.6431 H   0  0  0  0  0  0  0  0  0  0  0  0
   -7.0643    1.5341   -2.0337 H   0  0  0  0  0  0  0  0  0  0  0  0
   -7.8121    0.2588   -0.9414 H   0  0  0  0  0  0  0  0  0  0  0  0
   -6.3933    0.9014    0.8668 H   0  0  0  0  0  0  0  0  0  0  0  0
   -5.5509    2.1616   -0.1077 H   0  0  0  0  0  0  0  0  0  0  0  0
   -4.7938    0.4769   -1.7311 H   0  0  0  0  0  0  0  0  0  0  0  0
   -5.6083   -0.8459   -0.7728 H   0  0  0  0  0  0  0  0  0  0  0  0
   -4.8068    0.4337    2.0434 H   0  0  0  0  0  0  0  0  0  0  0  0
   -4.7474   -1.3188    1.4347 H   0  0  0  0  0  0  0  0  0  0  0  0
   -2.5651    0.6075    2.3099 H   0  0  0  0  0  0  0  0  0  0  0  0
   -2.8083   -1.1421    2.8923 H   0  0  0  0  0  0  0  0  0  0  0  0
   -2.3493   -0.1221   -1.1622 H   0  0  0  0  0  0  0  0  0  0  0  0
   -3.2771   -1.6046   -0.8574 H   0  0  0  0  0  0  0  0  0  0  0  0
   -2.4905   -2.9774    0.4913 H   0  0  0  0  0  0  0  0  0  0  0  0
   -1.7536   -2.6148    2.0893 H   0  0  0  0  0  0  0  0  0  0  0  0
   -0.3256   -3.7499    0.2256 H   0  0  0  0  0  0  0  0  0  0  0  0
    0.3937   -2.4475    1.3092 H   0  0  0  0  0  0  0  0  0  0  0  0
   -0.2703    0.0902   -1.3385 H   0  0  0  0  0  0  0  0  0  0  0  0
    1.0536   -0.2493   -0.1963 H   0  0  0  0  0  0  0  0  0  0  0  0
   -1.1354    0.9814    0.5422 H   0  0  0  0  0  0  0  0  0  0  0  0
   -0.2011   -0.1653    1.6589 H   0  0  0  0  0  0  0  0  0  0  0  0
    3.4790   -2.2782    0.4150 H   0  0  0  0  0  0  0  0  0  0  0  0
    5.2561   -0.5939    0.6004 H   0  0  0  0  0  0  0  0  0  0  0  0
    9.5778    1.4100    2.5414 H   0  0  0  0  0  0  0  0  0  0  0  0
    3.8247    1.5057   -2.7874 H   0  0  0  0  0  0  0  0  0  0  0  0
    2.0004   -0.1626   -3.0287 H   0  0  0  0  0  0  0  0  0  0  0  0
  1  2  1  0
  2  3  2  0
  2  4  1  0
  4  5  1  0
  5  6  1  0
  6  7  1  0
  7  8  1  0
  8  9  1  0
  9 10  1  0
 10 11  1  0
 10 12  1  0
 12 13  1  0
 13 14  1  0
 14 15  1  0
 15 16  1  0
 14 17  1  0
 17 18  2  0
 17 19  2  0
 17 20  1  0
 20 21  2  0
 21 22  1  0
 22 23  2  0
 23 24  1  0
 24 25  1  0
 25 26  2  0
 26 27  1  0
 26 28  1  0
 28 29  1  0
 28 30  2  0
 30 31  1  0
 31 32  1  0
 31 33  2  0
 33 34  1  0
 23 35  1  0
 35 36  2  0
 11  7  1  0
 36 20  1  0
 16 10  1  0
 33 25  1  0
  1 37  1  0
  4 38  1  0
  4 39  1  0
  5 40  1  0
  5 41  1  0
  6 42  1  0
  6 43  1  0
  8 44  1  0
  8 45  1  0
  9 46  1  0
  9 47  1  0
 11 48  1  0
 11 49  1  0
 12 50  1  0
 12 51  1  0
 13 52  1  0
 13 53  1  0
 15 54  1  0
 15 55  1  0
 16 56  1  0
 16 57  1  0
 21 58  1  0
 22 59  1  0
 30 60  1  0
 35 61  1  0
 36 62  1  0
M  END
$$$$
[H]O[C@@]([H])(C([H])([H])[H])[C@]([H])(c1nnc(-c2c([H])c([H])c([H])c([H])c2[H])o1)N([H])c1c([H])c([H])c([N+]#[C-])c2nonc12
     RDKit          3D

 41 44  0  0  0  0  0  0  0  0999 V2000
   -0.6027   -2.0725   -3.0909 C   0  0  0  0  0  0  0  0  0  0  0  0
   -1.3189   -1.8801   -1.7429 C   0  0  2  0  0  0  0  0  0  0  0  0
   -2.6676   -1.8098   -1.9857 O   0  0  0  0  0  0  0  0  0  0  0  0
   -0.7141   -0.6964   -1.0560 C   0  0  1  0  0  0  0  0  0  0  0  0
   -1.2816   -0.3674    0.2130 N   0  0  0  0  0  0  0  0  0  0  0  0
   -2.4972    0.3297    0.4221 C   0  0  0  0  0  0  0  0  0  0  0  0
   -3.1765    0.9414   -0.5924 C   0  0  0  0  0  0  0  0  0  0  0  0
   -4.3590    1.6510   -0.3533 C   0  0  0  0  0  0  0  0  0  0  0  0
   -4.8763    1.7544    0.9261 C   0  0  0  0  0  0  0  0  0  0  0  0
   -6.0495    2.4553    1.1807 N   0  0  0  0  0  0  0  0  0  0  0  0
   -7.0229    3.0396    1.4028 C   0  0  0  0  0  0  0  0  0  0  0  0
   -4.1852    1.1343    1.9515 C   0  0  0  0  0  0  0  0  0  0  0  0
   -4.3879    1.0288    3.2838 N   0  0  0  0  0  0  0  0  0  0  0  0
   -3.4310    0.3329    3.7796 O   0  0  0  0  0  0  0  0  0  0  0  0
   -2.5796   -0.0499    2.8770 N   0  0  0  0  0  0  0  0  0  0  0  0
   -3.0223    0.4362    1.7149 C   0  0  0  0  0  0  0  0  0  0  0  0
    0.7422   -0.9063   -0.8818 C   0  0  0  0  0  0  0  0  0  0  0  0
    1.5017   -1.9100   -1.3327 N   0  0  0  0  0  0  0  0  0  0  0  0
    2.7382   -1.6979   -0.9482 N   0  0  0  0  0  0  0  0  0  0  0  0
    2.7585   -0.5507   -0.2489 C   0  0  0  0  0  0  0  0  0  0  0  0
    1.5556   -0.0832   -0.2146 O   0  0  0  0  0  0  0  0  0  0  0  0
    3.9341    0.0715    0.3715 C   0  0  0  0  0  0  0  0  0  0  0  0
    5.1787   -0.5145    0.2741 C   0  0  0  0  0  0  0  0  0  0  0  0
    6.2963    0.0678    0.8582 C   0  0  0  0  0  0  0  0  0  0  0  0
    6.1937    1.2535    1.5555 C   0  0  0  0  0  0  0  0  0  0  0  0
    4.9528    1.8452    1.6572 C   0  0  0  0  0  0  0  0  0  0  0  0
    3.8384    1.2566    1.0698 C   0  0  0  0  0  0  0  0  0  0  0  0
   -0.0149   -2.9944   -3.0791 H   0  0  0  0  0  0  0  0  0  0  0  0
    0.0624   -1.2285   -3.3329 H   0  0  0  0  0  0  0  0  0  0  0  0
   -1.3720   -2.2214   -3.8891 H   0  0  0  0  0  0  0  0  0  0  0  0
   -1.1384   -2.8024   -1.1495 H   0  0  0  0  0  0  0  0  0  0  0  0
   -3.0559   -2.7225   -2.0161 H   0  0  0  0  0  0  0  0  0  0  0  0
   -0.8287    0.1706   -1.7629 H   0  0  0  0  0  0  0  0  0  0  0  0
   -0.7267   -0.6851    1.0689 H   0  0  0  0  0  0  0  0  0  0  0  0
   -2.8556    0.9423   -1.6198 H   0  0  0  0  0  0  0  0  0  0  0  0
   -4.8753    2.1229   -1.1688 H   0  0  0  0  0  0  0  0  0  0  0  0
    5.2639   -1.4497   -0.2750 H   0  0  0  0  0  0  0  0  0  0  0  0
    7.2621   -0.3895    0.7811 H   0  0  0  0  0  0  0  0  0  0  0  0
    7.0645    1.7198    2.0183 H   0  0  0  0  0  0  0  0  0  0  0  0
    4.8337    2.7756    2.1963 H   0  0  0  0  0  0  0  0  0  0  0  0
    2.8629    1.7028    1.1383 H   0  0  0  0  0  0  0  0  0  0  0  0
  1  2  1  0
  2  3  1  0
  2  4  1  0
  4  5  1  0
  5  6  1  0
  6  7  2  0
  7  8  1  0
  8  9  2  0
  9 10  1  0
 10 11  3  0
  9 12  1  0
 12 13  2  0
 13 14  1  0
 14 15  1  0
 15 16  2  0
  4 17  1  0
 17 18  2  0
 18 19  1  0
 19 20  2  0
 20 21  1  0
 20 22  1  0
 22 23  2  0
 23 24  1  0
 24 25  2  0
 25 26  1  0
 26 27  2  0
 16  6  1  0
 21 17  1  0
 27 22  1  0
 16 12  1  0
  1 28  1  0
  1 29  1  0
  1 30  1  0
  2 31  1  1
  3 32  1  0
  4 33  1  6
  5 34  1  0
  7 35  1  0
  8 36  1  0
 23 37  1  0
 24 38  1  0
 25 39  1  0
 26 40  1  0
 27 41  1  0
M  CHG  2  10   1  11  -1
M  END
$$$$
[H]N=C(c1c([H])c([H])c(C([H])([H])n2c(C([H])([H])[H])c(C([H])([H])C([H])([H])C(=O)N3C([H])([H])C([H])([H])N([H])C([H])([H])C3([H])[H])c3c([H])c(OC4([H])C([H])([H])C([H])([H])N(C(=N[H])C([H])([H])[H])C([H])([H])C4([H])[H])c([H])c([H])c32)c(F)c1[H])N([H])[H]
     RDKit          3D

 81 85  0  0  0  0  0  0  0  0999 V2000
    8.8244   -1.3354   -1.4829 C   0  0  0  0  0  0  0  0  0  0  0  0
    8.3560   -1.1893   -0.0728 C   0  0  0  0  0  0  0  0  0  0  0  0
    9.0958   -1.4982    0.9301 N   0  0  0  0  0  0  0  0  0  0  0  0
    7.0543   -0.6934    0.1548 N   0  0  0  0  0  0  0  0  0  0  0  0
    6.0870   -1.5110    0.8274 C   0  0  0  0  0  0  0  0  0  0  0  0
    5.0576   -0.6689    1.5392 C   0  0  0  0  0  0  0  0  0  0  0  0
    4.3795    0.3288    0.6246 C   0  0  0  0  0  0  0  0  0  0  0  0
    5.2311    0.6256   -0.5966 C   0  0  0  0  0  0  0  0  0  0  0  0
    6.6993    0.6445   -0.2939 C   0  0  0  0  0  0  0  0  0  0  0  0
    3.1826   -0.2064    0.1889 O   0  0  0  0  0  0  0  0  0  0  0  0
    1.9102    0.3369    0.3696 C   0  0  0  0  0  0  0  0  0  0  0  0
    1.6776    1.5246    1.0303 C   0  0  0  0  0  0  0  0  0  0  0  0
    0.4181    2.0589    1.2070 C   0  0  0  0  0  0  0  0  0  0  0  0
   -0.6919    1.3806    0.6999 C   0  0  0  0  0  0  0  0  0  0  0  0
   -2.0157    1.6678    0.7266 N   0  0  0  0  0  0  0  0  0  0  0  0
   -2.5522    2.8197    1.3632 C   0  0  0  0  0  0  0  0  0  0  0  0
   -2.6966    4.0448    0.5977 C   0  0  0  0  0  0  0  0  0  0  0  0
   -3.2058    5.1637    1.2741 C   0  0  0  0  0  0  0  0  0  0  0  0
   -3.3927    6.3725    0.6866 C   0  0  0  0  0  0  0  0  0  0  0  0
   -3.0822    6.5866   -0.6641 C   0  0  0  0  0  0  0  0  0  0  0  0
   -2.5828    5.5052   -1.3444 C   0  0  0  0  0  0  0  0  0  0  0  0
   -2.3967    4.2603   -0.7164 C   0  0  0  0  0  0  0  0  0  0  0  0
   -1.8967    3.2276   -1.4554 F   0  0  0  0  0  0  0  0  0  0  0  0
   -3.2991    7.9035   -1.2563 C   0  0  0  0  0  0  0  0  0  0  0  0
   -3.8231    8.9436   -0.4488 N   0  0  0  0  0  0  0  0  0  0  0  0
   -3.0258    8.1157   -2.4682 N   0  0  0  0  0  0  0  0  0  0  0  0
   -2.6365    0.6668    0.0834 C   0  0  0  0  0  0  0  0  0  0  0  0
   -4.0943    0.5816   -0.1200 C   0  0  0  0  0  0  0  0  0  0  0  0
   -1.7212   -0.2605   -0.3552 C   0  0  0  0  0  0  0  0  0  0  0  0
   -1.9400   -1.5164   -1.1026 C   0  0  0  0  0  0  0  0  0  0  0  0
   -2.4748   -2.6197   -0.2570 C   0  0  0  0  0  0  0  0  0  0  0  0
   -2.6765   -3.8538   -1.0579 C   0  0  0  0  0  0  0  0  0  0  0  0
   -2.3846   -3.8104   -2.3024 O   0  0  0  0  0  0  0  0  0  0  0  0
   -3.1814   -5.0588   -0.4636 N   0  0  0  0  0  0  0  0  0  0  0  0
   -3.3480   -6.2147   -1.3186 C   0  0  0  0  0  0  0  0  0  0  0  0
   -3.6951   -7.4232   -0.5129 C   0  0  0  0  0  0  0  0  0  0  0  0
   -4.7642   -7.0671    0.4021 N   0  0  0  0  0  0  0  0  0  0  0  0
   -4.3156   -6.1581    1.4310 C   0  0  0  0  0  0  0  0  0  0  0  0
   -3.4856   -5.0377    0.9313 C   0  0  0  0  0  0  0  0  0  0  0  0
   -0.4774    0.2144    0.0497 C   0  0  0  0  0  0  0  0  0  0  0  0
    0.7934   -0.3215   -0.1267 C   0  0  0  0  0  0  0  0  0  0  0  0
    7.9403   -1.4433   -2.1372 H   0  0  0  0  0  0  0  0  0  0  0  0
    9.4527   -2.2472   -1.5069 H   0  0  0  0  0  0  0  0  0  0  0  0
    9.3994   -0.4288   -1.7666 H   0  0  0  0  0  0  0  0  0  0  0  0
    8.7165   -1.3755    1.8880 H   0  0  0  0  0  0  0  0  0  0  0  0
    5.5991   -2.2524    0.1497 H   0  0  0  0  0  0  0  0  0  0  0  0
    6.6110   -2.0996    1.6101 H   0  0  0  0  0  0  0  0  0  0  0  0
    5.5562   -0.1889    2.4054 H   0  0  0  0  0  0  0  0  0  0  0  0
    4.2867   -1.3481    1.9574 H   0  0  0  0  0  0  0  0  0  0  0  0
    4.3250    1.2767    1.1891 H   0  0  0  0  0  0  0  0  0  0  0  0
    4.9041    1.6016   -1.0148 H   0  0  0  0  0  0  0  0  0  0  0  0
    5.0113   -0.1290   -1.3847 H   0  0  0  0  0  0  0  0  0  0  0  0
    7.2327    0.8218   -1.2365 H   0  0  0  0  0  0  0  0  0  0  0  0
    6.9383    1.4257    0.4312 H   0  0  0  0  0  0  0  0  0  0  0  0
    2.5097    2.0866    1.4415 H   0  0  0  0  0  0  0  0  0  0  0  0
    0.2583    3.0007    1.7335 H   0  0  0  0  0  0  0  0  0  0  0  0
   -3.5470    2.5626    1.8093 H   0  0  0  0  0  0  0  0  0  0  0  0
   -1.9199    3.0640    2.2604 H   0  0  0  0  0  0  0  0  0  0  0  0
   -3.4621    5.0380    2.3359 H   0  0  0  0  0  0  0  0  0  0  0  0
   -3.7902    7.2252    1.2365 H   0  0  0  0  0  0  0  0  0  0  0  0
   -2.3218    5.5898   -2.3801 H   0  0  0  0  0  0  0  0  0  0  0  0
   -3.4605    9.1222    0.5001 H   0  0  0  0  0  0  0  0  0  0  0  0
   -4.5840    9.5308   -0.8252 H   0  0  0  0  0  0  0  0  0  0  0  0
   -2.6505    7.4030   -3.0818 H   0  0  0  0  0  0  0  0  0  0  0  0
   -4.3681   -0.2236   -0.8544 H   0  0  0  0  0  0  0  0  0  0  0  0
   -4.6546    0.3475    0.8064 H   0  0  0  0  0  0  0  0  0  0  0  0
   -4.4246    1.5330   -0.5884 H   0  0  0  0  0  0  0  0  0  0  0  0
   -1.0059   -1.8611   -1.5738 H   0  0  0  0  0  0  0  0  0  0  0  0
   -2.6521   -1.3201   -1.9461 H   0  0  0  0  0  0  0  0  0  0  0  0
   -1.6863   -2.8702    0.5090 H   0  0  0  0  0  0  0  0  0  0  0  0
   -3.3743   -2.3412    0.3286 H   0  0  0  0  0  0  0  0  0  0  0  0
   -4.1700   -6.0215   -2.0252 H   0  0  0  0  0  0  0  0  0  0  0  0
   -2.4115   -6.3443   -1.9152 H   0  0  0  0  0  0  0  0  0  0  0  0
   -2.8568   -7.8483    0.0608 H   0  0  0  0  0  0  0  0  0  0  0  0
   -4.1437   -8.1932   -1.2075 H   0  0  0  0  0  0  0  0  0  0  0  0
   -5.6123   -6.7466   -0.0881 H   0  0  0  0  0  0  0  0  0  0  0  0
   -3.7202   -6.7761    2.1634 H   0  0  0  0  0  0  0  0  0  0  0  0
   -5.2129   -5.8319    1.9950 H   0  0  0  0  0  0  0  0  0  0  0  0
   -4.0394   -4.0796    1.1592 H   0  0  0  0  0  0  0  0  0  0  0  0
   -2.5253   -4.9307    1.5119 H   0  0  0  0  0  0  0  0  0  0  0  0
    0.9421   -1.2573   -0.6509 H   0  0  0  0  0  0  0  0  0  0  0  0
  1  2  1  0
  2  3  2  3
  2  4  1  0
  4  5  1  0
  5  6  1  0
  6  7  1  0
  7  8  1  0
  8  9  1  0
  7 10  1  0
 10 11  1  0
 11 12  2  0
 12 13  1  0
 13 14  2  0
 14 15  1  0
 15 16  1  0
 16 17  1  0
 17 18  2  0
 18 19  1  0
 19 20  2  0
 20 21  1  0
 21 22  2  0
 22 23  1  0
 20 24  1  0
 24 25  1  0
 24 26  2  3
 15 27  1  0
 27 28  1  0
 27 29  2  0
 29 30  1  0
 30 31  1  0
 31 32  1  0
 32 33  2  0
 32 34  1  0
 34 35  1  0
 35 36  1  0
 36 37  1  0
 37 38  1  0
 38 39  1  0
 29 40  1  0
 40 41  2  0
  9  4  1  0
 41 11  1  0
 40 14  1  0
 22 17  1  0
 39 34  1  0
  1 42  1  0
  1 43  1  0
  1 44  1  0
  3 45  1  0
  5 46  1  0
  5 47  1  0
  6 48  1  0
  6 49  1  0
  7 50  1  0
  8 51  1  0
  8 52  1  0
  9 53  1  0
  9 54  1  0
 12 55  1  0
 13 56  1  0
 16 57  1  0
 16 58  1  0
 18 59  1  0
 19 60  1  0
 21 61  1  0
 25 62  1  0
 25 63  1  0
 26 64  1  0
 28 65  1  0
 28 66  1  0
 28 67  1  0
 30 68  1  0
 30 69  1  0
 31 70  1  0
 31 71  1  0
 35 72  1  0
 35 73  1  0
 36 74  1  0
 36 75  1  0
 37 76  1  0
 38 77  1  0
 38 78  1  0
 39 79  1  0
 39 80  1  0
 41 81  1  0
M  END
$$$$
[H]ON([H])C(=O)C([H])([H])C([H])([H])[C@@]([H])(C(=O)OC([H])([H])[H])N([H])C(=O)[C@@]([H])(N([H])C(=O)[C@@]([H])(N([H])C(=O)[C@@]([H])(N([H])C(=O)c1c([H])c([H])c([H])c(=O)n1C([H])([H])[H])C([H])([H])c1c([H])c([H])c([H])c([H])c1[H])C([H])([H])S[H])C([H])([H])C([H])(C([H])([H])[H])C([H])([H])[H]
     RDKit          3D

 89 90  0  0  0  0  0  0  0  0999 V2000
    9.5326   -1.4749   -1.3058 C   0  0  0  0  0  0  0  0  0  0  0  0
    8.4459   -0.5465   -1.2676 O   0  0  0  0  0  0  0  0  0  0  0  0
    7.2276   -0.8804   -0.7037 C   0  0  0  0  0  0  0  0  0  0  0  0
    7.1705   -2.0710   -0.2251 O   0  0  0  0  0  0  0  0  0  0  0  0
    6.0852    0.0336   -0.6516 C   0  0  2  0  0  0  0  0  0  0  0  0
    6.3171    1.1631    0.3038 C   0  0  0  0  0  0  0  0  0  0  0  0
    7.4809    2.0389    0.0147 C   0  0  0  0  0  0  0  0  0  0  0  0
    7.5730    3.1380    1.0329 C   0  0  0  0  0  0  0  0  0  0  0  0
    6.7074    3.1531    1.9455 O   0  0  0  0  0  0  0  0  0  0  0  0
    8.5773    4.1057    0.9750 N   0  0  0  0  0  0  0  0  0  0  0  0
    8.6349    5.0736    1.9072 O   0  0  0  0  0  0  0  0  0  0  0  0
    4.9295   -0.7075   -0.0551 N   0  0  0  0  0  0  0  0  0  0  0  0
    3.7364   -0.8762   -0.7570 C   0  0  0  0  0  0  0  0  0  0  0  0
    3.6894   -0.3609   -1.9343 O   0  0  0  0  0  0  0  0  0  0  0  0
    2.5591   -1.5761   -0.2578 C   0  0  2  0  0  0  0  0  0  0  0  0
    2.6814   -3.0359   -0.0101 C   0  0  0  0  0  0  0  0  0  0  0  0
    3.6722   -3.5097    0.9727 C   0  0  0  0  0  0  0  0  0  0  0  0
    3.5389   -5.0556    0.9989 C   0  0  0  0  0  0  0  0  0  0  0  0
    3.3304   -3.0240    2.3865 C   0  0  0  0  0  0  0  0  0  0  0  0
    1.4721   -1.3670   -1.2484 N   0  0  0  0  0  0  0  0  0  0  0  0
    0.3693   -0.5633   -0.8786 C   0  0  0  0  0  0  0  0  0  0  0  0
    0.3450   -0.0491    0.2610 O   0  0  0  0  0  0  0  0  0  0  0  0
   -0.6862   -0.4018   -1.9044 C   0  0  2  0  0  0  0  0  0  0  0  0
   -0.1550   -0.0083   -3.2440 C   0  0  0  0  0  0  0  0  0  0  0  0
    0.7328    1.5709   -3.2030 S   0  0  0  0  0  0  0  0  0  0  0  0
   -1.7437    0.4792   -1.4399 N   0  0  0  0  0  0  0  0  0  0  0  0
   -2.9877   -0.0345   -1.0077 C   0  0  0  0  0  0  0  0  0  0  0  0
   -3.1825   -1.2853   -0.9990 O   0  0  0  0  0  0  0  0  0  0  0  0
   -4.0480    0.9270   -0.5753 C   0  0  2  0  0  0  0  0  0  0  0  0
   -3.5508    1.9550    0.3451 C   0  0  0  0  0  0  0  0  0  0  0  0
   -4.5493    2.9381    0.8146 C   0  0  0  0  0  0  0  0  0  0  0  0
   -4.7901    4.1171    0.1220 C   0  0  0  0  0  0  0  0  0  0  0  0
   -5.7437    5.0234    0.5871 C   0  0  0  0  0  0  0  0  0  0  0  0
   -6.4825    4.8077    1.7270 C   0  0  0  0  0  0  0  0  0  0  0  0
   -6.2406    3.6270    2.4175 C   0  0  0  0  0  0  0  0  0  0  0  0
   -5.2986    2.7341    1.9592 C   0  0  0  0  0  0  0  0  0  0  0  0
   -5.2481    0.2028   -0.1828 N   0  0  0  0  0  0  0  0  0  0  0  0
   -6.1597   -0.2293   -1.1401 C   0  0  0  0  0  0  0  0  0  0  0  0
   -5.7938    0.0761   -2.3539 O   0  0  0  0  0  0  0  0  0  0  0  0
   -7.3973   -0.9414   -1.0177 C   0  0  0  0  0  0  0  0  0  0  0  0
   -7.7874   -1.7043   -2.1468 C   0  0  0  0  0  0  0  0  0  0  0  0
   -8.9364   -2.4418   -2.2078 C   0  0  0  0  0  0  0  0  0  0  0  0
   -9.7476   -2.4315   -1.1081 C   0  0  0  0  0  0  0  0  0  0  0  0
   -9.3805   -1.6939   -0.0110 C   0  0  0  0  0  0  0  0  0  0  0  0
  -10.1310   -1.6757    1.0236 O   0  0  0  0  0  0  0  0  0  0  0  0
   -8.2204   -0.9727   -0.0017 N   0  0  0  0  0  0  0  0  0  0  0  0
   -7.9479   -0.1626    1.1773 C   0  0  0  0  0  0  0  0  0  0  0  0
    9.4907   -2.0129   -0.3400 H   0  0  0  0  0  0  0  0  0  0  0  0
   10.5225   -0.9810   -1.3188 H   0  0  0  0  0  0  0  0  0  0  0  0
    9.4060   -2.2293   -2.1098 H   0  0  0  0  0  0  0  0  0  0  0  0
    5.7380    0.3664   -1.6637 H   0  0  0  0  0  0  0  0  0  0  0  0
    6.3596    0.7191    1.3337 H   0  0  0  0  0  0  0  0  0  0  0  0
    5.3866    1.7815    0.3006 H   0  0  0  0  0  0  0  0  0  0  0  0
    7.2856    2.5192   -0.9804 H   0  0  0  0  0  0  0  0  0  0  0  0
    8.4194    1.4592   -0.0063 H   0  0  0  0  0  0  0  0  0  0  0  0
    9.2787    4.0907    0.2157 H   0  0  0  0  0  0  0  0  0  0  0  0
    9.1612    4.7219    2.6706 H   0  0  0  0  0  0  0  0  0  0  0  0
    5.1518   -1.0370    0.9051 H   0  0  0  0  0  0  0  0  0  0  0  0
    2.1734   -1.0775    0.6927 H   0  0  0  0  0  0  0  0  0  0  0  0
    1.6576   -3.3787    0.3444 H   0  0  0  0  0  0  0  0  0  0  0  0
    2.7720   -3.5505   -1.0143 H   0  0  0  0  0  0  0  0  0  0  0  0
    4.7218   -3.2905    0.7777 H   0  0  0  0  0  0  0  0  0  0  0  0
    4.3665   -5.4953    1.5787 H   0  0  0  0  0  0  0  0  0  0  0  0
    2.5326   -5.2474    1.4356 H   0  0  0  0  0  0  0  0  0  0  0  0
    3.4972   -5.3696   -0.0636 H   0  0  0  0  0  0  0  0  0  0  0  0
    3.4288   -1.8997    2.3530 H   0  0  0  0  0  0  0  0  0  0  0  0
    4.0826   -3.4567    3.0747 H   0  0  0  0  0  0  0  0  0  0  0  0
    2.2906   -3.2909    2.5685 H   0  0  0  0  0  0  0  0  0  0  0  0
    1.5717   -1.8294   -2.2003 H   0  0  0  0  0  0  0  0  0  0  0  0
   -1.1478   -1.4274   -2.0077 H   0  0  0  0  0  0  0  0  0  0  0  0
    0.5389   -0.7662   -3.6755 H   0  0  0  0  0  0  0  0  0  0  0  0
   -0.9883    0.1083   -3.9602 H   0  0  0  0  0  0  0  0  0  0  0  0
    1.0809    1.8719   -1.8489 H   0  0  0  0  0  0  0  0  0  0  0  0
   -1.5863    1.5271   -1.4182 H   0  0  0  0  0  0  0  0  0  0  0  0
   -4.3151    1.4350   -1.5682 H   0  0  0  0  0  0  0  0  0  0  0  0
   -2.7675    2.5487   -0.2049 H   0  0  0  0  0  0  0  0  0  0  0  0
   -2.9979    1.5527    1.2304 H   0  0  0  0  0  0  0  0  0  0  0  0
   -4.2210    4.2901   -0.7793 H   0  0  0  0  0  0  0  0  0  0  0  0
   -5.9333    5.9438    0.0455 H   0  0  0  0  0  0  0  0  0  0  0  0
   -7.2200    5.4920    2.1081 H   0  0  0  0  0  0  0  0  0  0  0  0
   -6.8339    3.4494    3.3328 H   0  0  0  0  0  0  0  0  0  0  0  0
   -5.1103    1.8018    2.5048 H   0  0  0  0  0  0  0  0  0  0  0  0
   -5.3673    0.0302    0.8142 H   0  0  0  0  0  0  0  0  0  0  0  0
   -7.1509   -1.7176   -3.0263 H   0  0  0  0  0  0  0  0  0  0  0  0
   -9.2300   -3.0242   -3.0825 H   0  0  0  0  0  0  0  0  0  0  0  0
  -10.6854   -2.9872   -1.0874 H   0  0  0  0  0  0  0  0  0  0  0  0
   -7.4775   -0.6946    2.0164 H   0  0  0  0  0  0  0  0  0  0  0  0
   -7.5004    0.8204    0.9160 H   0  0  0  0  0  0  0  0  0  0  0  0
   -8.9816    0.1510    1.5514 H   0  0  0  0  0  0  0  0  0  0  0  0
  1  2  1  0
  2  3  1  0
  3  4  2  0
  3  5  1  0
  5  6  1  0
  6  7  1  0
  7  8  1  0
  8  9  2  0
  8 10  1  0
 10 11  1  0
  5 12  1  0
 12 13  1  0
 13 14  2  0
 13 15  1  0
 15 16  1  0
 16 17  1  0
 17 18  1  0
 17 19  1  0
 15 20  1  0
 20 21  1  0
 21 22  2  0
 21 23  1  0
 23 24  1  0
 24 25  1  0
 23 26  1  0
 26 27  1  0
 27 28  2  0
 27 29  1  0
 29 30  1  0
 30 31  1  0
 31 32  2  0
 32 33  1  0
 33 34  2  0
 34 35  1  0
 35 36  2  0
 29 37  1  0
 37 38  1  0
 38 39  2  0
 38 40  1  0
 40 41  2  0
 41 42  1  0
 42 43  2  0
 43 44  1  0
 44 45  2  0
 44 46  1  0
 46 47  1  0
 36 31  1  0
 46 40  1  0
  1 48  1  0
  1 49  1  0
  1 50  1  0
  5 51  1  6
  6 52  1  0
  6 53  1  0
  7 54  1  0
  7 55  1  0
 10 56  1  0
 11 57  1  0
 12 58  1  0
 15 59  1  1
 16 60  1  0
 16 61  1  0
 17 62  1  0
 18 63  1  0
 18 64  1  0
 18 65  1  0
 19 66  1  0
 19 67  1  0
 19 68  1  0
 20 69  1  0
 23 70  1  6
 24 71  1  0
 24 72  1  0
 25 73  1  0
 26 74  1  0
 29 75  1  6
 30 76  1  0
 30 77  1  0
 32 78  1  0
 33 79  1  0
 34 80  1  0
 35 81  1  0
 36 82  1  0
 37 83  1  0
 41 84  1  0
 42 85  1  0
 43 86  1  0
 47 87  1  0
 47 88  1  0
 47 89  1  0
M  END
$$$$
[H]c1nc(C(=O)N([H])[H])c(N([H])c2c([H])c([H])c(C(C([H])([H])[H])(C([H])([H])[H])C([H])([H])C([H])([H])N([H])C([H])([H])[H])c([H])c2[H])nc1N1C([H])([H])C([H])([H])C([H])([H])[C@]([H])(N([H])C(=O)N(C([H])([H])[H])C([H])([H])[H])C1([H])[H]
     RDKit          3D

 73 75  0  0  0  0  0  0  0  0999 V2000
    7.3158    3.7932    1.1133 C   0  0  0  0  0  0  0  0  0  0  0  0
    7.9509    2.5198    1.3199 N   0  0  0  0  0  0  0  0  0  0  0  0
    7.6390    1.5131    0.3630 C   0  0  0  0  0  0  0  0  0  0  0  0
    6.1935    1.0716    0.5356 C   0  0  0  0  0  0  0  0  0  0  0  0
    5.8725    0.0028   -0.4945 C   0  0  0  0  0  0  0  0  0  0  0  0
    6.9096   -1.1193   -0.2562 C   0  0  0  0  0  0  0  0  0  0  0  0
    6.0120    0.4731   -1.8905 C   0  0  0  0  0  0  0  0  0  0  0  0
    4.5737   -0.6230   -0.1782 C   0  0  0  0  0  0  0  0  0  0  0  0
    4.5065   -1.4958    0.8826 C   0  0  0  0  0  0  0  0  0  0  0  0
    3.3392   -2.1489    1.1948 C   0  0  0  0  0  0  0  0  0  0  0  0
    2.1720   -1.9706    0.4676 C   0  0  0  0  0  0  0  0  0  0  0  0
    1.0272   -2.7550    0.7681 N   0  0  0  0  0  0  0  0  0  0  0  0
   -0.3169   -2.4185    0.5553 C   0  0  0  0  0  0  0  0  0  0  0  0
   -0.7163   -1.1363    0.3111 N   0  0  0  0  0  0  0  0  0  0  0  0
   -1.9589   -0.7337    0.2353 C   0  0  0  0  0  0  0  0  0  0  0  0
   -2.9701   -1.7397    0.4219 C   0  0  0  0  0  0  0  0  0  0  0  0
   -2.5816   -2.9724    0.6540 N   0  0  0  0  0  0  0  0  0  0  0  0
   -1.2994   -3.3986    0.7344 C   0  0  0  0  0  0  0  0  0  0  0  0
   -1.0473   -4.8179    0.9004 C   0  0  0  0  0  0  0  0  0  0  0  0
   -2.1776   -5.6883    1.1856 N   0  0  0  0  0  0  0  0  0  0  0  0
    0.0274   -5.3679    0.8311 O   0  0  0  0  0  0  0  0  0  0  0  0
   -2.4866    0.5556    0.0490 N   0  0  0  0  0  0  0  0  0  0  0  0
   -2.1036    1.6896    0.8401 C   0  0  0  0  0  0  0  0  0  0  0  0
   -3.3108    2.1123    1.7022 C   0  0  0  0  0  0  0  0  0  0  0  0
   -4.5950    1.5863    1.1471 C   0  0  0  0  0  0  0  0  0  0  0  0
   -4.6556    1.5830   -0.3749 C   0  0  1  0  0  0  0  0  0  0  0  0
   -3.5149    0.8189   -0.9739 C   0  0  0  0  0  0  0  0  0  0  0  0
   -5.8837    0.9261   -0.7501 N   0  0  0  0  0  0  0  0  0  0  0  0
   -7.0616    1.6049   -1.1255 C   0  0  0  0  0  0  0  0  0  0  0  0
   -7.0472    2.9117   -1.1229 O   0  0  0  0  0  0  0  0  0  0  0  0
   -8.2745    1.0191   -1.5105 N   0  0  0  0  0  0  0  0  0  0  0  0
   -9.4557    1.8236   -1.8441 C   0  0  0  0  0  0  0  0  0  0  0  0
   -8.3513   -0.4482   -1.5925 C   0  0  0  0  0  0  0  0  0  0  0  0
    2.2397   -1.0997   -0.5833 C   0  0  0  0  0  0  0  0  0  0  0  0
    3.4350   -0.4294   -0.9037 C   0  0  0  0  0  0  0  0  0  0  0  0
    6.8493    4.1287    2.0555 H   0  0  0  0  0  0  0  0  0  0  0  0
    6.5903    3.7032    0.3072 H   0  0  0  0  0  0  0  0  0  0  0  0
    8.0774    4.5885    0.8364 H   0  0  0  0  0  0  0  0  0  0  0  0
    8.0131    2.2092    2.3000 H   0  0  0  0  0  0  0  0  0  0  0  0
    7.8920    1.8177   -0.6608 H   0  0  0  0  0  0  0  0  0  0  0  0
    8.3228    0.6444    0.5878 H   0  0  0  0  0  0  0  0  0  0  0  0
    6.1089    0.6281    1.5440 H   0  0  0  0  0  0  0  0  0  0  0  0
    5.5123    1.9274    0.4313 H   0  0  0  0  0  0  0  0  0  0  0  0
    7.0791   -1.2004    0.8213 H   0  0  0  0  0  0  0  0  0  0  0  0
    7.8758   -0.8145   -0.7858 H   0  0  0  0  0  0  0  0  0  0  0  0
    6.4869   -2.0334   -0.6761 H   0  0  0  0  0  0  0  0  0  0  0  0
    7.0720    0.4602   -2.2519 H   0  0  0  0  0  0  0  0  0  0  0  0
    5.6296    1.5151   -2.0494 H   0  0  0  0  0  0  0  0  0  0  0  0
    5.4831   -0.2526   -2.5784 H   0  0  0  0  0  0  0  0  0  0  0  0
    5.3472   -1.7251    1.5399 H   0  0  0  0  0  0  0  0  0  0  0  0
    3.2669   -2.8452    2.0310 H   0  0  0  0  0  0  0  0  0  0  0  0
    1.2434   -3.6662    1.2400 H   0  0  0  0  0  0  0  0  0  0  0  0
   -3.9822   -1.3906    0.3512 H   0  0  0  0  0  0  0  0  0  0  0  0
   -3.0362   -5.2239    1.5135 H   0  0  0  0  0  0  0  0  0  0  0  0
   -2.1501   -6.7074    1.0707 H   0  0  0  0  0  0  0  0  0  0  0  0
   -1.9528    2.5443    0.1258 H   0  0  0  0  0  0  0  0  0  0  0  0
   -1.2650    1.5517    1.5150 H   0  0  0  0  0  0  0  0  0  0  0  0
   -3.2540    3.1961    1.8372 H   0  0  0  0  0  0  0  0  0  0  0  0
   -3.2100    1.6548    2.7207 H   0  0  0  0  0  0  0  0  0  0  0  0
   -4.8342    0.5634    1.4869 H   0  0  0  0  0  0  0  0  0  0  0  0
   -5.4205    2.2406    1.4868 H   0  0  0  0  0  0  0  0  0  0  0  0
   -4.7051    2.6547   -0.7035 H   0  0  0  0  0  0  0  0  0  0  0  0
   -3.1240    1.3760   -1.8405 H   0  0  0  0  0  0  0  0  0  0  0  0
   -3.8912   -0.1883   -1.2753 H   0  0  0  0  0  0  0  0  0  0  0  0
   -5.9330   -0.1139   -0.7547 H   0  0  0  0  0  0  0  0  0  0  0  0
   -9.1667    2.7853   -2.3340 H   0  0  0  0  0  0  0  0  0  0  0  0
   -9.9221    2.1175   -0.8580 H   0  0  0  0  0  0  0  0  0  0  0  0
  -10.1997    1.2658   -2.4326 H   0  0  0  0  0  0  0  0  0  0  0  0
   -9.2545   -0.7231   -2.1556 H   0  0  0  0  0  0  0  0  0  0  0  0
   -7.4354   -0.8610   -2.0526 H   0  0  0  0  0  0  0  0  0  0  0  0
   -8.3698   -0.8051   -0.5365 H   0  0  0  0  0  0  0  0  0  0  0  0
    1.3550   -0.9200   -1.1818 H   0  0  0  0  0  0  0  0  0  0  0  0
    3.4959    0.2561   -1.7348 H   0  0  0  0  0  0  0  0  0  0  0  0
  1  2  1  0
  2  3  1  0
  3  4  1  0
  4  5  1  0
  5  6  1  0
  5  7  1  0
  5  8  1  0
  8  9  2  0
  9 10  1  0
 10 11  2  0
 11 12  1  0
 12 13  1  0
 13 14  2  0
 14 15  1  0
 15 16  2  0
 16 17  1  0
 17 18  2  0
 18 19  1  0
 19 20  1  0
 19 21  2  0
 15 22  1  0
 22 23  1  0
 23 24  1  0
 24 25  1  0
 25 26  1  0
 26 27  1  0
 26 28  1  0
 28 29  1  0
 29 30  2  0
 29 31  1  0
 31 32  1  0
 31 33  1  0
 11 34  1  0
 34 35  2  0
 35  8  1  0
 18 13  1  0
 27 22  1  0
  1 36  1  0
  1 37  1  0
  1 38  1  0
  2 39  1  0
  3 40  1  0
  3 41  1  0
  4 42  1  0
  4 43  1  0
  6 44  1  0
  6 45  1  0
  6 46  1  0
  7 47  1  0
  7 48  1  0
  7 49  1  0
  9 50  1  0
 10 51  1  0
 12 52  1  0
 16 53  1  0
 20 54  1  0
 20 55  1  0
 23 56  1  0
 23 57  1  0
 24 58  1  0
 24 59  1  0
 25 60  1  0
 25 61  1  0
 26 62  1  6
 27 63  1  0
 27 64  1  0
 28 65  1  0
 32 66  1  0
 32 67  1  0
 32 68  1  0
 33 69  1  0
 33 70  1  0
 33 71  1  0
 34 72  1  0
 35 73  1  0
M  END
$$$$
[H]c1nc2c(c([H])c1-c1c([H])c([H])c([H])c(C#N)c1[H])c(-c1c([H])c([H])c([H])c(N3C([H])([H])C([H])([H])N([H])C([H])([H])C3([H])[H])c1[H])c([H])n2[H]
     RDKit          3D

 50 54  0  0  0  0  0  0  0  0999 V2000
    5.5650    4.2807    0.2908 N   0  0  0  0  0  0  0  0  0  0  0  0
    5.5794    3.1714   -0.0308 C   0  0  0  0  0  0  0  0  0  0  0  0
    5.6217    1.7780   -0.4460 C   0  0  0  0  0  0  0  0  0  0  0  0
    6.6073    1.3020   -1.2890 C   0  0  0  0  0  0  0  0  0  0  0  0
    6.6305   -0.0250   -1.6707 C   0  0  0  0  0  0  0  0  0  0  0  0
    5.6380   -0.8646   -1.1846 C   0  0  0  0  0  0  0  0  0  0  0  0
    4.6449   -0.4459   -0.3519 C   0  0  0  0  0  0  0  0  0  0  0  0
    4.6453    0.8915    0.0157 C   0  0  0  0  0  0  0  0  0  0  0  0
    3.6266   -1.3759    0.1306 C   0  0  0  0  0  0  0  0  0  0  0  0
    3.8830   -2.7095    0.3562 C   0  0  0  0  0  0  0  0  0  0  0  0
    2.9697   -3.5907    0.8000 N   0  0  0  0  0  0  0  0  0  0  0  0
    1.7151   -3.1823    1.0513 C   0  0  0  0  0  0  0  0  0  0  0  0
    0.5889   -3.7958    1.4913 N   0  0  0  0  0  0  0  0  0  0  0  0
   -0.4125   -2.9033    1.5652 C   0  0  0  0  0  0  0  0  0  0  0  0
    0.0532   -1.6693    1.1670 C   0  0  0  0  0  0  0  0  0  0  0  0
   -0.6483   -0.3970    1.0842 C   0  0  0  0  0  0  0  0  0  0  0  0
   -0.1459    0.7783    1.6016 C   0  0  0  0  0  0  0  0  0  0  0  0
   -0.8586    1.9798    1.4890 C   0  0  0  0  0  0  0  0  0  0  0  0
   -2.0811    1.9873    0.8516 C   0  0  0  0  0  0  0  0  0  0  0  0
   -2.6115    0.8364    0.3252 C   0  0  0  0  0  0  0  0  0  0  0  0
   -1.8948   -0.3150    0.4505 C   0  0  0  0  0  0  0  0  0  0  0  0
   -3.8890    0.8409   -0.3454 N   0  0  0  0  0  0  0  0  0  0  0  0
   -4.4635   -0.3879   -0.8108 C   0  0  0  0  0  0  0  0  0  0  0  0
   -5.9695   -0.2624   -0.9109 C   0  0  0  0  0  0  0  0  0  0  0  0
   -6.4160    0.8399   -1.6996 N   0  0  0  0  0  0  0  0  0  0  0  0
   -5.4265    1.8885   -1.8392 C   0  0  0  0  0  0  0  0  0  0  0  0
   -4.6168    2.0622   -0.5686 C   0  0  0  0  0  0  0  0  0  0  0  0
    1.3781   -1.8395    0.8459 C   0  0  0  0  0  0  0  0  0  0  0  0
    2.3233   -0.9502    0.3912 C   0  0  0  0  0  0  0  0  0  0  0  0
    7.3584    2.0146   -1.6364 H   0  0  0  0  0  0  0  0  0  0  0  0
    7.4116   -0.3751   -2.3332 H   0  0  0  0  0  0  0  0  0  0  0  0
    5.6267   -1.9228   -1.4666 H   0  0  0  0  0  0  0  0  0  0  0  0
    3.8540    1.2298    0.6809 H   0  0  0  0  0  0  0  0  0  0  0  0
    4.8905   -3.0623    0.1596 H   0  0  0  0  0  0  0  0  0  0  0  0
    0.4984   -4.8001    1.7370 H   0  0  0  0  0  0  0  0  0  0  0  0
   -1.4141   -3.1378    1.8878 H   0  0  0  0  0  0  0  0  0  0  0  0
    0.8159    0.7526    2.1041 H   0  0  0  0  0  0  0  0  0  0  0  0
   -0.4148    2.8761    1.9155 H   0  0  0  0  0  0  0  0  0  0  0  0
   -2.6149    2.9201    0.7754 H   0  0  0  0  0  0  0  0  0  0  0  0
   -2.2691   -1.2388    0.0530 H   0  0  0  0  0  0  0  0  0  0  0  0
   -4.0893   -0.7242   -1.7913 H   0  0  0  0  0  0  0  0  0  0  0  0
   -4.2915   -1.2192   -0.0674 H   0  0  0  0  0  0  0  0  0  0  0  0
   -6.3983   -0.2110    0.1211 H   0  0  0  0  0  0  0  0  0  0  0  0
   -6.3319   -1.2262   -1.3514 H   0  0  0  0  0  0  0  0  0  0  0  0
   -6.7694    0.5187   -2.6283 H   0  0  0  0  0  0  0  0  0  0  0  0
   -5.9457    2.8328   -2.1093 H   0  0  0  0  0  0  0  0  0  0  0  0
   -4.7687    1.5854   -2.6877 H   0  0  0  0  0  0  0  0  0  0  0  0
   -5.3168    2.2117    0.2710 H   0  0  0  0  0  0  0  0  0  0  0  0
   -3.9617    2.9429   -0.7437 H   0  0  0  0  0  0  0  0  0  0  0  0
    2.0948    0.1102    0.2137 H   0  0  0  0  0  0  0  0  0  0  0  0
  1  2  3  0
  2  3  1  0
  3  4  2  0
  4  5  1  0
  5  6  2  0
  6  7  1  0
  7  8  2  0
  7  9  1  0
  9 10  2  0
 10 11  1  0
 11 12  2  0
 12 13  1  0
 13 14  1  0
 14 15  2  0
 15 16  1  0
 16 17  2  0
 17 18  1  0
 18 19  2  0
 19 20  1  0
 20 21  2  0
 20 22  1  0
 22 23  1  0
 23 24  1  0
 24 25  1  0
 25 26  1  0
 26 27  1  0
 15 28  1  0
 28 29  2  0
  8  3  1  0
 29  9  1  0
 28 12  1  0
 21 16  1  0
 27 22  1  0
  4 30  1  0
  5 31  1  0
  6 32  1  0
  8 33  1  0
 10 34  1  0
 13 35  1  0
 14 36  1  0
 17 37  1  0
 18 38  1  0
 19 39  1  0
 21 40  1  0
 23 41  1  0
 23 42  1  0
 24 43  1  0
 24 44  1  0
 25 45  1  0
 26 46  1  0
 26 47  1  0
 27 48  1  0
 27 49  1  0
 29 50  1  0
M  END
$$$$
[H]c1c(C([H])([H])N([H])C(=O)[C@@]2([H])N(C(=O)C([H])(N([H])[H])N([H])C(=O)C([H])([H])[H])C([H])([H])C2([H])[H])c([H])c2c([H])c([H])c(Cl)c([H])c2c1[H]
     RDKit          3D

 48 50  0  0  0  0  0  0  0  0999 V2000
   -6.7814   -0.3971    1.1720 C   0  0  0  0  0  0  0  0  0  0  0  0
   -5.7038    0.1698    0.2535 C   0  0  0  0  0  0  0  0  0  0  0  0
   -5.9368    0.0895   -0.9642 O   0  0  0  0  0  0  0  0  0  0  0  0
   -4.5683    0.7063    0.8437 N   0  0  0  0  0  0  0  0  0  0  0  0
   -3.3756    1.1964    0.1817 C   0  0  0  0  0  0  0  0  0  0  0  0
   -3.6542    2.5012   -0.4229 N   0  0  0  0  0  0  0  0  0  0  0  0
   -3.1230    0.1837   -0.9544 C   0  0  0  0  0  0  0  0  0  0  0  0
   -3.5850    0.3517   -2.0722 O   0  0  0  0  0  0  0  0  0  0  0  0
   -2.3480   -0.9756   -0.5493 N   0  0  0  0  0  0  0  0  0  0  0  0
   -2.0187   -2.1740   -1.2485 C   0  0  0  0  0  0  0  0  0  0  0  0
   -1.0465   -2.5643   -0.1711 C   0  0  0  0  0  0  0  0  0  0  0  0
   -1.7466   -1.4744    0.6128 C   0  0  1  0  0  0  0  0  0  0  0  0
   -0.7261   -0.4911    1.2153 C   0  0  0  0  0  0  0  0  0  0  0  0
   -0.7916   -0.3892    2.4067 O   0  0  0  0  0  0  0  0  0  0  0  0
    0.1168    0.1145    0.2915 N   0  0  0  0  0  0  0  0  0  0  0  0
    0.9342    0.7026   -0.5993 C   0  0  0  0  0  0  0  0  0  0  0  0
    2.3709    0.3200   -0.4880 C   0  0  0  0  0  0  0  0  0  0  0  0
    2.7988   -0.9895   -0.6267 C   0  0  0  0  0  0  0  0  0  0  0  0
    4.1651   -1.3097   -0.5118 C   0  0  0  0  0  0  0  0  0  0  0  0
    5.0551   -0.2538   -0.2545 C   0  0  0  0  0  0  0  0  0  0  0  0
    6.4076   -0.5245   -0.1316 C   0  0  0  0  0  0  0  0  0  0  0  0
    7.3057    0.4751    0.1034 C   0  0  0  0  0  0  0  0  0  0  0  0
    9.0306    0.1882    0.2709 Cl  0  0  0  0  0  0  0  0  0  0  0  0
    6.8693    1.7770    0.2235 C   0  0  0  0  0  0  0  0  0  0  0  0
    5.5400    2.0498    0.1096 C   0  0  0  0  0  0  0  0  0  0  0  0
    4.6161    1.0152   -0.1310 C   0  0  0  0  0  0  0  0  0  0  0  0
    3.2845    1.3032   -0.2464 C   0  0  0  0  0  0  0  0  0  0  0  0
   -7.3285    0.4041    1.6325 H   0  0  0  0  0  0  0  0  0  0  0  0
   -6.1691   -1.0107    1.9134 H   0  0  0  0  0  0  0  0  0  0  0  0
   -7.3735   -1.1053    0.5304 H   0  0  0  0  0  0  0  0  0  0  0  0
   -4.5610    0.7880    1.9145 H   0  0  0  0  0  0  0  0  0  0  0  0
   -2.5611    1.2854    0.8626 H   0  0  0  0  0  0  0  0  0  0  0  0
   -4.2534    3.0164    0.2096 H   0  0  0  0  0  0  0  0  0  0  0  0
   -4.0597    2.4058   -1.3509 H   0  0  0  0  0  0  0  0  0  0  0  0
   -2.9222   -2.8708   -1.2861 H   0  0  0  0  0  0  0  0  0  0  0  0
   -1.5905   -2.0872   -2.2951 H   0  0  0  0  0  0  0  0  0  0  0  0
   -1.1975   -3.5884    0.2388 H   0  0  0  0  0  0  0  0  0  0  0  0
   -0.0304   -2.3724   -0.5139 H   0  0  0  0  0  0  0  0  0  0  0  0
   -2.4055   -1.8644    1.3596 H   0  0  0  0  0  0  0  0  0  0  0  0
    0.7293    0.7637    1.3507 H   0  0  0  0  0  0  0  0  0  0  0  0
    0.8731    1.8393   -0.5727 H   0  0  0  0  0  0  0  0  0  0  0  0
    0.5899    0.4390   -1.6937 H   0  0  0  0  0  0  0  0  0  0  0  0
    2.1391   -1.8044   -0.8382 H   0  0  0  0  0  0  0  0  0  0  0  0
    4.5333   -2.3192   -0.6087 H   0  0  0  0  0  0  0  0  0  0  0  0
    6.7693   -1.5573   -0.2289 H   0  0  0  0  0  0  0  0  0  0  0  0
    7.5925    2.5750    0.3973 H   0  0  0  0  0  0  0  0  0  0  0  0
    5.1662    3.0972    0.2091 H   0  0  0  0  0  0  0  0  0  0  0  0
    2.9702    2.3653   -0.1307 H   0  0  0  0  0  0  0  0  0  0  0  0
  1  2  1  0
  2  3  2  0
  2  4  1  0
  4  5  1  0
  5  6  1  0
  5  7  1  0
  7  8  2  0
  7  9  1  0
  9 10  1  0
 10 11  1  0
 11 12  1  0
 12 13  1  0
 13 14  2  0
 13 15  1  0
 15 16  1  0
 16 17  1  0
 17 18  2  0
 18 19  1  0
 19 20  2  0
 20 21  1  0
 21 22  2  0
 22 23  1  0
 22 24  1  0
 24 25  2  0
 25 26  1  0
 26 27  2  0
 12  9  1  0
 27 17  1  0
 26 20  1  0
  1 28  1  0
  1 29  1  0
  1 30  1  0
  4 31  1  0
  5 32  1  0
  6 33  1  0
  6 34  1  0
 10 35  1  0
 10 36  1  0
 11 37  1  0
 11 38  1  0
 12 39  1  1
 15 40  1  0
 16 41  1  0
 16 42  1  0
 18 43  1  0
 19 44  1  0
 21 45  1  0
 24 46  1  0
 25 47  1  0
 27 48  1  0
M  END
$$$$
[H]c1nc([H])c(-c2c([H])c([H])c(S(=O)(=O)C([H])([H])C([H])([H])[C@@]([H])(C(=O)N3C([H])([H])C([H])([H])C([H])([H])C3([H])[H])N([H])[H])c([H])c2[H])c([H])c1[H]
     RDKit          3D

 49 51  0  0  0  0  0  0  0  0999 V2000
   -2.0510    1.6290   -1.0410 N   0  0  0  0  0  0  0  0  0  0  0  0
   -2.0679    0.3745   -1.7084 C   0  0  1  0  0  0  0  0  0  0  0  0
   -1.0266   -0.5824   -1.1798 C   0  0  0  0  0  0  0  0  0  0  0  0
   -1.2300   -0.8722    0.2921 C   0  0  0  0  0  0  0  0  0  0  0  0
   -0.0298   -1.9812    0.9306 S   0  0  0  0  0  0  0  0  0  0  0  0
   -0.3021   -2.1540    2.4059 O   0  0  0  0  0  0  0  0  0  0  0  0
   -0.0902   -3.3371    0.2880 O   0  0  0  0  0  0  0  0  0  0  0  0
    1.5971   -1.3672    0.7719 C   0  0  0  0  0  0  0  0  0  0  0  0
    2.2949   -1.6759   -0.3760 C   0  0  0  0  0  0  0  0  0  0  0  0
    3.6003   -1.2158   -0.5687 C   0  0  0  0  0  0  0  0  0  0  0  0
    4.2039   -0.4434    0.3962 C   0  0  0  0  0  0  0  0  0  0  0  0
    3.5198   -0.1320    1.5379 C   0  0  0  0  0  0  0  0  0  0  0  0
    2.2207   -0.5983    1.7140 C   0  0  0  0  0  0  0  0  0  0  0  0
    5.5883    0.0327    0.1678 C   0  0  0  0  0  0  0  0  0  0  0  0
    6.0154    1.2184    0.6788 C   0  0  0  0  0  0  0  0  0  0  0  0
    7.3092    1.6277    0.4455 C   0  0  0  0  0  0  0  0  0  0  0  0
    8.1805    0.8440   -0.3045 C   0  0  0  0  0  0  0  0  0  0  0  0
    7.6989   -0.3034   -0.7746 N   0  0  0  0  0  0  0  0  0  0  0  0
    6.4490   -0.7433   -0.5741 C   0  0  0  0  0  0  0  0  0  0  0  0
   -3.4199   -0.2416   -1.7154 C   0  0  0  0  0  0  0  0  0  0  0  0
   -3.5714   -1.3689   -2.3154 O   0  0  0  0  0  0  0  0  0  0  0  0
   -4.5685    0.3132   -1.1112 N   0  0  0  0  0  0  0  0  0  0  0  0
   -5.8838   -0.3453   -1.1617 C   0  0  0  0  0  0  0  0  0  0  0  0
   -6.4851    0.0861    0.1547 C   0  0  0  0  0  0  0  0  0  0  0  0
   -6.1124    1.5610    0.1537 C   0  0  0  0  0  0  0  0  0  0  0  0
   -4.6904    1.5510   -0.3689 C   0  0  0  0  0  0  0  0  0  0  0  0
   -2.1801    2.4349   -1.6942 H   0  0  0  0  0  0  0  0  0  0  0  0
   -1.1929    1.7316   -0.4372 H   0  0  0  0  0  0  0  0  0  0  0  0
   -1.8025    0.5527   -2.7860 H   0  0  0  0  0  0  0  0  0  0  0  0
   -0.0037   -0.1866   -1.3354 H   0  0  0  0  0  0  0  0  0  0  0  0
   -1.1093   -1.5180   -1.7668 H   0  0  0  0  0  0  0  0  0  0  0  0
   -1.2575    0.0314    0.9037 H   0  0  0  0  0  0  0  0  0  0  0  0
   -2.2230   -1.3648    0.3781 H   0  0  0  0  0  0  0  0  0  0  0  0
    1.8732   -2.2784   -1.1688 H   0  0  0  0  0  0  0  0  0  0  0  0
    4.1425   -1.4613   -1.4713 H   0  0  0  0  0  0  0  0  0  0  0  0
    4.0246    0.4777    2.2765 H   0  0  0  0  0  0  0  0  0  0  0  0
    1.6953   -0.3465    2.6149 H   0  0  0  0  0  0  0  0  0  0  0  0
    5.3159    1.8149    1.2625 H   0  0  0  0  0  0  0  0  0  0  0  0
    7.6507    2.5773    0.8548 H   0  0  0  0  0  0  0  0  0  0  0  0
    9.2023    1.1896   -0.4763 H   0  0  0  0  0  0  0  0  0  0  0  0
    6.1074   -1.6957   -0.9849 H   0  0  0  0  0  0  0  0  0  0  0  0
   -6.5119    0.1264   -1.9586 H   0  0  0  0  0  0  0  0  0  0  0  0
   -5.7943   -1.4247   -1.2831 H   0  0  0  0  0  0  0  0  0  0  0  0
   -7.5755   -0.0454    0.1987 H   0  0  0  0  0  0  0  0  0  0  0  0
   -6.0305   -0.4391    1.0142 H   0  0  0  0  0  0  0  0  0  0  0  0
   -6.7588    2.0992   -0.5664 H   0  0  0  0  0  0  0  0  0  0  0  0
   -6.1920    1.9167    1.1881 H   0  0  0  0  0  0  0  0  0  0  0  0
   -4.0475    1.4789    0.5419 H   0  0  0  0  0  0  0  0  0  0  0  0
   -4.4814    2.4536   -0.9369 H   0  0  0  0  0  0  0  0  0  0  0  0
  1  2  1  0
  2  3  1  0
  3  4  1  0
  4  5  1  0
  5  6  2  0
  5  7  2  0
  5  8  1  0
  8  9  2  0
  9 10  1  0
 10 11  2  0
 11 12  1  0
 12 13  2  0
 11 14  1  0
 14 15  2  0
 15 16  1  0
 16 17  2  0
 17 18  1  0
 18 19  2  0
  2 20  1  0
 20 21  2  0
 20 22  1  0
 22 23  1  0
 23 24  1  0
 24 25  1  0
 25 26  1  0
 13  8  1  0
 19 14  1  0
 26 22  1  0
  1 27  1  0
  1 28  1  0
  2 29  1  6
  3 30  1  0
  3 31  1  0
  4 32  1  0
  4 33  1  0
  9 34  1  0
 10 35  1  0
 12 36  1  0
 13 37  1  0
 15 38  1  0
 16 39  1  0
 17 40  1  0
 19 41  1  0
 23 42  1  0
 23 43  1  0
 24 44  1  0
 24 45  1  0
 25 46  1  0
 25 47  1  0
 26 48  1  0
 26 49  1  0
M  END
$$$$
[H]OC(c1c([H])nc(N2C([H])([H])C([H])([H])N(S(=O)(=O)c3c([H])nc(C([H])([H])[H])c([H])c3[H])C([H])([H])C2([H])[H])c(-c2c([H])oc([H])c2[H])c1[H])(C(F)(F)F)C(F)(F)F
     RDKit          3D

 57 60  0  0  0  0  0  0  0  0999 V2000
    8.9444    1.7953    0.8466 C   0  0  0  0  0  0  0  0  0  0  0  0
    7.6504    1.1214    0.6387 C   0  0  0  0  0  0  0  0  0  0  0  0
    7.1325    0.8654   -0.6071 C   0  0  0  0  0  0  0  0  0  0  0  0
    5.9305    0.2204   -0.7607 C   0  0  0  0  0  0  0  0  0  0  0  0
    5.1976   -0.1962    0.3542 C   0  0  0  0  0  0  0  0  0  0  0  0
    5.7428    0.0758    1.5922 C   0  0  0  0  0  0  0  0  0  0  0  0
    6.9381    0.7200    1.6978 N   0  0  0  0  0  0  0  0  0  0  0  0
    3.6794   -1.0302    0.1715 S   0  0  0  0  0  0  0  0  0  0  0  0
    3.6924   -2.1250    1.2483 O   0  0  0  0  0  0  0  0  0  0  0  0
    3.6818   -1.7291   -1.1753 O   0  0  0  0  0  0  0  0  0  0  0  0
    2.3250   -0.0897    0.4313 N   0  0  0  0  0  0  0  0  0  0  0  0
    1.4647   -0.4464    1.5137 C   0  0  0  0  0  0  0  0  0  0  0  0
    0.2307   -1.1196    0.8959 C   0  0  0  0  0  0  0  0  0  0  0  0
   -0.4828   -0.0435    0.1969 N   0  0  0  0  0  0  0  0  0  0  0  0
    0.2732    0.8673   -0.5867 C   0  0  0  0  0  0  0  0  0  0  0  0
    1.7594    0.6534   -0.6071 C   0  0  0  0  0  0  0  0  0  0  0  0
   -1.9125    0.0447    0.3143 C   0  0  0  0  0  0  0  0  0  0  0  0
   -2.4347    0.4718    1.4873 N   0  0  0  0  0  0  0  0  0  0  0  0
   -3.7480    0.5909    1.7313 C   0  0  0  0  0  0  0  0  0  0  0  0
   -4.6654    0.2656    0.7490 C   0  0  0  0  0  0  0  0  0  0  0  0
   -4.1571   -0.1724   -0.4538 C   0  0  0  0  0  0  0  0  0  0  0  0
   -2.7769   -0.2899   -0.6953 C   0  0  0  0  0  0  0  0  0  0  0  0
   -2.3132   -0.7418   -1.9876 C   0  0  0  0  0  0  0  0  0  0  0  0
   -2.6609   -0.1685   -3.1991 C   0  0  0  0  0  0  0  0  0  0  0  0
   -2.0429   -0.9027   -4.1935 C   0  0  0  0  0  0  0  0  0  0  0  0
   -1.3789   -1.8458   -3.5833 O   0  0  0  0  0  0  0  0  0  0  0  0
   -1.5070   -1.7950   -2.2809 C   0  0  0  0  0  0  0  0  0  0  0  0
   -6.1208    0.3499    0.9184 C   0  0  0  0  0  0  0  0  0  0  0  0
   -6.6588   -0.8992    0.5166 O   0  0  0  0  0  0  0  0  0  0  0  0
   -6.6725    1.3734   -0.0555 C   0  0  0  0  0  0  0  0  0  0  0  0
   -6.1059    2.6318    0.1598 F   0  0  0  0  0  0  0  0  0  0  0  0
   -6.5435    1.0256   -1.3764 F   0  0  0  0  0  0  0  0  0  0  0  0
   -8.0486    1.5675    0.1307 F   0  0  0  0  0  0  0  0  0  0  0  0
   -6.5979    0.5986    2.3080 C   0  0  0  0  0  0  0  0  0  0  0  0
   -8.0109    0.5993    2.2631 F   0  0  0  0  0  0  0  0  0  0  0  0
   -6.2237   -0.3965    3.1374 F   0  0  0  0  0  0  0  0  0  0  0  0
   -6.3095    1.8825    2.7592 F   0  0  0  0  0  0  0  0  0  0  0  0
    8.8881    2.4805    1.6955 H   0  0  0  0  0  0  0  0  0  0  0  0
    9.3472    2.2746   -0.0661 H   0  0  0  0  0  0  0  0  0  0  0  0
    9.6882    0.9979    1.1287 H   0  0  0  0  0  0  0  0  0  0  0  0
    7.7037    1.1891   -1.4907 H   0  0  0  0  0  0  0  0  0  0  0  0
    5.5287    0.0196   -1.7350 H   0  0  0  0  0  0  0  0  0  0  0  0
    5.2559   -0.2059    2.4962 H   0  0  0  0  0  0  0  0  0  0  0  0
    1.1633    0.3985    2.1439 H   0  0  0  0  0  0  0  0  0  0  0  0
    1.9698   -1.2062    2.1279 H   0  0  0  0  0  0  0  0  0  0  0  0
    0.6325   -1.7862    0.1108 H   0  0  0  0  0  0  0  0  0  0  0  0
   -0.3783   -1.6072    1.6564 H   0  0  0  0  0  0  0  0  0  0  0  0
   -0.1462    0.9333   -1.6050 H   0  0  0  0  0  0  0  0  0  0  0  0
    0.0782    1.8957   -0.1419 H   0  0  0  0  0  0  0  0  0  0  0  0
    2.0182    0.2071   -1.5940 H   0  0  0  0  0  0  0  0  0  0  0  0
    2.2538    1.6722   -0.6338 H   0  0  0  0  0  0  0  0  0  0  0  0
   -4.1375    0.9268    2.6715 H   0  0  0  0  0  0  0  0  0  0  0  0
   -4.7608   -0.4799   -1.3060 H   0  0  0  0  0  0  0  0  0  0  0  0
   -3.2933    0.7070   -3.3555 H   0  0  0  0  0  0  0  0  0  0  0  0
   -2.0595   -0.7818   -5.2681 H   0  0  0  0  0  0  0  0  0  0  0  0
   -1.0548   -2.4653   -1.5747 H   0  0  0  0  0  0  0  0  0  0  0  0
   -5.9678   -1.5292    0.2402 H   0  0  0  0  0  0  0  0  0  0  0  0
  1  2  1  0
  2  3  2  0
  3  4  1  0
  4  5  2  0
  5  6  1  0
  6  7  2  0
  5  8  1  0
  8  9  2  0
  8 10  2  0
  8 11  1  0
 11 12  1  0
 12 13  1  0
 13 14  1  0
 14 15  1  0
 15 16  1  0
 14 17  1  0
 17 18  2  0
 18 19  1  0
 19 20  2  0
 20 21  1  0
 21 22  2  0
 22 23  1  0
 23 24  1  0
 24 25  2  0
 25 26  1  0
 26 27  1  0
 20 28  1  0
 28 29  1  0
 28 30  1  0
 30 31  1  0
 30 32  1  0
 30 33  1  0
 28 34  1  0
 34 35  1  0
 34 36  1  0
 34 37  1  0
  7  2  1  0
 16 11  1  0
 22 17  1  0
 27 23  2  0
  1 38  1  0
  1 39  1  0
  1 40  1  0
  3 41  1  0
  4 42  1  0
  6 43  1  0
 12 44  1  0
 12 45  1  0
 13 46  1  0
 13 47  1  0
 15 48  1  0
 15 49  1  0
 16 50  1  0
 16 51  1  0
 19 52  1  0
 21 53  1  0
 24 54  1  0
 25 55  1  0
 27 56  1  0
 29 57  1  0
M  END
$$$$
[H]OC([H])([H])C([H])([H])N(C(=O)C([H])([H])N1C([H])([H])C([H])([H])C([H])(c2c([H])c([H])c3c(c2[H])c(C([H])(C([H])([H])[H])C([H])([H])[H])c(-c2c([H])c(C([H])([H])C([H])([H])[H])c4nc([H])nn4c2[H])n3[H])C([H])([H])C1([H])[H])C([H])([H])[H]
     RDKit          3D

 75 79  0  0  0  0  0  0  0  0999 V2000
    8.8668    2.6497   -1.5625 C   0  0  0  0  0  0  0  0  0  0  0  0
    8.1812    2.4763   -0.2518 C   0  0  0  0  0  0  0  0  0  0  0  0
    7.4169    1.2054   -0.0954 C   0  0  0  0  0  0  0  0  0  0  0  0
    6.0554    1.1680   -0.1826 C   0  0  0  0  0  0  0  0  0  0  0  0
    5.2951   -0.0177   -0.0069 C   0  0  0  0  0  0  0  0  0  0  0  0
    6.0242   -1.1237    0.2543 C   0  0  0  0  0  0  0  0  0  0  0  0
    7.3919   -1.0886    0.3436 N   0  0  0  0  0  0  0  0  0  0  0  0
    8.2863   -2.0232    0.5912 N   0  0  0  0  0  0  0  0  0  0  0  0
    9.5250   -1.5064    0.5804 C   0  0  0  0  0  0  0  0  0  0  0  0
    9.3918   -0.1938    0.3132 N   0  0  0  0  0  0  0  0  0  0  0  0
    8.0923    0.0562    0.1713 C   0  0  0  0  0  0  0  0  0  0  0  0
    3.8464    0.0876   -0.1730 C   0  0  0  0  0  0  0  0  0  0  0  0
    3.2779    1.1184   -0.8860 N   0  0  0  0  0  0  0  0  0  0  0  0
    1.9590    1.0652   -0.8044 C   0  0  0  0  0  0  0  0  0  0  0  0
    0.9340    1.8501   -1.3356 C   0  0  0  0  0  0  0  0  0  0  0  0
   -0.3842    1.5530   -1.0908 C   0  0  0  0  0  0  0  0  0  0  0  0
   -0.7519    0.4788   -0.3187 C   0  0  0  0  0  0  0  0  0  0  0  0
    0.2671   -0.3055    0.2118 C   0  0  0  0  0  0  0  0  0  0  0  0
    1.5933   -0.0272   -0.0181 C   0  0  0  0  0  0  0  0  0  0  0  0
    2.8106   -0.6242    0.3673 C   0  0  0  0  0  0  0  0  0  0  0  0
    2.9352   -1.8465    1.1872 C   0  0  0  0  0  0  0  0  0  0  0  0
    1.8266   -2.0657    2.1945 C   0  0  0  0  0  0  0  0  0  0  0  0
    2.8602   -3.0881    0.2547 C   0  0  0  0  0  0  0  0  0  0  0  0
   -2.1483    0.1877   -0.0265 C   0  0  0  0  0  0  0  0  0  0  0  0
   -2.4193    0.2413    1.4814 C   0  0  0  0  0  0  0  0  0  0  0  0
   -3.8736    0.2854    1.6862 C   0  0  0  0  0  0  0  0  0  0  0  0
   -4.6422   -0.7231    1.0122 N   0  0  0  0  0  0  0  0  0  0  0  0
   -5.8896   -0.0376    0.6526 C   0  0  0  0  0  0  0  0  0  0  0  0
   -6.9257   -0.9245    0.0983 C   0  0  0  0  0  0  0  0  0  0  0  0
   -6.7379   -2.1378   -0.0167 O   0  0  0  0  0  0  0  0  0  0  0  0
   -8.1812   -0.3511   -0.3129 N   0  0  0  0  0  0  0  0  0  0  0  0
   -9.2016   -1.2363   -0.8007 C   0  0  0  0  0  0  0  0  0  0  0  0
   -8.4121    1.0628   -0.2682 C   0  0  0  0  0  0  0  0  0  0  0  0
   -8.0225    1.7378   -1.5691 C   0  0  0  0  0  0  0  0  0  0  0  0
   -8.2756    3.0984   -1.4371 O   0  0  0  0  0  0  0  0  0  0  0  0
   -4.0982   -1.2545   -0.1739 C   0  0  0  0  0  0  0  0  0  0  0  0
   -2.6386   -1.1791   -0.4210 C   0  0  0  0  0  0  0  0  0  0  0  0
    9.1095    3.7589   -1.6329 H   0  0  0  0  0  0  0  0  0  0  0  0
    9.8687    2.1580   -1.6197 H   0  0  0  0  0  0  0  0  0  0  0  0
    8.2455    2.4134   -2.4501 H   0  0  0  0  0  0  0  0  0  0  0  0
    8.9900    2.4576    0.5387 H   0  0  0  0  0  0  0  0  0  0  0  0
    7.4910    3.3125   -0.0193 H   0  0  0  0  0  0  0  0  0  0  0  0
    5.5305    2.0824   -0.3970 H   0  0  0  0  0  0  0  0  0  0  0  0
    5.5686   -2.0835    0.3746 H   0  0  0  0  0  0  0  0  0  0  0  0
   10.4575   -2.0515    0.7580 H   0  0  0  0  0  0  0  0  0  0  0  0
    3.8065    1.8499   -1.4222 H   0  0  0  0  0  0  0  0  0  0  0  0
    1.2090    2.7079   -1.9514 H   0  0  0  0  0  0  0  0  0  0  0  0
   -1.1472    2.1954   -1.5306 H   0  0  0  0  0  0  0  0  0  0  0  0
   -0.0326   -1.1465    0.7822 H   0  0  0  0  0  0  0  0  0  0  0  0
    3.8739   -1.9292    1.7411 H   0  0  0  0  0  0  0  0  0  0  0  0
    1.1374   -2.8227    1.8190 H   0  0  0  0  0  0  0  0  0  0  0  0
    1.3991   -1.1243    2.5371 H   0  0  0  0  0  0  0  0  0  0  0  0
    2.3127   -2.5852    3.1061 H   0  0  0  0  0  0  0  0  0  0  0  0
    2.7707   -2.7167   -0.7886 H   0  0  0  0  0  0  0  0  0  0  0  0
    3.7884   -3.6871    0.3427 H   0  0  0  0  0  0  0  0  0  0  0  0
    1.9801   -3.6821    0.4980 H   0  0  0  0  0  0  0  0  0  0  0  0
   -2.8135    0.9329   -0.5008 H   0  0  0  0  0  0  0  0  0  0  0  0
   -1.8732   -0.5501    1.9916 H   0  0  0  0  0  0  0  0  0  0  0  0
   -1.9753    1.2084    1.8419 H   0  0  0  0  0  0  0  0  0  0  0  0
   -4.0680    0.1340    2.7921 H   0  0  0  0  0  0  0  0  0  0  0  0
   -4.2374    1.3110    1.4843 H   0  0  0  0  0  0  0  0  0  0  0  0
   -5.5887    0.7254   -0.0972 H   0  0  0  0  0  0  0  0  0  0  0  0
   -6.2194    0.5093    1.5582 H   0  0  0  0  0  0  0  0  0  0  0  0
   -8.7935   -2.1919   -1.1957 H   0  0  0  0  0  0  0  0  0  0  0  0
   -9.8317   -1.5073    0.0998 H   0  0  0  0  0  0  0  0  0  0  0  0
   -9.8070   -0.7097   -1.5527 H   0  0  0  0  0  0  0  0  0  0  0  0
   -9.4872    1.2665   -0.1101 H   0  0  0  0  0  0  0  0  0  0  0  0
   -7.8830    1.5361    0.5913 H   0  0  0  0  0  0  0  0  0  0  0  0
   -8.7160    1.3365   -2.3524 H   0  0  0  0  0  0  0  0  0  0  0  0
   -6.9680    1.6147   -1.8248 H   0  0  0  0  0  0  0  0  0  0  0  0
   -8.7975    3.2791   -0.5989 H   0  0  0  0  0  0  0  0  0  0  0  0
   -4.6188   -0.8755   -1.1015 H   0  0  0  0  0  0  0  0  0  0  0  0
   -4.3512   -2.3619   -0.1899 H   0  0  0  0  0  0  0  0  0  0  0  0
   -2.4569   -1.4099   -1.4945 H   0  0  0  0  0  0  0  0  0  0  0  0
   -2.1078   -1.9222    0.2383 H   0  0  0  0  0  0  0  0  0  0  0  0
  1  2  1  0
  2  3  1  0
  3  4  2  0
  4  5  1  0
  5  6  2  0
  6  7  1  0
  7  8  1  0
  8  9  2  0
  9 10  1  0
 10 11  2  0
  5 12  1  0
 12 13  1  0
 13 14  1  0
 14 15  2  0
 15 16  1  0
 16 17  2  0
 17 18  1  0
 18 19  2  0
 19 20  1  0
 20 21  1  0
 21 22  1  0
 21 23  1  0
 17 24  1  0
 24 25  1  0
 25 26  1  0
 26 27  1  0
 27 28  1  0
 28 29  1  0
 29 30  2  0
 29 31  1  0
 31 32  1  0
 31 33  1  0
 33 34  1  0
 34 35  1  0
 27 36  1  0
 36 37  1  0
 11  3  1  0
 20 12  2  0
 37 24  1  0
 11  7  1  0
 19 14  1  0
  1 38  1  0
  1 39  1  0
  1 40  1  0
  2 41  1  0
  2 42  1  0
  4 43  1  0
  6 44  1  0
  9 45  1  0
 13 46  1  0
 15 47  1  0
 16 48  1  0
 18 49  1  0
 21 50  1  0
 22 51  1  0
 22 52  1  0
 22 53  1  0
 23 54  1  0
 23 55  1  0
 23 56  1  0
 24 57  1  0
 25 58  1  0
 25 59  1  0
 26 60  1  0
 26 61  1  0
 28 62  1  0
 28 63  1  0
 32 64  1  0
 32 65  1  0
 32 66  1  0
 33 67  1  0
 33 68  1  0
 34 69  1  0
 34 70  1  0
 35 71  1  0
 36 72  1  0
 36 73  1  0
 37 74  1  0
 37 75  1  0
M  END
$$$$
[H]c1c([H])c([H])c2c(c1[H])OC([H])([H])C([H])(C([H])([H])N([H])C([H])([H])C([H])([H])Oc1c(OC([H])([H])[H])c([H])c([H])c([H])c1OC([H])([H])[H])O2
     RDKit          3D

 48 50  0  0  0  0  0  0  0  0999 V2000
   -3.3668   -2.8909    1.6634 C   0  0  0  0  0  0  0  0  0  0  0  0
   -3.3666   -1.7587    0.8230 O   0  0  0  0  0  0  0  0  0  0  0  0
   -3.5166   -0.4829    1.3079 C   0  0  0  0  0  0  0  0  0  0  0  0
   -3.6833   -0.2674    2.6435 C   0  0  0  0  0  0  0  0  0  0  0  0
   -3.8365    1.0184    3.1406 C   0  0  0  0  0  0  0  0  0  0  0  0
   -3.8187    2.0863    2.2616 C   0  0  0  0  0  0  0  0  0  0  0  0
   -3.6500    1.9022    0.8867 C   0  0  0  0  0  0  0  0  0  0  0  0
   -3.6302    2.9388   -0.0148 O   0  0  0  0  0  0  0  0  0  0  0  0
   -3.7860    4.2757    0.4149 C   0  0  0  0  0  0  0  0  0  0  0  0
   -3.5018    0.6146    0.4438 C   0  0  0  0  0  0  0  0  0  0  0  0
   -3.3228    0.2932   -0.9088 O   0  0  0  0  0  0  0  0  0  0  0  0
   -1.9700    0.1052   -1.3498 C   0  0  0  0  0  0  0  0  0  0  0  0
   -1.1185    1.3205   -1.1548 C   0  0  0  0  0  0  0  0  0  0  0  0
    0.2597    1.0891   -1.6044 N   0  0  0  0  0  0  0  0  0  0  0  0
    0.9349    0.1627   -0.7576 C   0  0  0  0  0  0  0  0  0  0  0  0
    2.3625   -0.1157   -1.1000 C   0  0  0  0  0  0  0  0  0  0  0  0
    2.6001   -0.6066   -2.4884 C   0  0  0  0  0  0  0  0  0  0  0  0
    4.0001   -0.8174   -2.6383 O   0  0  0  0  0  0  0  0  0  0  0  0
    4.8345   -1.2435   -1.6252 C   0  0  0  0  0  0  0  0  0  0  0  0
    6.1576   -1.5444   -1.8278 C   0  0  0  0  0  0  0  0  0  0  0  0
    6.9662   -1.9732   -0.7701 C   0  0  0  0  0  0  0  0  0  0  0  0
    6.4128   -2.0894    0.4829 C   0  0  0  0  0  0  0  0  0  0  0  0
    5.0831   -1.7867    0.6860 C   0  0  0  0  0  0  0  0  0  0  0  0
    4.2780   -1.3606   -0.3627 C   0  0  0  0  0  0  0  0  0  0  0  0
    2.9447   -1.0503   -0.1944 O   0  0  0  0  0  0  0  0  0  0  0  0
   -2.9035   -3.7684    1.1270 H   0  0  0  0  0  0  0  0  0  0  0  0
   -4.4197   -3.1451    1.9535 H   0  0  0  0  0  0  0  0  0  0  0  0
   -2.8123   -2.7357    2.6114 H   0  0  0  0  0  0  0  0  0  0  0  0
   -3.7045   -1.0725    3.3690 H   0  0  0  0  0  0  0  0  0  0  0  0
   -3.9658    1.1557    4.2046 H   0  0  0  0  0  0  0  0  0  0  0  0
   -3.9378    3.0999    2.6304 H   0  0  0  0  0  0  0  0  0  0  0  0
   -4.5669    4.3995    1.1891 H   0  0  0  0  0  0  0  0  0  0  0  0
   -2.8220    4.6782    0.8233 H   0  0  0  0  0  0  0  0  0  0  0  0
   -4.0249    4.9262   -0.4763 H   0  0  0  0  0  0  0  0  0  0  0  0
   -2.0623   -0.0633   -2.4590 H   0  0  0  0  0  0  0  0  0  0  0  0
   -1.5952   -0.8045   -0.8860 H   0  0  0  0  0  0  0  0  0  0  0  0
   -1.4704    2.1743   -1.7652 H   0  0  0  0  0  0  0  0  0  0  0  0
   -1.1122    1.5684   -0.0740 H   0  0  0  0  0  0  0  0  0  0  0  0
    0.1709    0.6278   -2.5598 H   0  0  0  0  0  0  0  0  0  0  0  0
    0.4071   -0.8204   -0.7738 H   0  0  0  0  0  0  0  0  0  0  0  0
    0.9069    0.4678    0.3269 H   0  0  0  0  0  0  0  0  0  0  0  0
    2.9174    0.8476   -0.9759 H   0  0  0  0  0  0  0  0  0  0  0  0
    2.1186   -1.5830   -2.6983 H   0  0  0  0  0  0  0  0  0  0  0  0
    2.3323    0.1662   -3.2397 H   0  0  0  0  0  0  0  0  0  0  0  0
    6.5940   -1.4505   -2.8269 H   0  0  0  0  0  0  0  0  0  0  0  0
    8.0006   -2.1974   -0.9796 H   0  0  0  0  0  0  0  0  0  0  0  0
    7.0592   -2.4218    1.2814 H   0  0  0  0  0  0  0  0  0  0  0  0
    4.6244   -1.8681    1.6534 H   0  0  0  0  0  0  0  0  0  0  0  0
  1  2  1  0
  2  3  1  0
  3  4  2  0
  4  5  1  0
  5  6  2  0
  6  7  1  0
  7  8  1  0
  8  9  1  0
  7 10  2  0
 10 11  1  0
 11 12  1  0
 12 13  1  0
 13 14  1  0
 14 15  1  0
 15 16  1  0
 16 17  1  0
 17 18  1  0
 18 19  1  0
 19 20  2  0
 20 21  1  0
 21 22  2  0
 22 23  1  0
 23 24  2  0
 24 25  1  0
 10  3  1  0
 25 16  1  0
 24 19  1  0
  1 26  1  0
  1 27  1  0
  1 28  1  0
  4 29  1  0
  5 30  1  0
  6 31  1  0
  9 32  1  0
  9 33  1  0
  9 34  1  0
 12 35  1  0
 12 36  1  0
 13 37  1  0
 13 38  1  0
 14 39  1  0
 15 40  1  0
 15 41  1  0
 16 42  1  0
 17 43  1  0
 17 44  1  0
 20 45  1  0
 21 46  1  0
 22 47  1  0
 23 48  1  0
M  END
$$$$
[H]ON([H])C(=O)c1c([H])c([H])c(Oc2c([H])c([H])c(S(=O)(=O)C3=C([H])C([H])([H])N(C(=O)OC([H])([H])c4c([H])c([H])c([H])c([H])c4[H])C([H])([H])C3([H])[H])c([H])c2[H])c([H])c1[H]
     RDKit          3D

 60 63  0  0  0  0  0  0  0  0999 V2000
  -11.9297    1.0745   -1.0717 O   0  0  0  0  0  0  0  0  0  0  0  0
  -10.6248    0.8069   -0.8792 N   0  0  0  0  0  0  0  0  0  0  0  0
  -10.2305   -0.3272   -0.1339 C   0  0  0  0  0  0  0  0  0  0  0  0
  -11.1348   -1.0718    0.3395 O   0  0  0  0  0  0  0  0  0  0  0  0
   -8.8385   -0.6749    0.1120 C   0  0  0  0  0  0  0  0  0  0  0  0
   -7.8111    0.0993   -0.3802 C   0  0  0  0  0  0  0  0  0  0  0  0
   -6.5001   -0.2477   -0.1359 C   0  0  0  0  0  0  0  0  0  0  0  0
   -6.2292   -1.3697    0.6011 C   0  0  0  0  0  0  0  0  0  0  0  0
   -4.9083   -1.7471    0.8654 O   0  0  0  0  0  0  0  0  0  0  0  0
   -3.8309   -1.0029    0.3932 C   0  0  0  0  0  0  0  0  0  0  0  0
   -3.2424   -1.2416   -0.8329 C   0  0  0  0  0  0  0  0  0  0  0  0
   -2.1681   -0.4969   -1.2998 C   0  0  0  0  0  0  0  0  0  0  0  0
   -1.6573    0.5112   -0.5401 C   0  0  0  0  0  0  0  0  0  0  0  0
   -2.2247    0.7695    0.6842 C   0  0  0  0  0  0  0  0  0  0  0  0
   -3.3066    0.0201    1.1551 C   0  0  0  0  0  0  0  0  0  0  0  0
   -0.3165    1.4821   -1.0608 S   0  0  0  0  0  0  0  0  0  0  0  0
   -0.5059    2.8638   -0.4948 O   0  0  0  0  0  0  0  0  0  0  0  0
   -0.4070    1.6227   -2.5627 O   0  0  0  0  0  0  0  0  0  0  0  0
    1.2147    0.8154   -0.5702 C   0  0  0  0  0  0  0  0  0  0  0  0
    1.8816   -0.0343   -1.3257 C   0  0  0  0  0  0  0  0  0  0  0  0
    3.1898   -0.5946   -0.8903 C   0  0  0  0  0  0  0  0  0  0  0  0
    3.8660    0.2541    0.0585 N   0  0  0  0  0  0  0  0  0  0  0  0
    3.2732    1.5070    0.4652 C   0  0  0  0  0  0  0  0  0  0  0  0
    1.7915    1.2107    0.7336 C   0  0  0  0  0  0  0  0  0  0  0  0
    5.1155   -0.1447    0.5918 C   0  0  0  0  0  0  0  0  0  0  0  0
    5.6138   -1.2470    0.2193 O   0  0  0  0  0  0  0  0  0  0  0  0
    5.8368    0.5835    1.4942 O   0  0  0  0  0  0  0  0  0  0  0  0
    7.0765    0.2602    2.0661 C   0  0  0  0  0  0  0  0  0  0  0  0
    8.1805    0.0932    1.1096 C   0  0  0  0  0  0  0  0  0  0  0  0
    8.7874    1.1807    0.5119 C   0  0  0  0  0  0  0  0  0  0  0  0
    9.8294    1.0446   -0.3815 C   0  0  0  0  0  0  0  0  0  0  0  0
   10.2635   -0.2526   -0.6715 C   0  0  0  0  0  0  0  0  0  0  0  0
    9.6787   -1.3616   -0.0915 C   0  0  0  0  0  0  0  0  0  0  0  0
    8.6323   -1.1718    0.8022 C   0  0  0  0  0  0  0  0  0  0  0  0
   -7.2387   -2.1490    1.0969 C   0  0  0  0  0  0  0  0  0  0  0  0
   -8.5516   -1.8076    0.8562 C   0  0  0  0  0  0  0  0  0  0  0  0
  -12.4732    0.8517   -0.2897 H   0  0  0  0  0  0  0  0  0  0  0  0
   -9.9410    1.4657   -1.2997 H   0  0  0  0  0  0  0  0  0  0  0  0
   -8.0124    0.9730   -0.9540 H   0  0  0  0  0  0  0  0  0  0  0  0
   -5.6895    0.3818   -0.5365 H   0  0  0  0  0  0  0  0  0  0  0  0
   -3.6279   -2.0369   -1.4577 H   0  0  0  0  0  0  0  0  0  0  0  0
   -1.7052   -0.6859   -2.2660 H   0  0  0  0  0  0  0  0  0  0  0  0
   -1.8455    1.5545    1.3031 H   0  0  0  0  0  0  0  0  0  0  0  0
   -3.7542    0.2233    2.1201 H   0  0  0  0  0  0  0  0  0  0  0  0
    1.4797   -0.3502   -2.3053 H   0  0  0  0  0  0  0  0  0  0  0  0
    3.8555   -0.7188   -1.7723 H   0  0  0  0  0  0  0  0  0  0  0  0
    3.0607   -1.6276   -0.4535 H   0  0  0  0  0  0  0  0  0  0  0  0
    3.7567    1.9470    1.3440 H   0  0  0  0  0  0  0  0  0  0  0  0
    3.2962    2.1855   -0.4309 H   0  0  0  0  0  0  0  0  0  0  0  0
    1.7834    0.2808    1.3729 H   0  0  0  0  0  0  0  0  0  0  0  0
    1.2821    2.0537    1.2070 H   0  0  0  0  0  0  0  0  0  0  0  0
    7.3026    1.1015    2.7879 H   0  0  0  0  0  0  0  0  0  0  0  0
    6.9938   -0.6355    2.7515 H   0  0  0  0  0  0  0  0  0  0  0  0
    8.4530    2.1833    0.7350 H   0  0  0  0  0  0  0  0  0  0  0  0
   10.3062    1.8945   -0.8508 H   0  0  0  0  0  0  0  0  0  0  0  0
   11.0815   -0.4124   -1.3695 H   0  0  0  0  0  0  0  0  0  0  0  0
   10.0470   -2.3454   -0.3452 H   0  0  0  0  0  0  0  0  0  0  0  0
    8.1992   -2.0614    1.2373 H   0  0  0  0  0  0  0  0  0  0  0  0
   -7.0589   -3.0459    1.6855 H   0  0  0  0  0  0  0  0  0  0  0  0
   -9.3645   -2.4325    1.2538 H   0  0  0  0  0  0  0  0  0  0  0  0
  1  2  1  0
  2  3  1  0
  3  4  2  0
  3  5  1  0
  5  6  2  0
  6  7  1  0
  7  8  2  0
  8  9  1  0
  9 10  1  0
 10 11  2  0
 11 12  1  0
 12 13  2  0
 13 14  1  0
 14 15  2  0
 13 16  1  0
 16 17  2  0
 16 18  2  0
 16 19  1  0
 19 20  2  0
 20 21  1  0
 21 22  1  0
 22 23  1  0
 23 24  1  0
 22 25  1  0
 25 26  2  0
 25 27  1  0
 27 28  1  0
 28 29  1  0
 29 30  2  0
 30 31  1  0
 31 32  2  0
 32 33  1  0
 33 34  2  0
  8 35  1  0
 35 36  2  0
 36  5  1  0
 15 10  1  0
 24 19  1  0
 34 29  1  0
  1 37  1  0
  2 38  1  0
  6 39  1  0
  7 40  1  0
 11 41  1  0
 12 42  1  0
 14 43  1  0
 15 44  1  0
 20 45  1  0
 21 46  1  0
 21 47  1  0
 23 48  1  0
 23 49  1  0
 24 50  1  0
 24 51  1  0
 28 52  1  0
 28 53  1  0
 30 54  1  0
 31 55  1  0
 32 56  1  0
 33 57  1  0
 34 58  1  0
 35 59  1  0
 36 60  1  0
M  END
$$$$
[H]c1nc(N([H])c2c([H])c([H])c([H])c(Br)c2[H])c2c(OC([H])([H])[H])c([H])c(N(C([H])([H])[H])C3([H])C([H])([H])C([H])([H])C([H])([H])C([H])([H])C3([H])[H])c([H])c2n1
     RDKit          3D

 53 56  0  0  0  0  0  0  0  0999 V2000
    0.5975   -1.8107    1.9376 C   0  0  0  0  0  0  0  0  0  0  0  0
    1.3637   -0.9822    1.0667 O   0  0  0  0  0  0  0  0  0  0  0  0
    0.7592   -0.1824    0.1069 C   0  0  0  0  0  0  0  0  0  0  0  0
   -0.6366   -0.2021    0.0058 C   0  0  0  0  0  0  0  0  0  0  0  0
   -1.3362    0.5389   -0.8913 C   0  0  0  0  0  0  0  0  0  0  0  0
   -0.5386    1.3400   -1.7253 C   0  0  0  0  0  0  0  0  0  0  0  0
    0.8358    1.3681   -1.6364 C   0  0  0  0  0  0  0  0  0  0  0  0
    1.5609    2.1632   -2.4507 N   0  0  0  0  0  0  0  0  0  0  0  0
    2.8977    2.2318   -2.3928 C   0  0  0  0  0  0  0  0  0  0  0  0
    3.5183    1.4789   -1.4912 N   0  0  0  0  0  0  0  0  0  0  0  0
    2.8999    0.6328   -0.6099 C   0  0  0  0  0  0  0  0  0  0  0  0
    3.6791   -0.1643    0.2488 N   0  0  0  0  0  0  0  0  0  0  0  0
    5.0946    0.0282    0.3138 C   0  0  0  0  0  0  0  0  0  0  0  0
    5.9163   -1.0925    0.4920 C   0  0  0  0  0  0  0  0  0  0  0  0
    7.2670   -1.0335    0.6037 C   0  0  0  0  0  0  0  0  0  0  0  0
    7.8581    0.2159    0.5362 C   0  0  0  0  0  0  0  0  0  0  0  0
    7.0881    1.3318    0.3632 C   0  0  0  0  0  0  0  0  0  0  0  0
    7.9756    3.0307    0.2782 Br  0  0  0  0  0  0  0  0  0  0  0  0
    5.7071    1.2511    0.2514 C   0  0  0  0  0  0  0  0  0  0  0  0
    1.5289    0.5992   -0.7082 C   0  0  0  0  0  0  0  0  0  0  0  0
   -2.7517    0.5922   -1.0245 N   0  0  0  0  0  0  0  0  0  0  0  0
   -3.2561    1.2061   -2.3022 C   0  0  0  0  0  0  0  0  0  0  0  0
   -3.7811    0.1881   -0.1610 C   0  0  0  0  0  0  0  0  0  0  0  0
   -3.5169   -0.2421    1.2192 C   0  0  0  0  0  0  0  0  0  0  0  0
   -4.8633   -0.0964    1.9736 C   0  0  0  0  0  0  0  0  0  0  0  0
   -5.8783   -0.9135    1.2406 C   0  0  0  0  0  0  0  0  0  0  0  0
   -5.3090   -1.7693    0.1456 C   0  0  0  0  0  0  0  0  0  0  0  0
   -4.5029   -0.9850   -0.8592 C   0  0  0  0  0  0  0  0  0  0  0  0
   -0.1814   -1.2516    2.4617 H   0  0  0  0  0  0  0  0  0  0  0  0
    0.1439   -2.5910    1.3017 H   0  0  0  0  0  0  0  0  0  0  0  0
    1.3187   -2.3255    2.6183 H   0  0  0  0  0  0  0  0  0  0  0  0
   -1.1178   -0.8739    0.6875 H   0  0  0  0  0  0  0  0  0  0  0  0
   -1.0451    1.9494   -2.4562 H   0  0  0  0  0  0  0  0  0  0  0  0
    3.4638    2.8925   -3.0715 H   0  0  0  0  0  0  0  0  0  0  0  0
    3.3348   -0.9085    0.8467 H   0  0  0  0  0  0  0  0  0  0  0  0
    5.3928   -2.0479    0.5372 H   0  0  0  0  0  0  0  0  0  0  0  0
    7.8172   -1.9498    0.7385 H   0  0  0  0  0  0  0  0  0  0  0  0
    8.9366    0.2427    0.6269 H   0  0  0  0  0  0  0  0  0  0  0  0
    5.1644    2.1776    0.1402 H   0  0  0  0  0  0  0  0  0  0  0  0
   -3.0298    2.3023   -2.1593 H   0  0  0  0  0  0  0  0  0  0  0  0
   -2.6462    0.8254   -3.1214 H   0  0  0  0  0  0  0  0  0  0  0  0
   -4.3280    1.1256   -2.3870 H   0  0  0  0  0  0  0  0  0  0  0  0
   -4.5394    1.0217   -0.1263 H   0  0  0  0  0  0  0  0  0  0  0  0
   -3.3213   -1.3495    1.3286 H   0  0  0  0  0  0  0  0  0  0  0  0
   -2.7863    0.3806    1.7552 H   0  0  0  0  0  0  0  0  0  0  0  0
   -5.1075    0.9702    1.9440 H   0  0  0  0  0  0  0  0  0  0  0  0
   -4.7083   -0.4388    3.0191 H   0  0  0  0  0  0  0  0  0  0  0  0
   -6.4392   -1.6115    1.9223 H   0  0  0  0  0  0  0  0  0  0  0  0
   -6.6660   -0.2713    0.7809 H   0  0  0  0  0  0  0  0  0  0  0  0
   -6.1964   -2.1746   -0.4224 H   0  0  0  0  0  0  0  0  0  0  0  0
   -4.7544   -2.5934    0.5884 H   0  0  0  0  0  0  0  0  0  0  0  0
   -5.1294   -0.5713   -1.6527 H   0  0  0  0  0  0  0  0  0  0  0  0
   -3.7530   -1.6525   -1.3268 H   0  0  0  0  0  0  0  0  0  0  0  0
  1  2  1  0
  2  3  1  0
  3  4  2  0
  4  5  1  0
  5  6  2  0
  6  7  1  0
  7  8  2  0
  8  9  1  0
  9 10  2  0
 10 11  1  0
 11 12  1  0
 12 13  1  0
 13 14  2  0
 14 15  1  0
 15 16  2  0
 16 17  1  0
 17 18  1  0
 17 19  2  0
 11 20  2  0
  5 21  1  0
 21 22  1  0
 21 23  1  0
 23 24  1  0
 24 25  1  0
 25 26  1  0
 26 27  1  0
 27 28  1  0
 20  3  1  0
 28 23  1  0
 20  7  1  0
 19 13  1  0
  1 29  1  0
  1 30  1  0
  1 31  1  0
  4 32  1  0
  6 33  1  0
  9 34  1  0
 12 35  1  0
 14 36  1  0
 15 37  1  0
 16 38  1  0
 19 39  1  0
 22 40  1  0
 22 41  1  0
 22 42  1  0
 23 43  1  0
 24 44  1  0
 24 45  1  0
 25 46  1  0
 25 47  1  0
 26 48  1  0
 26 49  1  0
 27 50  1  0
 27 51  1  0
 28 52  1  0
 28 53  1  0
M  END
$$$$
[H]OC(=O)c1c([H])c([H])c2c(c1[H])c([H])c([H])n2S(=O)(=O)c1c([H])nc(-c2c([H])c([H])c([H])c([H])c2C(=O)OC([H])([H])[H])c([H])c1[H]
     RDKit          3D

 47 50  0  0  0  0  0  0  0  0999 V2000
   -3.1943    1.5942   -2.2921 C   0  0  0  0  0  0  0  0  0  0  0  0
   -3.1109    0.5492   -1.3256 O   0  0  0  0  0  0  0  0  0  0  0  0
   -4.0300   -0.4398   -1.1871 C   0  0  0  0  0  0  0  0  0  0  0  0
   -5.0011   -0.3177   -2.0459 O   0  0  0  0  0  0  0  0  0  0  0  0
   -4.1179   -1.5677   -0.2945 C   0  0  0  0  0  0  0  0  0  0  0  0
   -5.1230   -2.5433   -0.5809 C   0  0  0  0  0  0  0  0  0  0  0  0
   -5.2413   -3.7024    0.1184 C   0  0  0  0  0  0  0  0  0  0  0  0
   -4.3601   -3.9486    1.1432 C   0  0  0  0  0  0  0  0  0  0  0  0
   -3.3955   -3.0401    1.4413 C   0  0  0  0  0  0  0  0  0  0  0  0
   -3.2558   -1.8143    0.7182 C   0  0  0  0  0  0  0  0  0  0  0  0
   -2.1788   -0.9422    1.1467 C   0  0  0  0  0  0  0  0  0  0  0  0
   -0.9912   -1.5222    1.6574 C   0  0  0  0  0  0  0  0  0  0  0  0
    0.0751   -0.7603    2.0742 C   0  0  0  0  0  0  0  0  0  0  0  0
    0.0602    0.6094    2.0227 C   0  0  0  0  0  0  0  0  0  0  0  0
   -1.1159    1.1564    1.5165 C   0  0  0  0  0  0  0  0  0  0  0  0
   -2.1391    0.3782    1.1182 N   0  0  0  0  0  0  0  0  0  0  0  0
    1.3761    1.6346    2.5347 S   0  0  0  0  0  0  0  0  0  0  0  0
    2.2150    0.9473    3.5898 O   0  0  0  0  0  0  0  0  0  0  0  0
    0.7942    2.8471    3.2360 O   0  0  0  0  0  0  0  0  0  0  0  0
    2.3088    2.1536    1.2156 N   0  0  0  0  0  0  0  0  0  0  0  0
    2.4192    3.4415    0.8331 C   0  0  0  0  0  0  0  0  0  0  0  0
    3.2115    3.5545   -0.2852 C   0  0  0  0  0  0  0  0  0  0  0  0
    3.5928    2.2745   -0.5845 C   0  0  0  0  0  0  0  0  0  0  0  0
    4.4104    1.8153   -1.6230 C   0  0  0  0  0  0  0  0  0  0  0  0
    4.6698    0.4685   -1.7264 C   0  0  0  0  0  0  0  0  0  0  0  0
    4.1105   -0.3578   -0.8007 C   0  0  0  0  0  0  0  0  0  0  0  0
    3.2993    0.0814    0.2324 C   0  0  0  0  0  0  0  0  0  0  0  0
    3.0301    1.4346    0.3461 C   0  0  0  0  0  0  0  0  0  0  0  0
    5.5211   -0.0275   -2.8048 C   0  0  0  0  0  0  0  0  0  0  0  0
    5.8120   -1.3630   -2.9538 O   0  0  0  0  0  0  0  0  0  0  0  0
    6.0151    0.7735   -3.6358 O   0  0  0  0  0  0  0  0  0  0  0  0
   -2.5706    1.3384   -3.1704 H   0  0  0  0  0  0  0  0  0  0  0  0
   -4.2388    1.7159   -2.6627 H   0  0  0  0  0  0  0  0  0  0  0  0
   -2.8866    2.5578   -1.8708 H   0  0  0  0  0  0  0  0  0  0  0  0
   -5.8118   -2.3239   -1.4001 H   0  0  0  0  0  0  0  0  0  0  0  0
   -6.0236   -4.4384   -0.1214 H   0  0  0  0  0  0  0  0  0  0  0  0
   -4.4551   -4.8739    1.6983 H   0  0  0  0  0  0  0  0  0  0  0  0
   -2.6917   -3.1950    2.2544 H   0  0  0  0  0  0  0  0  0  0  0  0
   -0.9540   -2.5928    1.6924 H   0  0  0  0  0  0  0  0  0  0  0  0
    0.9849   -1.2210    2.4667 H   0  0  0  0  0  0  0  0  0  0  0  0
   -1.1638    2.2447    1.4602 H   0  0  0  0  0  0  0  0  0  0  0  0
    1.9476    4.3060    1.3327 H   0  0  0  0  0  0  0  0  0  0  0  0
    3.5015    4.4373   -0.8453 H   0  0  0  0  0  0  0  0  0  0  0  0
    4.8443    2.4939   -2.3477 H   0  0  0  0  0  0  0  0  0  0  0  0
    4.3108   -1.4176   -0.8760 H   0  0  0  0  0  0  0  0  0  0  0  0
    2.8839   -0.5807    0.9500 H   0  0  0  0  0  0  0  0  0  0  0  0
    6.6568   -1.8179   -2.6385 H   0  0  0  0  0  0  0  0  0  0  0  0
  1  2  1  0
  2  3  1  0
  3  4  2  0
  3  5  1  0
  5  6  2  0
  6  7  1  0
  7  8  2  0
  8  9  1  0
  9 10  2  0
 10 11  1  0
 11 12  2  0
 12 13  1  0
 13 14  2  0
 14 15  1  0
 15 16  2  0
 14 17  1  0
 17 18  2  0
 17 19  2  0
 17 20  1  0
 20 21  1  0
 21 22  2  0
 22 23  1  0
 23 24  2  0
 24 25  1  0
 25 26  2  0
 26 27  1  0
 27 28  2  0
 25 29  1  0
 29 30  1  0
 29 31  2  0
 10  5  1  0
 16 11  1  0
 28 20  1  0
 28 23  1  0
  1 32  1  0
  1 33  1  0
  1 34  1  0
  6 35  1  0
  7 36  1  0
  8 37  1  0
  9 38  1  0
 12 39  1  0
 13 40  1  0
 15 41  1  0
 21 42  1  0
 22 43  1  0
 24 44  1  0
 26 45  1  0
 27 46  1  0
 30 47  1  0
M  END
$$$$
[H]c1c([H])c(-c2c([H])c([H])c3c(=O)n(C(C([H])([H])[H])(C([H])([H])[H])C([H])([H])[H])c(=O)n([H])c3c2[H])c([H])c([H])c1OC([H])([H])C1([H])OC([H])([H])C([H])([H])C1([H])[H]
     RDKit          3D

 55 58  0  0  0  0  0  0  0  0999 V2000
   -7.4970    0.5154   -0.5140 C   0  0  0  0  0  0  0  0  0  0  0  0
   -6.6628   -0.6531   -0.1379 C   0  0  0  0  0  0  0  0  0  0  0  0
   -7.0957   -1.0664    1.2755 C   0  0  0  0  0  0  0  0  0  0  0  0
   -7.0820   -1.8057   -1.0607 C   0  0  0  0  0  0  0  0  0  0  0  0
   -5.2607   -0.4963   -0.1373 N   0  0  0  0  0  0  0  0  0  0  0  0
   -4.4841   -1.5965   -0.0825 C   0  0  0  0  0  0  0  0  0  0  0  0
   -4.9294   -2.7734   -0.0283 O   0  0  0  0  0  0  0  0  0  0  0  0
   -3.1250   -1.5003   -0.0819 N   0  0  0  0  0  0  0  0  0  0  0  0
   -2.4750   -0.3402   -0.1340 C   0  0  0  0  0  0  0  0  0  0  0  0
   -1.1095   -0.2005   -0.1366 C   0  0  0  0  0  0  0  0  0  0  0  0
   -0.4731    1.0420   -0.1937 C   0  0  0  0  0  0  0  0  0  0  0  0
   -1.2948    2.1485   -0.2484 C   0  0  0  0  0  0  0  0  0  0  0  0
   -2.6685    2.0445   -0.2475 C   0  0  0  0  0  0  0  0  0  0  0  0
   -3.2552    0.8025   -0.1905 C   0  0  0  0  0  0  0  0  0  0  0  0
   -4.6204    0.6801   -0.1899 C   0  0  0  0  0  0  0  0  0  0  0  0
   -5.2992    1.7141   -0.2407 O   0  0  0  0  0  0  0  0  0  0  0  0
    0.9787    1.1488   -0.1979 C   0  0  0  0  0  0  0  0  0  0  0  0
    1.7533    0.1728   -0.7774 C   0  0  0  0  0  0  0  0  0  0  0  0
    3.1523    0.2640   -0.7902 C   0  0  0  0  0  0  0  0  0  0  0  0
    3.8046    1.3119   -0.2344 C   0  0  0  0  0  0  0  0  0  0  0  0
    5.1555    1.4524   -0.2132 O   0  0  0  0  0  0  0  0  0  0  0  0
    6.1784    0.6690   -0.6648 C   0  0  0  0  0  0  0  0  0  0  0  0
    6.3302   -0.6796   -0.0127 C   0  0  0  0  0  0  0  0  0  0  0  0
    7.6003   -1.3147   -0.5459 C   0  0  0  0  0  0  0  0  0  0  0  0
    8.6423   -0.6225    0.3089 C   0  0  0  0  0  0  0  0  0  0  0  0
    7.8862   -0.3848    1.5786 C   0  0  0  0  0  0  0  0  0  0  0  0
    6.5436   -0.4530    1.3389 O   0  0  0  0  0  0  0  0  0  0  0  0
    3.0204    2.3072    0.3559 C   0  0  0  0  0  0  0  0  0  0  0  0
    1.6588    2.2085    0.3622 C   0  0  0  0  0  0  0  0  0  0  0  0
   -7.2553    0.9615   -1.5069 H   0  0  0  0  0  0  0  0  0  0  0  0
   -7.6504    1.2693    0.2879 H   0  0  0  0  0  0  0  0  0  0  0  0
   -8.5435    0.1064   -0.6803 H   0  0  0  0  0  0  0  0  0  0  0  0
   -8.0910   -0.6323    1.5309 H   0  0  0  0  0  0  0  0  0  0  0  0
   -6.3731   -0.5951    1.9769 H   0  0  0  0  0  0  0  0  0  0  0  0
   -7.1762   -2.1509    1.3852 H   0  0  0  0  0  0  0  0  0  0  0  0
   -6.3469   -1.9740   -1.8677 H   0  0  0  0  0  0  0  0  0  0  0  0
   -8.0386   -1.5554   -1.6081 H   0  0  0  0  0  0  0  0  0  0  0  0
   -7.3419   -2.7151   -0.4821 H   0  0  0  0  0  0  0  0  0  0  0  0
   -2.5285   -2.3664   -0.0390 H   0  0  0  0  0  0  0  0  0  0  0  0
   -0.5152   -1.0851   -0.0927 H   0  0  0  0  0  0  0  0  0  0  0  0
   -0.8218    3.1315   -0.2935 H   0  0  0  0  0  0  0  0  0  0  0  0
   -3.3090    2.9154   -0.2908 H   0  0  0  0  0  0  0  0  0  0  0  0
    1.3367   -0.7049   -1.2476 H   0  0  0  0  0  0  0  0  0  0  0  0
    3.7203   -0.5334   -1.2835 H   0  0  0  0  0  0  0  0  0  0  0  0
    6.0795    0.5137   -1.7846 H   0  0  0  0  0  0  0  0  0  0  0  0
    7.1455    1.2531   -0.5934 H   0  0  0  0  0  0  0  0  0  0  0  0
    5.5091   -1.3749   -0.1945 H   0  0  0  0  0  0  0  0  0  0  0  0
    7.6326   -2.3997   -0.2711 H   0  0  0  0  0  0  0  0  0  0  0  0
    7.7412   -1.1498   -1.6130 H   0  0  0  0  0  0  0  0  0  0  0  0
    8.9505    0.3280   -0.1702 H   0  0  0  0  0  0  0  0  0  0  0  0
    9.5256   -1.3056    0.4667 H   0  0  0  0  0  0  0  0  0  0  0  0
    8.2108    0.5766    2.0521 H   0  0  0  0  0  0  0  0  0  0  0  0
    8.1534   -1.2340    2.2731 H   0  0  0  0  0  0  0  0  0  0  0  0
    3.5619    3.1439    0.7981 H   0  0  0  0  0  0  0  0  0  0  0  0
    1.0523    2.9829    0.8210 H   0  0  0  0  0  0  0  0  0  0  0  0
  1  2  1  0
  2  3  1  0
  2  4  1  0
  2  5  1  0
  5  6  1  0
  6  7  2  0
  6  8  1  0
  8  9  1  0
  9 10  2  0
 10 11  1  0
 11 12  2  0
 12 13  1  0
 13 14  2  0
 14 15  1  0
 15 16  2  0
 11 17  1  0
 17 18  2  0
 18 19  1  0
 19 20  2  0
 20 21  1  0
 21 22  1  0
 22 23  1  0
 23 24  1  0
 24 25  1  0
 25 26  1  0
 26 27  1  0
 20 28  1  0
 28 29  2  0
 15  5  1  0
 29 17  1  0
 14  9  1  0
 27 23  1  0
  1 30  1  0
  1 31  1  0
  1 32  1  0
  3 33  1  0
  3 34  1  0
  3 35  1  0
  4 36  1  0
  4 37  1  0
  4 38  1  0
  8 39  1  0
 10 40  1  0
 12 41  1  0
 13 42  1  0
 18 43  1  0
 19 44  1  0
 22 45  1  0
 22 46  1  0
 23 47  1  0
 24 48  1  0
 24 49  1  0
 25 50  1  0
 25 51  1  0
 26 52  1  0
 26 53  1  0
 28 54  1  0
 29 55  1  0
M  END
$$$$
[H]Oc1c(C(F)(F)F)c([H])c([H])c([H])c1C([H])([H])N(C(=O)c1nc([H])c(Oc2nc([H])c([H])s2)nc1[H])C([H])([H])C([H])=C([H])[H]
     RDKit          3D

 45 47  0  0  0  0  0  0  0  0999 V2000
   -5.0826    0.6424    0.6670 O   0  0  0  0  0  0  0  0  0  0  0  0
   -4.2746    0.4159   -0.4344 C   0  0  0  0  0  0  0  0  0  0  0  0
   -2.8936    0.2484   -0.2220 C   0  0  0  0  0  0  0  0  0  0  0  0
   -2.3882    0.3713    1.1610 C   0  0  0  0  0  0  0  0  0  0  0  0
   -0.9637    0.0880    1.2888 N   0  0  0  0  0  0  0  0  0  0  0  0
   -0.5889   -1.2306    1.7101 C   0  0  0  0  0  0  0  0  0  0  0  0
   -0.2769   -2.2159    0.6757 C   0  0  0  0  0  0  0  0  0  0  0  0
   -0.9779   -3.3372    0.5864 C   0  0  0  0  0  0  0  0  0  0  0  0
   -0.0410    1.1336    1.0820 C   0  0  0  0  0  0  0  0  0  0  0  0
   -0.5194    2.2958    0.7883 O   0  0  0  0  0  0  0  0  0  0  0  0
    1.4092    1.0569    1.1614 C   0  0  0  0  0  0  0  0  0  0  0  0
    2.1755    2.2045    0.9305 C   0  0  0  0  0  0  0  0  0  0  0  0
    3.5018    2.1210    1.0106 N   0  0  0  0  0  0  0  0  0  0  0  0
    4.1427    0.9836    1.3035 C   0  0  0  0  0  0  0  0  0  0  0  0
    5.5079    0.9804    1.3674 O   0  0  0  0  0  0  0  0  0  0  0  0
    6.2655    0.5918    0.2423 C   0  0  0  0  0  0  0  0  0  0  0  0
    7.5818    0.5261    0.1172 N   0  0  0  0  0  0  0  0  0  0  0  0
    8.1069    0.1450   -0.9987 C   0  0  0  0  0  0  0  0  0  0  0  0
    7.2598   -0.1819   -2.0272 C   0  0  0  0  0  0  0  0  0  0  0  0
    5.7324    0.0853   -1.3086 S   0  0  0  0  0  0  0  0  0  0  0  0
    3.4078   -0.1573    1.5340 C   0  0  0  0  0  0  0  0  0  0  0  0
    2.0828   -0.0561    1.4500 N   0  0  0  0  0  0  0  0  0  0  0  0
   -2.1101    0.0275   -1.3169 C   0  0  0  0  0  0  0  0  0  0  0  0
   -2.6776   -0.0293   -2.5967 C   0  0  0  0  0  0  0  0  0  0  0  0
   -4.0356    0.1390   -2.7633 C   0  0  0  0  0  0  0  0  0  0  0  0
   -4.8523    0.3652   -1.6759 C   0  0  0  0  0  0  0  0  0  0  0  0
   -6.3102    0.5464   -1.8632 C   0  0  0  0  0  0  0  0  0  0  0  0
   -6.6022    0.4473   -3.1908 F   0  0  0  0  0  0  0  0  0  0  0  0
   -6.7556    1.7429   -1.3218 F   0  0  0  0  0  0  0  0  0  0  0  0
   -6.9366   -0.5275   -1.2189 F   0  0  0  0  0  0  0  0  0  0  0  0
   -4.6951    0.6850    1.5763 H   0  0  0  0  0  0  0  0  0  0  0  0
   -2.9414   -0.3162    1.8408 H   0  0  0  0  0  0  0  0  0  0  0  0
   -2.6245    1.3937    1.5341 H   0  0  0  0  0  0  0  0  0  0  0  0
    0.1726   -1.1818    2.5263 H   0  0  0  0  0  0  0  0  0  0  0  0
   -1.4832   -1.6788    2.2832 H   0  0  0  0  0  0  0  0  0  0  0  0
    0.5235   -2.1075   -0.0768 H   0  0  0  0  0  0  0  0  0  0  0  0
   -0.7710   -4.0772   -0.1625 H   0  0  0  0  0  0  0  0  0  0  0  0
   -1.8028   -3.5340    1.2949 H   0  0  0  0  0  0  0  0  0  0  0  0
    1.6662    3.1437    0.6896 H   0  0  0  0  0  0  0  0  0  0  0  0
    9.2060    0.0727   -1.1561 H   0  0  0  0  0  0  0  0  0  0  0  0
    7.5316   -0.5252   -3.0427 H   0  0  0  0  0  0  0  0  0  0  0  0
    3.9070   -1.1114    1.7774 H   0  0  0  0  0  0  0  0  0  0  0  0
   -1.0352   -0.0774   -1.2137 H   0  0  0  0  0  0  0  0  0  0  0  0
   -2.0318   -0.2087   -3.4643 H   0  0  0  0  0  0  0  0  0  0  0  0
   -4.5090    0.1007   -3.7419 H   0  0  0  0  0  0  0  0  0  0  0  0
  1  2  1  0
  2  3  2  0
  3  4  1  0
  4  5  1  0
  5  6  1  0
  6  7  1  0
  7  8  2  3
  5  9  1  0
  9 10  2  0
  9 11  1  0
 11 12  2  0
 12 13  1  0
 13 14  2  0
 14 15  1  0
 15 16  1  0
 16 17  2  0
 17 18  1  0
 18 19  2  0
 19 20  1  0
 14 21  1  0
 21 22  2  0
  3 23  1  0
 23 24  2  0
 24 25  1  0
 25 26  2  0
 26 27  1  0
 27 28  1  0
 27 29  1  0
 27 30  1  0
 26  2  1  0
 22 11  1  0
 20 16  1  0
  1 31  1  0
  4 32  1  0
  4 33  1  0
  6 34  1  0
  6 35  1  0
  7 36  1  0
  8 37  1  0
  8 38  1  0
 12 39  1  0
 18 40  1  0
 19 41  1  0
 21 42  1  0
 23 43  1  0
 24 44  1  0
 25 45  1  0
M  END
$$$$
[H]Oc1c([H])c([H])c(C([H])([H])C([H])([H])N([H])c2nc(N3C([H])([H])C([H])([H])N([H])C([H])([H])C3([H])[H])nc(N(C([H])([H])[H])C([H])([H])C([H])([H])C([H])(c3c([H])c([H])c([H])c([H])c3[H])c3c([H])c([H])c([H])c([H])c3[H])n2)c([H])c1[H]
     RDKit          3D

 76 80  0  0  0  0  0  0  0  0999 V2000
   -1.1041    0.6306    2.4220 C   0  0  0  0  0  0  0  0  0  0  0  0
   -1.0616   -0.1339    1.1838 N   0  0  0  0  0  0  0  0  0  0  0  0
   -2.3399   -0.4049    0.5523 C   0  0  0  0  0  0  0  0  0  0  0  0
   -2.9033    0.8921    0.0433 C   0  0  0  0  0  0  0  0  0  0  0  0
   -4.2330    0.6975   -0.6300 C   0  0  0  0  0  0  0  0  0  0  0  0
   -4.7436    1.9866   -1.1252 C   0  0  0  0  0  0  0  0  0  0  0  0
   -5.4177    2.0305   -2.3451 C   0  0  0  0  0  0  0  0  0  0  0  0
   -5.9199    3.2095   -2.8544 C   0  0  0  0  0  0  0  0  0  0  0  0
   -5.7768    4.4064   -2.1746 C   0  0  0  0  0  0  0  0  0  0  0  0
   -5.1102    4.3553   -0.9692 C   0  0  0  0  0  0  0  0  0  0  0  0
   -4.6106    3.1809   -0.4644 C   0  0  0  0  0  0  0  0  0  0  0  0
   -5.2095    0.0059    0.2251 C   0  0  0  0  0  0  0  0  0  0  0  0
   -5.9976   -0.9866   -0.3252 C   0  0  0  0  0  0  0  0  0  0  0  0
   -6.9516   -1.6786    0.4249 C   0  0  0  0  0  0  0  0  0  0  0  0
   -7.0947   -1.3475    1.7488 C   0  0  0  0  0  0  0  0  0  0  0  0
   -6.3121   -0.3533    2.3205 C   0  0  0  0  0  0  0  0  0  0  0  0
   -5.3808    0.3112    1.5558 C   0  0  0  0  0  0  0  0  0  0  0  0
    0.1667   -0.5914    0.6481 C   0  0  0  0  0  0  0  0  0  0  0  0
    0.9456    0.2259   -0.0763 N   0  0  0  0  0  0  0  0  0  0  0  0
    2.1140   -0.1829   -0.6085 C   0  0  0  0  0  0  0  0  0  0  0  0
    2.9818    0.6614   -1.3647 N   0  0  0  0  0  0  0  0  0  0  0  0
    4.2060    0.1234   -1.8914 C   0  0  0  0  0  0  0  0  0  0  0  0
    5.1034    1.1122   -2.5564 C   0  0  0  0  0  0  0  0  0  0  0  0
    5.5064    2.1701   -1.6023 C   0  0  0  0  0  0  0  0  0  0  0  0
    4.8173    3.3537   -1.5070 C   0  0  0  0  0  0  0  0  0  0  0  0
    5.2156    4.3200   -0.5753 C   0  0  0  0  0  0  0  0  0  0  0  0
    6.2942    4.0641    0.2298 C   0  0  0  0  0  0  0  0  0  0  0  0
    6.6818    5.0248    1.1497 O   0  0  0  0  0  0  0  0  0  0  0  0
    6.9986    2.8917    0.1543 C   0  0  0  0  0  0  0  0  0  0  0  0
    6.5959    1.9557   -0.7637 C   0  0  0  0  0  0  0  0  0  0  0  0
    2.4590   -1.4504   -0.3780 N   0  0  0  0  0  0  0  0  0  0  0  0
    1.7284   -2.3277    0.3387 C   0  0  0  0  0  0  0  0  0  0  0  0
    0.5663   -1.8574    0.8476 N   0  0  0  0  0  0  0  0  0  0  0  0
    2.1732   -3.6618    0.5228 N   0  0  0  0  0  0  0  0  0  0  0  0
    1.5134   -4.4953    1.4860 C   0  0  0  0  0  0  0  0  0  0  0  0
    2.4985   -5.3184    2.2912 C   0  0  0  0  0  0  0  0  0  0  0  0
    3.5151   -5.9095    1.4528 N   0  0  0  0  0  0  0  0  0  0  0  0
    4.2063   -4.9751    0.6217 C   0  0  0  0  0  0  0  0  0  0  0  0
    3.2617   -4.2034   -0.2387 C   0  0  0  0  0  0  0  0  0  0  0  0
   -1.1996    1.6935    2.1480 H   0  0  0  0  0  0  0  0  0  0  0  0
   -2.0251    0.3104    2.9873 H   0  0  0  0  0  0  0  0  0  0  0  0
   -0.2044    0.4212    3.0496 H   0  0  0  0  0  0  0  0  0  0  0  0
   -3.0160   -0.8378    1.3049 H   0  0  0  0  0  0  0  0  0  0  0  0
   -2.2238   -1.1597   -0.2564 H   0  0  0  0  0  0  0  0  0  0  0  0
   -2.8999    1.6017    0.8665 H   0  0  0  0  0  0  0  0  0  0  0  0
   -2.1831    1.2732   -0.7276 H   0  0  0  0  0  0  0  0  0  0  0  0
   -4.0213    0.0563   -1.5286 H   0  0  0  0  0  0  0  0  0  0  0  0
   -5.5287    1.0905   -2.8738 H   0  0  0  0  0  0  0  0  0  0  0  0
   -6.4478    3.2161   -3.8173 H   0  0  0  0  0  0  0  0  0  0  0  0
   -6.1724    5.3291   -2.5779 H   0  0  0  0  0  0  0  0  0  0  0  0
   -4.9715    5.2792   -0.3903 H   0  0  0  0  0  0  0  0  0  0  0  0
   -4.0899    3.2023    0.4999 H   0  0  0  0  0  0  0  0  0  0  0  0
   -5.8956   -1.2615   -1.3761 H   0  0  0  0  0  0  0  0  0  0  0  0
   -7.5476   -2.4483   -0.0522 H   0  0  0  0  0  0  0  0  0  0  0  0
   -7.8280   -1.8653    2.3569 H   0  0  0  0  0  0  0  0  0  0  0  0
   -6.4428   -0.1096    3.3646 H   0  0  0  0  0  0  0  0  0  0  0  0
   -4.7704    1.0884    2.0116 H   0  0  0  0  0  0  0  0  0  0  0  0
    2.7325    1.6404   -1.5331 H   0  0  0  0  0  0  0  0  0  0  0  0
    3.9414   -0.6910   -2.6316 H   0  0  0  0  0  0  0  0  0  0  0  0
    4.7707   -0.4068   -1.0929 H   0  0  0  0  0  0  0  0  0  0  0  0
    4.6466    1.5241   -3.4856 H   0  0  0  0  0  0  0  0  0  0  0  0
    6.0457    0.6007   -2.8826 H   0  0  0  0  0  0  0  0  0  0  0  0
    3.9681    3.5479   -2.1572 H   0  0  0  0  0  0  0  0  0  0  0  0
    4.6799    5.2519   -0.4931 H   0  0  0  0  0  0  0  0  0  0  0  0
    6.2691    4.9943    2.0954 H   0  0  0  0  0  0  0  0  0  0  0  0
    7.8322    2.7284    0.7961 H   0  0  0  0  0  0  0  0  0  0  0  0
    7.1185    1.0050   -0.8672 H   0  0  0  0  0  0  0  0  0  0  0  0
    0.7422   -5.1105    0.9782 H   0  0  0  0  0  0  0  0  0  0  0  0
    0.9789   -3.8426    2.2133 H   0  0  0  0  0  0  0  0  0  0  0  0
    1.9222   -6.1337    2.7735 H   0  0  0  0  0  0  0  0  0  0  0  0
    2.9341   -4.6983    3.0814 H   0  0  0  0  0  0  0  0  0  0  0  0
    3.2435   -6.7959    1.0152 H   0  0  0  0  0  0  0  0  0  0  0  0
    4.8939   -5.5889   -0.0274 H   0  0  0  0  0  0  0  0  0  0  0  0
    4.7933   -4.2893    1.2671 H   0  0  0  0  0  0  0  0  0  0  0  0
    2.7954   -4.9253   -0.9716 H   0  0  0  0  0  0  0  0  0  0  0  0
    3.7775   -3.4212   -0.8357 H   0  0  0  0  0  0  0  0  0  0  0  0
  1  2  1  0
  2  3  1  0
  3  4  1  0
  4  5  1  0
  5  6  1  0
  6  7  2  0
  7  8  1  0
  8  9  2  0
  9 10  1  0
 10 11  2  0
  5 12  1  0
 12 13  2  0
 13 14  1  0
 14 15  2  0
 15 16  1  0
 16 17  2  0
  2 18  1  0
 18 19  2  0
 19 20  1  0
 20 21  1  0
 21 22  1  0
 22 23  1  0
 23 24  1  0
 24 25  2  0
 25 26  1  0
 26 27  2  0
 27 28  1  0
 27 29  1  0
 29 30  2  0
 20 31  2  0
 31 32  1  0
 32 33  2  0
 32 34  1  0
 34 35  1  0
 35 36  1  0
 36 37  1  0
 37 38  1  0
 38 39  1  0
 11  6  1  0
 17 12  1  0
 33 18  1  0
 39 34  1  0
 30 24  1  0
  1 40  1  0
  1 41  1  0
  1 42  1  0
  3 43  1  0
  3 44  1  0
  4 45  1  0
  4 46  1  0
  5 47  1  0
  7 48  1  0
  8 49  1  0
  9 50  1  0
 10 51  1  0
 11 52  1  0
 13 53  1  0
 14 54  1  0
 15 55  1  0
 16 56  1  0
 17 57  1  0
 21 58  1  0
 22 59  1  0
 22 60  1  0
 23 61  1  0
 23 62  1  0
 25 63  1  0
 26 64  1  0
 28 65  1  0
 29 66  1  0
 30 67  1  0
 35 68  1  0
 35 69  1  0
 36 70  1  0
 36 71  1  0
 37 72  1  0
 38 73  1  0
 38 74  1  0
 39 75  1  0
 39 76  1  0
M  END
$$$$
[H]Oc1c([H])c([H])c(C([H])([H])[C@@]([H])(C(=O)N([H])[C@@]([H])(C(=O)N([H])[C@@]([H])(C(=O)N([H])[C@]([H])(C(=O)N([H])[C@]([H])(C(=O)N([H])C([H])([H])c2c([H])c([H])c([N+](=O)[O-])c([H])c2[H])C([H])([H])C([H])([H])C(=O)N([H])[H])C([H])([H])c2c([H])n([H])c3c([H])c([H])c([H])c([H])c23)C([H])([H])C([H])([H])C([H])([H])N=C(N([H])[H])N([H])[H])C([H])([H])S[H])N([H])[H])c([H])c1[H]
     RDKit          3D

115118  0  0  0  0  0  0  0  0999 V2000
   -0.0828   -5.2998    4.4278 N   0  0  0  0  0  0  0  0  0  0  0  0
    0.7589   -4.4913    3.5978 C   0  0  0  0  0  0  0  0  0  0  0  0
    2.0033   -5.0323    3.2458 N   0  0  0  0  0  0  0  0  0  0  0  0
    0.3808   -3.3483    3.2274 N   0  0  0  0  0  0  0  0  0  0  0  0
    1.1135   -2.4254    2.4020 C   0  0  0  0  0  0  0  0  0  0  0  0
    1.1787   -2.8753    0.9603 C   0  0  0  0  0  0  0  0  0  0  0  0
    1.9378   -1.9146    0.1239 C   0  0  0  0  0  0  0  0  0  0  0  0
    1.3122   -0.5169   -0.0489 C   0  0  1  0  0  0  0  0  0  0  0  0
    2.3021    0.2210   -0.8661 N   0  0  0  0  0  0  0  0  0  0  0  0
    3.2577    1.1027   -0.2752 C   0  0  0  0  0  0  0  0  0  0  0  0
    3.2673    1.2490    0.9508 O   0  0  0  0  0  0  0  0  0  0  0  0
    4.2196    1.8219   -1.1179 C   0  0  1  0  0  0  0  0  0  0  0  0
    3.5232    3.1100   -1.5850 C   0  0  0  0  0  0  0  0  0  0  0  0
    2.0218    2.7728   -2.5026 S   0  0  0  0  0  0  0  0  0  0  0  0
    5.4214    2.2802   -0.4457 N   0  0  0  0  0  0  0  0  0  0  0  0
    6.6604    1.8933   -1.0096 C   0  0  0  0  0  0  0  0  0  0  0  0
    6.6023    1.1633   -2.0646 O   0  0  0  0  0  0  0  0  0  0  0  0
    7.9634    2.2684   -0.4814 C   0  0  1  0  0  0  0  0  0  0  0  0
    9.0777    1.8874   -1.3151 N   0  0  0  0  0  0  0  0  0  0  0  0
    8.1181    3.7156   -0.1251 C   0  0  0  0  0  0  0  0  0  0  0  0
    9.4986    4.0134    0.3331 C   0  0  0  0  0  0  0  0  0  0  0  0
    9.8834    3.8871    1.6306 C   0  0  0  0  0  0  0  0  0  0  0  0
   11.2066    4.1422    1.9838 C   0  0  0  0  0  0  0  0  0  0  0  0
   12.0982    4.5220    0.9966 C   0  0  0  0  0  0  0  0  0  0  0  0
   13.4301    4.7836    1.2971 O   0  0  0  0  0  0  0  0  0  0  0  0
   11.7005    4.6507   -0.3100 C   0  0  0  0  0  0  0  0  0  0  0  0
   10.4125    4.4053   -0.6868 C   0  0  0  0  0  0  0  0  0  0  0  0
    0.0774   -0.6533   -0.8567 C   0  0  0  0  0  0  0  0  0  0  0  0
    0.2398   -0.4129   -2.1180 O   0  0  0  0  0  0  0  0  0  0  0  0
   -1.1810   -0.9860   -0.4615 N   0  0  0  0  0  0  0  0  0  0  0  0
   -2.3829   -1.1274   -1.2087 C   0  0  1  0  0  0  0  0  0  0  0  0
   -2.8240   -2.5227   -1.4518 C   0  0  0  0  0  0  0  0  0  0  0  0
   -1.8800   -3.3338   -2.2660 C   0  0  0  0  0  0  0  0  0  0  0  0
   -1.0111   -4.3176   -1.9079 C   0  0  0  0  0  0  0  0  0  0  0  0
   -0.3759   -4.8088   -2.9873 N   0  0  0  0  0  0  0  0  0  0  0  0
   -0.8261   -4.1413   -4.0893 C   0  0  0  0  0  0  0  0  0  0  0  0
   -0.4676   -4.3179   -5.4068 C   0  0  0  0  0  0  0  0  0  0  0  0
   -1.1323   -3.4814   -6.3105 C   0  0  0  0  0  0  0  0  0  0  0  0
   -2.0663   -2.5564   -5.9275 C   0  0  0  0  0  0  0  0  0  0  0  0
   -2.3786   -2.4297   -4.5984 C   0  0  0  0  0  0  0  0  0  0  0  0
   -1.7510   -3.2335   -3.6578 C   0  0  0  0  0  0  0  0  0  0  0  0
   -3.4932   -0.2337   -0.9025 C   0  0  0  0  0  0  0  0  0  0  0  0
   -3.3759    1.0191   -0.6948 O   0  0  0  0  0  0  0  0  0  0  0  0
   -4.8095   -0.7261   -0.8193 N   0  0  0  0  0  0  0  0  0  0  0  0
   -5.9888    0.0941   -0.5682 C   0  0  1  0  0  0  0  0  0  0  0  0
   -7.1102   -0.2523   -1.4692 C   0  0  0  0  0  0  0  0  0  0  0  0
   -7.6149   -1.6525   -1.3969 C   0  0  0  0  0  0  0  0  0  0  0  0
   -8.7129   -1.8810   -2.3850 C   0  0  0  0  0  0  0  0  0  0  0  0
   -9.4760   -3.0703   -2.4203 N   0  0  0  0  0  0  0  0  0  0  0  0
   -8.9935   -0.9859   -3.2443 O   0  0  0  0  0  0  0  0  0  0  0  0
   -6.2724    0.1445    0.8619 C   0  0  0  0  0  0  0  0  0  0  0  0
   -5.4738   -0.4266    1.6882 O   0  0  0  0  0  0  0  0  0  0  0  0
   -7.3912    0.7969    1.3986 N   0  0  0  0  0  0  0  0  0  0  0  0
   -7.7803    0.9397    2.7415 C   0  0  0  0  0  0  0  0  0  0  0  0
   -7.0665    1.9348    3.5458 C   0  0  0  0  0  0  0  0  0  0  0  0
   -7.5109    2.1483    4.8546 C   0  0  0  0  0  0  0  0  0  0  0  0
   -6.8881    3.1051    5.6350 C   0  0  0  0  0  0  0  0  0  0  0  0
   -5.8493    3.8652    5.1975 C   0  0  0  0  0  0  0  0  0  0  0  0
   -5.4321    3.6250    3.8949 C   0  0  0  0  0  0  0  0  0  0  0  0
   -6.0042    2.6962    3.0765 C   0  0  0  0  0  0  0  0  0  0  0  0
   -5.2521    4.8631    6.0084 N   0  0  0  0  0  0  0  0  0  0  0  0
   -5.7175    5.0360    7.2872 O   0  0  0  0  0  0  0  0  0  0  0  0
   -4.3299    5.5995    5.6204 O   0  0  0  0  0  0  0  0  0  0  0  0
   -1.0997   -5.2552    4.2899 H   0  0  0  0  0  0  0  0  0  0  0  0
    0.3846   -5.9087    5.1566 H   0  0  0  0  0  0  0  0  0  0  0  0
    2.2853   -5.5040    2.3725 H   0  0  0  0  0  0  0  0  0  0  0  0
    2.7650   -4.9592    3.9777 H   0  0  0  0  0  0  0  0  0  0  0  0
    2.1432   -2.3609    2.8576 H   0  0  0  0  0  0  0  0  0  0  0  0
    0.7143   -1.4168    2.4391 H   0  0  0  0  0  0  0  0  0  0  0  0
    0.1294   -2.9687    0.5569 H   0  0  0  0  0  0  0  0  0  0  0  0
    1.6853   -3.8733    0.8818 H   0  0  0  0  0  0  0  0  0  0  0  0
    2.9621   -1.8064    0.5484 H   0  0  0  0  0  0  0  0  0  0  0  0
    2.0927   -2.3424   -0.9209 H   0  0  0  0  0  0  0  0  0  0  0  0
    1.1869   -0.0761    0.9149 H   0  0  0  0  0  0  0  0  0  0  0  0
    2.3097    0.0991   -1.8866 H   0  0  0  0  0  0  0  0  0  0  0  0
    4.5012    1.1962   -1.9602 H   0  0  0  0  0  0  0  0  0  0  0  0
    3.4538    3.8093   -0.7669 H   0  0  0  0  0  0  0  0  0  0  0  0
    4.2379    3.5840   -2.3303 H   0  0  0  0  0  0  0  0  0  0  0  0
    2.3464    2.2187   -3.7470 H   0  0  0  0  0  0  0  0  0  0  0  0
    5.4194    2.8670    0.4113 H   0  0  0  0  0  0  0  0  0  0  0  0
    8.0834    1.6385    0.4717 H   0  0  0  0  0  0  0  0  0  0  0  0
    8.9276    2.0733   -2.3107 H   0  0  0  0  0  0  0  0  0  0  0  0
    9.5241    0.9984   -1.0795 H   0  0  0  0  0  0  0  0  0  0  0  0
    7.4608    3.9385    0.7511 H   0  0  0  0  0  0  0  0  0  0  0  0
    7.7858    4.4017   -0.9228 H   0  0  0  0  0  0  0  0  0  0  0  0
    9.1872    3.5945    2.4306 H   0  0  0  0  0  0  0  0  0  0  0  0
   11.5574    4.0459    2.9858 H   0  0  0  0  0  0  0  0  0  0  0  0
   14.0530    3.9851    1.2352 H   0  0  0  0  0  0  0  0  0  0  0  0
   12.4079    4.9556   -1.0908 H   0  0  0  0  0  0  0  0  0  0  0  0
   10.0168    4.4831   -1.6899 H   0  0  0  0  0  0  0  0  0  0  0  0
   -1.3193   -1.1542    0.6034 H   0  0  0  0  0  0  0  0  0  0  0  0
   -2.0199   -0.8107   -2.3098 H   0  0  0  0  0  0  0  0  0  0  0  0
   -3.7859   -2.5445   -2.0592 H   0  0  0  0  0  0  0  0  0  0  0  0
   -3.0156   -3.0915   -0.5088 H   0  0  0  0  0  0  0  0  0  0  0  0
   -0.8365   -4.6830   -0.8835 H   0  0  0  0  0  0  0  0  0  0  0  0
    0.3312   -5.5606   -2.9659 H   0  0  0  0  0  0  0  0  0  0  0  0
    0.2470   -5.0276   -5.7507 H   0  0  0  0  0  0  0  0  0  0  0  0
   -0.8803   -3.5835   -7.3475 H   0  0  0  0  0  0  0  0  0  0  0  0
   -2.5761   -1.9091   -6.6522 H   0  0  0  0  0  0  0  0  0  0  0  0
   -3.1192   -1.7047   -4.2578 H   0  0  0  0  0  0  0  0  0  0  0  0
   -4.9977   -1.7312   -0.9233 H   0  0  0  0  0  0  0  0  0  0  0  0
   -5.6371    1.1419   -0.9030 H   0  0  0  0  0  0  0  0  0  0  0  0
   -6.9000    0.0009   -2.5213 H   0  0  0  0  0  0  0  0  0  0  0  0
   -7.9860    0.4195   -1.2096 H   0  0  0  0  0  0  0  0  0  0  0  0
   -8.0105   -1.9778   -0.4247 H   0  0  0  0  0  0  0  0  0  0  0  0
   -6.8083   -2.3756   -1.6895 H   0  0  0  0  0  0  0  0  0  0  0  0
   -9.0492   -3.9872   -2.7206 H   0  0  0  0  0  0  0  0  0  0  0  0
  -10.4670   -3.0697   -2.1579 H   0  0  0  0  0  0  0  0  0  0  0  0
   -8.0134    1.2522    0.6125 H   0  0  0  0  0  0  0  0  0  0  0  0
   -7.7320   -0.0867    3.2458 H   0  0  0  0  0  0  0  0  0  0  0  0
   -8.8909    1.1867    2.7549 H   0  0  0  0  0  0  0  0  0  0  0  0
   -8.3233    1.5543    5.2232 H   0  0  0  0  0  0  0  0  0  0  0  0
   -7.2474    3.2623    6.6599 H   0  0  0  0  0  0  0  0  0  0  0  0
   -4.5938    4.2411    3.5428 H   0  0  0  0  0  0  0  0  0  0  0  0
   -5.6548    2.5198    2.0623 H   0  0  0  0  0  0  0  0  0  0  0  0
  1  2  1  0
  2  3  1  0
  2  4  2  3
  4  5  1  0
  5  6  1  0
  6  7  1  0
  7  8  1  0
  8  9  1  0
  9 10  1  0
 10 11  2  0
 10 12  1  0
 12 13  1  0
 13 14  1  0
 12 15  1  0
 15 16  1  0
 16 17  2  0
 16 18  1  0
 18 19  1  0
 18 20  1  0
 20 21  1  0
 21 22  2  0
 22 23  1  0
 23 24  2  0
 24 25  1  0
 24 26  1  0
 26 27  2  0
  8 28  1  0
 28 29  2  0
 28 30  1  0
 30 31  1  0
 31 32  1  0
 32 33  1  0
 33 34  2  0
 34 35  1  0
 35 36  1  0
 36 37  2  0
 37 38  1  0
 38 39  2  0
 39 40  1  0
 40 41  2  0
 31 42  1  0
 42 43  2  0
 42 44  1  0
 44 45  1  0
 45 46  1  0
 46 47  1  0
 47 48  1  0
 48 49  1  0
 48 50  2  0
 45 51  1  0
 51 52  2  0
 51 53  1  0
 53 54  1  0
 54 55  1  0
 55 56  2  0
 56 57  1  0
 57 58  2  0
 58 59  1  0
 59 60  2  0
 58 61  1  0
 61 62  1  0
 61 63  2  0
 27 21  1  0
 41 33  1  0
 60 55  1  0
 41 36  1  0
  1 64  1  0
  1 65  1  0
  3 66  1  0
  3 67  1  0
  5 68  1  0
  5 69  1  0
  6 70  1  0
  6 71  1  0
  7 72  1  0
  7 73  1  0
  8 74  1  1
  9 75  1  0
 12 76  1  6
 13 77  1  0
 13 78  1  0
 14 79  1  0
 15 80  1  0
 18 81  1  1
 19 82  1  0
 19 83  1  0
 20 84  1  0
 20 85  1  0
 22 86  1  0
 23 87  1  0
 25 88  1  0
 26 89  1  0
 27 90  1  0
 30 91  1  0
 31 92  1  6
 32 93  1  0
 32 94  1  0
 34 95  1  0
 35 96  1  0
 37 97  1  0
 38 98  1  0
 39 99  1  0
 40100  1  0
 44101  1  0
 45102  1  6
 46103  1  0
 46104  1  0
 47105  1  0
 47106  1  0
 49107  1  0
 49108  1  0
 53109  1  0
 54110  1  0
 54111  1  0
 56112  1  0
 57113  1  0
 59114  1  0
 60115  1  0
M  CHG  2  61   1  62  -1
M  END
$$$$
[H]c1c([H])c([H])c2c(c1[H])C(C#N)=C1c3c([H])c([H])c(C(=O)N([H])C(=O)N([H])[H])c([H])c3C([H])([H])C1(C([H])([H])C([H])([H])C([H])([H])C([H])([H])[H])C(C([H])([H])[H])(C([H])([H])[H])C([H])([H])C([H])([H])C2([H])[H]
     RDKit          3D

 67 70  0  0  0  0  0  0  0  0999 V2000
   -4.3152    2.8977   -1.4401 C   0  0  0  0  0  0  0  0  0  0  0  0
   -3.7386    2.0332   -0.3305 C   0  0  0  0  0  0  0  0  0  0  0  0
   -2.2604    1.7425   -0.7386 C   0  0  0  0  0  0  0  0  0  0  0  0
   -1.7545    0.8915    0.3912 C   0  0  0  0  0  0  0  0  0  0  0  0
   -0.3443    0.3660    0.2827 C   0  0  0  0  0  0  0  0  0  0  0  0
    0.4237    1.7070    0.1628 C   0  0  0  0  0  0  0  0  0  0  0  0
    1.7016    1.2928   -0.3866 C   0  0  0  0  0  0  0  0  0  0  0  0
    2.9520    1.8805   -0.2834 C   0  0  0  0  0  0  0  0  0  0  0  0
    4.0432    1.3382   -0.9028 C   0  0  0  0  0  0  0  0  0  0  0  0
    3.8631    0.1848   -1.6353 C   0  0  0  0  0  0  0  0  0  0  0  0
    2.6147   -0.3859   -1.7262 C   0  0  0  0  0  0  0  0  0  0  0  0
    1.4884    0.1493   -1.1046 C   0  0  0  0  0  0  0  0  0  0  0  0
    0.0507   -0.2509   -0.9865 C   0  0  0  0  0  0  0  0  0  0  0  0
   -0.5622   -1.0717   -1.8003 C   0  0  0  0  0  0  0  0  0  0  0  0
    0.0508   -1.5455   -3.0705 C   0  0  0  0  0  0  0  0  0  0  0  0
    0.5092   -1.9027   -4.1099 N   0  0  0  0  0  0  0  0  0  0  0  0
   -1.8728   -1.7423   -1.5986 C   0  0  0  0  0  0  0  0  0  0  0  0
   -2.8418   -1.5993   -2.5879 C   0  0  0  0  0  0  0  0  0  0  0  0
   -4.0908   -2.1308   -2.5756 C   0  0  0  0  0  0  0  0  0  0  0  0
   -4.4637   -2.8900   -1.4947 C   0  0  0  0  0  0  0  0  0  0  0  0
   -3.5300   -3.0576   -0.4937 C   0  0  0  0  0  0  0  0  0  0  0  0
   -2.2718   -2.5049   -0.5390 C   0  0  0  0  0  0  0  0  0  0  0  0
   -1.3949   -2.8663    0.6212 C   0  0  0  0  0  0  0  0  0  0  0  0
   -1.8684   -2.0918    1.7810 C   0  0  0  0  0  0  0  0  0  0  0  0
   -1.1537   -0.9464    2.2828 C   0  0  0  0  0  0  0  0  0  0  0  0
   -0.0023   -0.3145    1.5437 C   0  0  0  0  0  0  0  0  0  0  0  0
    1.1989   -1.1575    1.6454 C   0  0  0  0  0  0  0  0  0  0  0  0
    0.3572    0.8214    2.5555 C   0  0  0  0  0  0  0  0  0  0  0  0
    5.3117    1.9997   -0.7733 C   0  0  0  0  0  0  0  0  0  0  0  0
    5.6393    2.9004   -1.6146 O   0  0  0  0  0  0  0  0  0  0  0  0
    6.2212    1.6948    0.2537 N   0  0  0  0  0  0  0  0  0  0  0  0
    5.9143    0.7084    1.2155 C   0  0  0  0  0  0  0  0  0  0  0  0
    6.8604    0.3989    2.2746 N   0  0  0  0  0  0  0  0  0  0  0  0
    4.8580    0.0468    1.2426 O   0  0  0  0  0  0  0  0  0  0  0  0
   -4.0580    3.9426   -1.1924 H   0  0  0  0  0  0  0  0  0  0  0  0
   -3.8379    2.5714   -2.3778 H   0  0  0  0  0  0  0  0  0  0  0  0
   -5.4138    2.7553   -1.4322 H   0  0  0  0  0  0  0  0  0  0  0  0
   -3.7122    2.5838    0.6260 H   0  0  0  0  0  0  0  0  0  0  0  0
   -4.2156    1.0522   -0.2670 H   0  0  0  0  0  0  0  0  0  0  0  0
   -2.3163    1.2991   -1.7181 H   0  0  0  0  0  0  0  0  0  0  0  0
   -1.8567    2.7879   -0.7466 H   0  0  0  0  0  0  0  0  0  0  0  0
   -1.7588    1.6528    1.2684 H   0  0  0  0  0  0  0  0  0  0  0  0
   -2.5433    0.1695    0.5984 H   0  0  0  0  0  0  0  0  0  0  0  0
   -0.0631    2.3069   -0.6705 H   0  0  0  0  0  0  0  0  0  0  0  0
    0.4027    2.3237    1.0356 H   0  0  0  0  0  0  0  0  0  0  0  0
    3.0195    2.7935    0.3148 H   0  0  0  0  0  0  0  0  0  0  0  0
    4.7155   -0.2543   -2.1300 H   0  0  0  0  0  0  0  0  0  0  0  0
    2.5445   -1.2891   -2.2760 H   0  0  0  0  0  0  0  0  0  0  0  0
   -2.5797   -1.0129   -3.4990 H   0  0  0  0  0  0  0  0  0  0  0  0
   -4.7868   -1.9538   -3.4178 H   0  0  0  0  0  0  0  0  0  0  0  0
   -5.4354   -3.3180   -1.4565 H   0  0  0  0  0  0  0  0  0  0  0  0
   -3.8551   -3.6708    0.3604 H   0  0  0  0  0  0  0  0  0  0  0  0
   -1.5968   -3.9815    0.7640 H   0  0  0  0  0  0  0  0  0  0  0  0
   -0.3519   -2.8622    0.3598 H   0  0  0  0  0  0  0  0  0  0  0  0
   -1.9307   -2.8508    2.6426 H   0  0  0  0  0  0  0  0  0  0  0  0
   -2.9843   -1.8575    1.7069 H   0  0  0  0  0  0  0  0  0  0  0  0
   -0.7201   -1.1850    3.3072 H   0  0  0  0  0  0  0  0  0  0  0  0
   -1.9178   -0.1567    2.5722 H   0  0  0  0  0  0  0  0  0  0  0  0
    2.1225   -0.6459    2.0744 H   0  0  0  0  0  0  0  0  0  0  0  0
    1.5757   -1.7221    0.8202 H   0  0  0  0  0  0  0  0  0  0  0  0
    1.0166   -1.9353    2.4562 H   0  0  0  0  0  0  0  0  0  0  0  0
    1.3729    1.1986    2.3680 H   0  0  0  0  0  0  0  0  0  0  0  0
   -0.4364    1.5296    2.6978 H   0  0  0  0  0  0  0  0  0  0  0  0
    0.4788    0.3252    3.5775 H   0  0  0  0  0  0  0  0  0  0  0  0
    7.1565    2.2217    0.3010 H   0  0  0  0  0  0  0  0  0  0  0  0
    6.4979    0.2303    3.2253 H   0  0  0  0  0  0  0  0  0  0  0  0
    7.8746    0.3556    2.0472 H   0  0  0  0  0  0  0  0  0  0  0  0
  1  2  1  0
  2  3  1  0
  3  4  1  0
  4  5  1  0
  5  6  1  0
  6  7  1  0
  7  8  2  0
  8  9  1  0
  9 10  2  0
 10 11  1  0
 11 12  2  0
 12 13  1  0
 13 14  2  0
 14 15  1  0
 15 16  3  0
 14 17  1  0
 17 18  2  0
 18 19  1  0
 19 20  2  0
 20 21  1  0
 21 22  2  0
 22 23  1  0
 23 24  1  0
 24 25  1  0
 25 26  1  0
 26 27  1  0
 26 28  1  0
  9 29  1  0
 29 30  2  0
 29 31  1  0
 31 32  1  0
 32 33  1  0
 32 34  2  0
 13  5  1  0
 22 17  1  0
 26  5  1  0
 12  7  1  0
  1 35  1  0
  1 36  1  0
  1 37  1  0
  2 38  1  0
  2 39  1  0
  3 40  1  0
  3 41  1  0
  4 42  1  0
  4 43  1  0
  6 44  1  0
  6 45  1  0
  8 46  1  0
 10 47  1  0
 11 48  1  0
 18 49  1  0
 19 50  1  0
 20 51  1  0
 21 52  1  0
 23 53  1  0
 23 54  1  0
 24 55  1  0
 24 56  1  0
 25 57  1  0
 25 58  1  0
 27 59  1  0
 27 60  1  0
 27 61  1  0
 28 62  1  0
 28 63  1  0
 28 64  1  0
 31 65  1  0
 33 66  1  0
 33 67  1  0
M  END
$$$$
[H]C([H])=C([H])C(=O)N([H])C([H])([H])c1c([H])c([H])c(Cl)c(N([H])c2nc([H])c([H])c(-c3c([H])n([H])c4nc([H])c(-c5c([H])nn(C6([H])C([H])([H])C([H])([H])N([H])C([H])([H])C6([H])[H])c5[H])c([H])c34)n2)c1[H]
     RDKit          3D

 68 73  0  0  0  0  0  0  0  0999 V2000
    5.3971    5.1823    1.4721 Cl  0  0  0  0  0  0  0  0  0  0  0  0
    5.5925    3.4893    1.0731 C   0  0  0  0  0  0  0  0  0  0  0  0
    6.8140    2.8984    1.2085 C   0  0  0  0  0  0  0  0  0  0  0  0
    7.0326    1.5852    0.9150 C   0  0  0  0  0  0  0  0  0  0  0  0
    5.9892    0.8231    0.4662 C   0  0  0  0  0  0  0  0  0  0  0  0
    6.1401   -0.6305    0.1203 C   0  0  0  0  0  0  0  0  0  0  0  0
    7.4645   -1.1158    0.4463 N   0  0  0  0  0  0  0  0  0  0  0  0
    7.8399   -1.4080    1.7778 C   0  0  0  0  0  0  0  0  0  0  0  0
    6.9778   -1.2335    2.6931 O   0  0  0  0  0  0  0  0  0  0  0  0
    9.1586   -1.8938    2.1284 C   0  0  0  0  0  0  0  0  0  0  0  0
   10.1202   -2.1080    1.2688 C   0  0  0  0  0  0  0  0  0  0  0  0
    4.7429    1.4450    0.3331 C   0  0  0  0  0  0  0  0  0  0  0  0
    4.5062    2.7450    0.6186 C   0  0  0  0  0  0  0  0  0  0  0  0
    3.2598    3.3800    0.4895 N   0  0  0  0  0  0  0  0  0  0  0  0
    2.0305    2.8907    0.0525 C   0  0  0  0  0  0  0  0  0  0  0  0
    0.9593    3.7396    0.0284 N   0  0  0  0  0  0  0  0  0  0  0  0
   -0.2501    3.3494   -0.3793 C   0  0  0  0  0  0  0  0  0  0  0  0
   -0.4287    2.0232   -0.7976 C   0  0  0  0  0  0  0  0  0  0  0  0
    0.6123    1.1463   -0.7872 C   0  0  0  0  0  0  0  0  0  0  0  0
    1.8012    1.6624   -0.3496 N   0  0  0  0  0  0  0  0  0  0  0  0
    0.6445   -0.2193   -1.2207 C   0  0  0  0  0  0  0  0  0  0  0  0
    1.7962   -0.9351   -1.6153 C   0  0  0  0  0  0  0  0  0  0  0  0
    1.4618   -2.1860   -1.9178 N   0  0  0  0  0  0  0  0  0  0  0  0
    0.1252   -2.3468   -1.7421 C   0  0  0  0  0  0  0  0  0  0  0  0
   -0.7021   -3.3888   -1.8900 N   0  0  0  0  0  0  0  0  0  0  0  0
   -2.0205   -3.3379   -1.6410 C   0  0  0  0  0  0  0  0  0  0  0  0
   -2.6012   -2.1703   -1.2064 C   0  0  0  0  0  0  0  0  0  0  0  0
   -1.7441   -1.0730   -1.0486 C   0  0  0  0  0  0  0  0  0  0  0  0
   -0.3896   -1.1181   -1.3047 C   0  0  0  0  0  0  0  0  0  0  0  0
   -4.0201   -2.0478   -0.9175 C   0  0  0  0  0  0  0  0  0  0  0  0
   -5.0130   -2.7410   -1.5653 C   0  0  0  0  0  0  0  0  0  0  0  0
   -6.1983   -2.3511   -1.0110 N   0  0  0  0  0  0  0  0  0  0  0  0
   -5.9704   -1.4511   -0.0544 N   0  0  0  0  0  0  0  0  0  0  0  0
   -4.6433   -1.2524    0.0178 C   0  0  0  0  0  0  0  0  0  0  0  0
   -6.9781   -0.7857    0.7804 C   0  0  0  0  0  0  0  0  0  0  0  0
   -6.5840    0.6551    1.0008 C   0  0  0  0  0  0  0  0  0  0  0  0
   -7.6015    1.5813    0.3935 C   0  0  0  0  0  0  0  0  0  0  0  0
   -8.9447    1.3029    0.8553 N   0  0  0  0  0  0  0  0  0  0  0  0
   -9.3746   -0.0289    0.5502 C   0  0  0  0  0  0  0  0  0  0  0  0
   -8.2959   -0.9567    0.1018 C   0  0  0  0  0  0  0  0  0  0  0  0
    7.6670    3.4829    1.5647 H   0  0  0  0  0  0  0  0  0  0  0  0
    8.0257    1.1348    1.0308 H   0  0  0  0  0  0  0  0  0  0  0  0
    5.4084   -1.1990    0.7485 H   0  0  0  0  0  0  0  0  0  0  0  0
    5.8964   -0.8043   -0.9399 H   0  0  0  0  0  0  0  0  0  0  0  0
    8.1471   -1.2477   -0.3335 H   0  0  0  0  0  0  0  0  0  0  0  0
    9.3775   -2.0981    3.1716 H   0  0  0  0  0  0  0  0  0  0  0  0
    9.9570   -1.9233    0.2325 H   0  0  0  0  0  0  0  0  0  0  0  0
   11.0911   -2.4709    1.5716 H   0  0  0  0  0  0  0  0  0  0  0  0
    3.9704    0.7842   -0.0229 H   0  0  0  0  0  0  0  0  0  0  0  0
    3.2353    4.4297    0.7751 H   0  0  0  0  0  0  0  0  0  0  0  0
   -1.0692    4.0485   -0.3838 H   0  0  0  0  0  0  0  0  0  0  0  0
   -1.3976    1.7299   -1.1548 H   0  0  0  0  0  0  0  0  0  0  0  0
    2.7651   -0.4949   -1.6502 H   0  0  0  0  0  0  0  0  0  0  0  0
    2.1027   -2.9601   -2.2456 H   0  0  0  0  0  0  0  0  0  0  0  0
   -2.6839   -4.1895   -1.7646 H   0  0  0  0  0  0  0  0  0  0  0  0
   -2.2026   -0.1629   -0.6819 H   0  0  0  0  0  0  0  0  0  0  0  0
   -4.9768   -3.4641   -2.3574 H   0  0  0  0  0  0  0  0  0  0  0  0
   -4.1692   -0.5561    0.7260 H   0  0  0  0  0  0  0  0  0  0  0  0
   -6.9544   -1.2956    1.7773 H   0  0  0  0  0  0  0  0  0  0  0  0
   -6.4043    0.8881    2.0726 H   0  0  0  0  0  0  0  0  0  0  0  0
   -5.6180    0.8568    0.4820 H   0  0  0  0  0  0  0  0  0  0  0  0
   -7.5629    1.4607   -0.7016 H   0  0  0  0  0  0  0  0  0  0  0  0
   -7.3648    2.6239    0.6881 H   0  0  0  0  0  0  0  0  0  0  0  0
   -9.0706    1.5759    1.8473 H   0  0  0  0  0  0  0  0  0  0  0  0
  -10.1008    0.0614   -0.3101 H   0  0  0  0  0  0  0  0  0  0  0  0
   -9.9927   -0.4378    1.3965 H   0  0  0  0  0  0  0  0  0  0  0  0
   -8.1399   -0.8883   -0.9947 H   0  0  0  0  0  0  0  0  0  0  0  0
   -8.6420   -2.0037    0.3124 H   0  0  0  0  0  0  0  0  0  0  0  0
  1  2  1  0
  2  3  2  0
  3  4  1  0
  4  5  2  0
  5  6  1  0
  6  7  1  0
  7  8  1  0
  8  9  2  0
  8 10  1  0
 10 11  2  3
  5 12  1  0
 12 13  2  0
 13 14  1  0
 14 15  1  0
 15 16  2  0
 16 17  1  0
 17 18  2  0
 18 19  1  0
 19 20  2  0
 19 21  1  0
 21 22  2  0
 22 23  1  0
 23 24  1  0
 24 25  2  0
 25 26  1  0
 26 27  2  0
 27 28  1  0
 28 29  2  0
 27 30  1  0
 30 31  1  0
 31 32  2  0
 32 33  1  0
 33 34  1  0
 33 35  1  0
 35 36  1  0
 36 37  1  0
 37 38  1  0
 38 39  1  0
 39 40  1  0
 13  2  1  0
 20 15  1  0
 29 21  1  0
 34 30  2  0
 40 35  1  0
 29 24  1  0
  3 41  1  0
  4 42  1  0
  6 43  1  0
  6 44  1  0
  7 45  1  0
 10 46  1  0
 11 47  1  0
 11 48  1  0
 12 49  1  0
 14 50  1  0
 17 51  1  0
 18 52  1  0
 22 53  1  0
 23 54  1  0
 26 55  1  0
 28 56  1  0
 31 57  1  0
 34 58  1  0
 35 59  1  0
 36 60  1  0
 36 61  1  0
 37 62  1  0
 37 63  1  0
 38 64  1  0
 39 65  1  0
 39 66  1  0
 40 67  1  0
 40 68  1  0
M  END
$$$$
[H]c1c([H])c(C([H])([H])n2c(=O)n(-c3c([H])c([H])c(C([H])([H])[H])c([H])c3[H])c(=O)c3c([H])c([H])c([H])c(Cl)c32)c([H])c([H])c1F
     RDKit          3D

 44 47  0  0  0  0  0  0  0  0999 V2000
    5.9796    2.3480   -0.4590 C   0  0  0  0  0  0  0  0  0  0  0  0
    4.7075    1.5941   -0.3338 C   0  0  0  0  0  0  0  0  0  0  0  0
    4.7255    0.4030    0.3572 C   0  0  0  0  0  0  0  0  0  0  0  0
    3.5426   -0.2958    0.4723 C   0  0  0  0  0  0  0  0  0  0  0  0
    2.3781    0.1857   -0.0884 C   0  0  0  0  0  0  0  0  0  0  0  0
    2.3374    1.3748   -0.7837 C   0  0  0  0  0  0  0  0  0  0  0  0
    3.5207    2.0743   -0.8992 C   0  0  0  0  0  0  0  0  0  0  0  0
    1.1753   -0.5537    0.0454 N   0  0  0  0  0  0  0  0  0  0  0  0
    0.1219   -0.1289    0.7241 C   0  0  0  0  0  0  0  0  0  0  0  0
    0.1640    0.9820    1.2863 O   0  0  0  0  0  0  0  0  0  0  0  0
   -1.0680   -0.7782    0.8995 N   0  0  0  0  0  0  0  0  0  0  0  0
   -2.1312   -0.2452    1.6298 C   0  0  0  0  0  0  0  0  0  0  0  0
   -2.9882    0.7913    0.9727 C   0  0  0  0  0  0  0  0  0  0  0  0
   -3.2352    0.8789   -0.3713 C   0  0  0  0  0  0  0  0  0  0  0  0
   -4.0170    1.8201   -0.9863 C   0  0  0  0  0  0  0  0  0  0  0  0
   -4.6265    2.7825   -0.2129 C   0  0  0  0  0  0  0  0  0  0  0  0
   -5.3997    3.7143   -0.8159 F   0  0  0  0  0  0  0  0  0  0  0  0
   -4.4283    2.7644    1.1514 C   0  0  0  0  0  0  0  0  0  0  0  0
   -3.6273    1.7821    1.6834 C   0  0  0  0  0  0  0  0  0  0  0  0
   -1.1592   -1.9893    0.3095 C   0  0  0  0  0  0  0  0  0  0  0  0
   -2.2497   -2.7959    0.3932 C   0  0  0  0  0  0  0  0  0  0  0  0
   -3.6087   -2.3028    1.3563 Cl  0  0  0  0  0  0  0  0  0  0  0  0
   -2.2711   -4.0389   -0.2260 C   0  0  0  0  0  0  0  0  0  0  0  0
   -1.1928   -4.4876   -0.9359 C   0  0  0  0  0  0  0  0  0  0  0  0
   -0.0638   -3.7164   -1.0495 C   0  0  0  0  0  0  0  0  0  0  0  0
   -0.0494   -2.4834   -0.4320 C   0  0  0  0  0  0  0  0  0  0  0  0
    1.0984   -1.7402   -0.5426 C   0  0  0  0  0  0  0  0  0  0  0  0
    2.0711   -2.2232   -1.2193 O   0  0  0  0  0  0  0  0  0  0  0  0
    6.6281    2.1944    0.4339 H   0  0  0  0  0  0  0  0  0  0  0  0
    6.5687    1.9941   -1.3473 H   0  0  0  0  0  0  0  0  0  0  0  0
    5.7971    3.4399   -0.5232 H   0  0  0  0  0  0  0  0  0  0  0  0
    5.6616    0.0695    0.7770 H   0  0  0  0  0  0  0  0  0  0  0  0
    3.5568   -1.2482    1.0248 H   0  0  0  0  0  0  0  0  0  0  0  0
    1.4340    1.7757   -1.2344 H   0  0  0  0  0  0  0  0  0  0  0  0
    3.5717    3.0228   -1.4334 H   0  0  0  0  0  0  0  0  0  0  0  0
   -1.5146    0.5293    2.2773 H   0  0  0  0  0  0  0  0  0  0  0  0
   -2.4988   -0.6514    2.5732 H   0  0  0  0  0  0  0  0  0  0  0  0
   -2.7719    0.1283   -1.0640 H   0  0  0  0  0  0  0  0  0  0  0  0
   -4.1568    1.8098   -2.0760 H   0  0  0  0  0  0  0  0  0  0  0  0
   -4.9078    3.5251    1.7800 H   0  0  0  0  0  0  0  0  0  0  0  0
   -3.4975    1.8096    2.7934 H   0  0  0  0  0  0  0  0  0  0  0  0
   -3.1792   -4.6156   -0.1112 H   0  0  0  0  0  0  0  0  0  0  0  0
   -1.2003   -5.4587   -1.4253 H   0  0  0  0  0  0  0  0  0  0  0  0
    0.8029   -4.0406   -1.6006 H   0  0  0  0  0  0  0  0  0  0  0  0
  1  2  1  0
  2  3  2  0
  3  4  1  0
  4  5  2  0
  5  6  1  0
  6  7  2  0
  5  8  1  0
  8  9  1  0
  9 10  2  0
  9 11  1  0
 11 12  1  0
 12 13  1  0
 13 14  2  0
 14 15  1  0
 15 16  2  0
 16 17  1  0
 16 18  1  0
 18 19  2  0
 11 20  1  0
 20 21  2  0
 21 22  1  0
 21 23  1  0
 23 24  2  0
 24 25  1  0
 25 26  2  0
 26 27  1  0
 27 28  2  0
  7  2  1  0
 27  8  1  0
 19 13  1  0
 26 20  1  0
  1 29  1  0
  1 30  1  0
  1 31  1  0
  3 32  1  0
  4 33  1  0
  6 34  1  0
  7 35  1  0
 12 36  1  0
 12 37  1  0
 14 38  1  0
 15 39  1  0
 18 40  1  0
 19 41  1  0
 23 42  1  0
 24 43  1  0
 25 44  1  0
M  END
$$$$
[H]c1c([H])c([H])c2c(c1[H])c1c3c(c4c5c([H])c([H])c([H])c([H])c5n5c4c1n2[C@@]1([H])C([H])([H])[C@]5(C([H])([H])[H])C(=O)O[C@]1([H])OC([H])([H])C([H])([H])[H])C(=O)N([H])C3([H])[H]
     RDKit          3D

 58 65  0  0  0  0  0  0  0  0999 V2000
    5.1016    1.1521   -0.2841 C   0  0  0  0  0  0  0  0  0  0  0  0
    4.9826   -0.3423   -0.2150 C   0  0  0  0  0  0  0  0  0  0  0  0
    3.9033   -0.8053    0.4678 O   0  0  0  0  0  0  0  0  0  0  0  0
    2.6771   -0.4110   -0.0560 C   0  0  2  0  0  0  0  0  0  0  0  0
    1.7717    0.0774    1.0084 C   0  0  2  0  0  0  0  0  0  0  0  0
    1.0885   -0.9674    1.7950 C   0  0  0  0  0  0  0  0  0  0  0  0
    0.5195   -2.1401    1.0140 C   0  0  2  0  0  0  0  0  0  0  0  0
    0.3528   -3.2159    2.0869 C   0  0  0  0  0  0  0  0  0  0  0  0
    1.5173   -2.5991    0.0427 C   0  0  0  0  0  0  0  0  0  0  0  0
    1.8256   -3.7940   -0.1945 O   0  0  0  0  0  0  0  0  0  0  0  0
    2.1771   -1.6134   -0.6784 O   0  0  0  0  0  0  0  0  0  0  0  0
    0.7432    0.9779    0.5104 N   0  0  0  0  0  0  0  0  0  0  0  0
    0.9291    2.3240    0.3750 C   0  0  0  0  0  0  0  0  0  0  0  0
    1.9648    3.1726    0.6621 C   0  0  0  0  0  0  0  0  0  0  0  0
    1.8699    4.5484    0.4184 C   0  0  0  0  0  0  0  0  0  0  0  0
    0.7289    5.0840   -0.1173 C   0  0  0  0  0  0  0  0  0  0  0  0
   -0.2981    4.2160   -0.3972 C   0  0  0  0  0  0  0  0  0  0  0  0
   -0.2387    2.8469   -0.1686 C   0  0  0  0  0  0  0  0  0  0  0  0
   -1.1223    1.8131   -0.3553 C   0  0  0  0  0  0  0  0  0  0  0  0
   -2.3910    1.7534   -0.8709 C   0  0  0  0  0  0  0  0  0  0  0  0
   -3.2179    2.8890   -1.3715 C   0  0  0  0  0  0  0  0  0  0  0  0
   -4.4230    2.2674   -1.7989 N   0  0  0  0  0  0  0  0  0  0  0  0
   -4.3707    0.8383   -1.5601 C   0  0  0  0  0  0  0  0  0  0  0  0
   -5.3252    0.0695   -1.8418 O   0  0  0  0  0  0  0  0  0  0  0  0
   -3.0824    0.5478   -0.9779 C   0  0  0  0  0  0  0  0  0  0  0  0
   -2.4383   -0.6006   -0.5383 C   0  0  0  0  0  0  0  0  0  0  0  0
   -2.8249   -1.9180   -0.5143 C   0  0  0  0  0  0  0  0  0  0  0  0
   -3.9645   -2.5632   -0.9250 C   0  0  0  0  0  0  0  0  0  0  0  0
   -4.0339   -3.9532   -0.7855 C   0  0  0  0  0  0  0  0  0  0  0  0
   -2.9943   -4.6530   -0.2548 C   0  0  0  0  0  0  0  0  0  0  0  0
   -1.8442   -3.9879    0.1577 C   0  0  0  0  0  0  0  0  0  0  0  0
   -1.7418   -2.6254    0.0382 C   0  0  0  0  0  0  0  0  0  0  0  0
   -0.7353   -1.7876    0.3468 N   0  0  0  0  0  0  0  0  0  0  0  0
   -1.1643   -0.5514   -0.0161 C   0  0  0  0  0  0  0  0  0  0  0  0
   -0.5055    0.6574    0.0713 C   0  0  0  0  0  0  0  0  0  0  0  0
    6.1584    1.3861   -0.5376 H   0  0  0  0  0  0  0  0  0  0  0  0
    4.3847    1.5895   -0.9912 H   0  0  0  0  0  0  0  0  0  0  0  0
    4.9001    1.5512    0.7500 H   0  0  0  0  0  0  0  0  0  0  0  0
    4.9948   -0.7042   -1.2737 H   0  0  0  0  0  0  0  0  0  0  0  0
    5.9003   -0.7652    0.2807 H   0  0  0  0  0  0  0  0  0  0  0  0
    2.8148    0.2916   -0.8804 H   0  0  0  0  0  0  0  0  0  0  0  0
    2.3574    0.7021    1.7573 H   0  0  0  0  0  0  0  0  0  0  0  0
    1.8340   -1.3959    2.5095 H   0  0  0  0  0  0  0  0  0  0  0  0
    0.3129   -0.4864    2.4365 H   0  0  0  0  0  0  0  0  0  0  0  0
   -0.6871   -3.3031    2.4526 H   0  0  0  0  0  0  0  0  0  0  0  0
    0.9203   -2.9285    3.0381 H   0  0  0  0  0  0  0  0  0  0  0  0
    0.8388   -4.1729    1.8111 H   0  0  0  0  0  0  0  0  0  0  0  0
    2.8663    2.7788    1.0913 H   0  0  0  0  0  0  0  0  0  0  0  0
    2.7117    5.2062    0.6561 H   0  0  0  0  0  0  0  0  0  0  0  0
    0.6664    6.1415   -0.3007 H   0  0  0  0  0  0  0  0  0  0  0  0
   -1.2255    4.5953   -0.8253 H   0  0  0  0  0  0  0  0  0  0  0  0
   -3.3765    3.6065   -0.5253 H   0  0  0  0  0  0  0  0  0  0  0  0
   -2.7443    3.3893   -2.2425 H   0  0  0  0  0  0  0  0  0  0  0  0
   -5.2849    2.7162   -2.2399 H   0  0  0  0  0  0  0  0  0  0  0  0
   -4.8304   -2.1103   -1.3520 H   0  0  0  0  0  0  0  0  0  0  0  0
   -4.9257   -4.4787   -1.1036 H   0  0  0  0  0  0  0  0  0  0  0  0
   -3.0028   -5.7469   -0.1257 H   0  0  0  0  0  0  0  0  0  0  0  0
   -1.0204   -4.5683    0.5417 H   0  0  0  0  0  0  0  0  0  0  0  0
  1  2  1  0
  2  3  1  0
  3  4  1  0
  4  5  1  0
  5  6  1  0
  6  7  1  0
  7  8  1  1
  7  9  1  0
  9 10  2  0
  9 11  1  0
  5 12  1  0
 12 13  1  0
 13 14  2  0
 14 15  1  0
 15 16  2  0
 16 17  1  0
 17 18  2  0
 18 19  1  0
 19 20  2  0
 20 21  1  0
 21 22  1  0
 22 23  1  0
 23 24  2  0
 23 25  1  0
 25 26  2  0
 26 27  1  0
 27 28  2  0
 28 29  1  0
 29 30  2  0
 30 31  1  0
 31 32  2  0
 32 33  1  0
 33 34  1  0
 34 35  2  0
 11  4  1  0
 35 12  1  0
 33  7  1  0
 18 13  1  0
 35 19  1  0
 25 20  1  0
 34 26  1  0
 32 27  1  0
  1 36  1  0
  1 37  1  0
  1 38  1  0
  2 39  1  0
  2 40  1  0
  4 41  1  6
  5 42  1  1
  6 43  1  0
  6 44  1  0
  8 45  1  0
  8 46  1  0
  8 47  1  0
 14 48  1  0
 15 49  1  0
 16 50  1  0
 17 51  1  0
 21 52  1  0
 21 53  1  0
 22 54  1  0
 28 55  1  0
 29 56  1  0
 30 57  1  0
 31 58  1  0
M  END
$$$$
[H]c1c([H])c(N([H])C(=O)OC([H])([H])[H])c([H])c(N2C([H])([H])C([H])([H])N(C(=O)N([H])C([H])([H])C([H])([H])OC([H])([H])C([H])([H])OC([H])([H])C([H])([H])OC([H])([H])[H])C([H])([H])C2([H])[H])c1[H]
     RDKit          3D

 62 63  0  0  0  0  0  0  0  0999 V2000
   -9.0093   -0.6062    1.7327 C   0  0  0  0  0  0  0  0  0  0  0  0
   -8.4649    0.4680    2.3283 O   0  0  0  0  0  0  0  0  0  0  0  0
   -7.9364    1.4631    1.6118 C   0  0  0  0  0  0  0  0  0  0  0  0
   -6.7854    1.0992    0.7420 C   0  0  0  0  0  0  0  0  0  0  0  0
   -7.1092    0.1727   -0.1909 O   0  0  0  0  0  0  0  0  0  0  0  0
   -6.1386   -0.2674   -1.0410 C   0  0  0  0  0  0  0  0  0  0  0  0
   -5.5595    0.8236   -1.8807 C   0  0  0  0  0  0  0  0  0  0  0  0
   -4.5860    0.3880   -2.7463 O   0  0  0  0  0  0  0  0  0  0  0  0
   -3.4854   -0.1990   -2.1710 C   0  0  0  0  0  0  0  0  0  0  0  0
   -2.7600    0.7063   -1.2254 C   0  0  0  0  0  0  0  0  0  0  0  0
   -1.6091    0.1384   -0.5982 N   0  0  0  0  0  0  0  0  0  0  0  0
   -0.4924   -0.2921   -1.3343 C   0  0  0  0  0  0  0  0  0  0  0  0
   -0.5195   -0.1575   -2.6014 O   0  0  0  0  0  0  0  0  0  0  0  0
    0.6324   -0.8605   -0.6839 N   0  0  0  0  0  0  0  0  0  0  0  0
    1.7695   -1.2978   -1.4515 C   0  0  0  0  0  0  0  0  0  0  0  0
    2.9759   -0.5536   -0.8573 C   0  0  0  0  0  0  0  0  0  0  0  0
    3.1102   -1.0337    0.4984 N   0  0  0  0  0  0  0  0  0  0  0  0
    1.9778   -1.5454    1.2421 C   0  0  0  0  0  0  0  0  0  0  0  0
    0.6617   -1.0116    0.7301 C   0  0  0  0  0  0  0  0  0  0  0  0
    4.3606   -1.0009    1.1280 C   0  0  0  0  0  0  0  0  0  0  0  0
    4.5782   -1.6500    2.3153 C   0  0  0  0  0  0  0  0  0  0  0  0
    5.8069   -1.6188    2.9485 C   0  0  0  0  0  0  0  0  0  0  0  0
    6.8335   -0.9181    2.3694 C   0  0  0  0  0  0  0  0  0  0  0  0
    6.6648   -0.2343    1.1526 C   0  0  0  0  0  0  0  0  0  0  0  0
    7.7608    0.4675    0.6070 N   0  0  0  0  0  0  0  0  0  0  0  0
    7.8304    1.2265   -0.5597 C   0  0  0  0  0  0  0  0  0  0  0  0
    6.8856    1.4172   -1.3502 O   0  0  0  0  0  0  0  0  0  0  0  0
    9.0404    1.8516   -0.9258 O   0  0  0  0  0  0  0  0  0  0  0  0
    9.0478    2.6057   -2.1168 C   0  0  0  0  0  0  0  0  0  0  0  0
    5.4269   -0.2960    0.5646 C   0  0  0  0  0  0  0  0  0  0  0  0
   -8.3457   -1.2409    1.1223 H   0  0  0  0  0  0  0  0  0  0  0  0
   -9.9165   -0.3458    1.0980 H   0  0  0  0  0  0  0  0  0  0  0  0
   -9.3869   -1.3162    2.5377 H   0  0  0  0  0  0  0  0  0  0  0  0
   -8.7568    1.9078    0.9548 H   0  0  0  0  0  0  0  0  0  0  0  0
   -7.6112    2.3461    2.2435 H   0  0  0  0  0  0  0  0  0  0  0  0
   -5.9562    0.7404    1.4236 H   0  0  0  0  0  0  0  0  0  0  0  0
   -6.3481    2.0387    0.2816 H   0  0  0  0  0  0  0  0  0  0  0  0
   -5.3603   -0.8811   -0.5296 H   0  0  0  0  0  0  0  0  0  0  0  0
   -6.6499   -0.9779   -1.7598 H   0  0  0  0  0  0  0  0  0  0  0  0
   -6.4019    1.1974   -2.5355 H   0  0  0  0  0  0  0  0  0  0  0  0
   -5.2374    1.7272   -1.3196 H   0  0  0  0  0  0  0  0  0  0  0  0
   -3.7095   -1.1628   -1.6362 H   0  0  0  0  0  0  0  0  0  0  0  0
   -2.8176   -0.5057   -3.0122 H   0  0  0  0  0  0  0  0  0  0  0  0
   -3.4276    1.1140   -0.4346 H   0  0  0  0  0  0  0  0  0  0  0  0
   -2.3991    1.6294   -1.7668 H   0  0  0  0  0  0  0  0  0  0  0  0
   -1.5700    0.0267    0.4582 H   0  0  0  0  0  0  0  0  0  0  0  0
    1.9192   -2.3890   -1.2318 H   0  0  0  0  0  0  0  0  0  0  0  0
    1.6541   -1.1026   -2.5255 H   0  0  0  0  0  0  0  0  0  0  0  0
    2.7013    0.5243   -0.8410 H   0  0  0  0  0  0  0  0  0  0  0  0
    3.8728   -0.7318   -1.4885 H   0  0  0  0  0  0  0  0  0  0  0  0
    2.0073   -2.6523    1.2783 H   0  0  0  0  0  0  0  0  0  0  0  0
    2.0838   -1.1881    2.2875 H   0  0  0  0  0  0  0  0  0  0  0  0
   -0.1113   -1.7921    0.9938 H   0  0  0  0  0  0  0  0  0  0  0  0
    0.3592   -0.1114    1.2995 H   0  0  0  0  0  0  0  0  0  0  0  0
    3.7727   -2.2013    2.7694 H   0  0  0  0  0  0  0  0  0  0  0  0
    5.9936   -2.1220    3.8798 H   0  0  0  0  0  0  0  0  0  0  0  0
    7.8257   -0.8615    2.8286 H   0  0  0  0  0  0  0  0  0  0  0  0
    8.6802    0.4175    1.1596 H   0  0  0  0  0  0  0  0  0  0  0  0
    8.6069    3.6034   -1.8694 H   0  0  0  0  0  0  0  0  0  0  0  0
   10.0646    2.6923   -2.5520 H   0  0  0  0  0  0  0  0  0  0  0  0
    8.3329    2.1233   -2.8200 H   0  0  0  0  0  0  0  0  0  0  0  0
    5.2244    0.2088   -0.3686 H   0  0  0  0  0  0  0  0  0  0  0  0
  1  2  1  0
  2  3  1  0
  3  4  1  0
  4  5  1  0
  5  6  1  0
  6  7  1  0
  7  8  1  0
  8  9  1  0
  9 10  1  0
 10 11  1  0
 11 12  1  0
 12 13  2  0
 12 14  1  0
 14 15  1  0
 15 16  1  0
 16 17  1  0
 17 18  1  0
 18 19  1  0
 17 20  1  0
 20 21  2  0
 21 22  1  0
 22 23  2  0
 23 24  1  0
 24 25  1  0
 25 26  1  0
 26 27  2  0
 26 28  1  0
 28 29  1  0
 24 30  2  0
 19 14  1  0
 30 20  1  0
  1 31  1  0
  1 32  1  0
  1 33  1  0
  3 34  1  0
  3 35  1  0
  4 36  1  0
  4 37  1  0
  6 38  1  0
  6 39  1  0
  7 40  1  0
  7 41  1  0
  9 42  1  0
  9 43  1  0
 10 44  1  0
 10 45  1  0
 11 46  1  0
 15 47  1  0
 15 48  1  0
 16 49  1  0
 16 50  1  0
 18 51  1  0
 18 52  1  0
 19 53  1  0
 19 54  1  0
 21 55  1  0
 22 56  1  0
 23 57  1  0
 25 58  1  0
 29 59  1  0
 29 60  1  0
 29 61  1  0
 30 62  1  0
M  END
$$$$
[H]Oc1c([H])c(C([H])([H])[H])c2c(-c3c([H])c([H])c(OC([H])([H])[H])c([H])c3[H])c([H])oc2c1[H]
     RDKit          3D

 33 35  0  0  0  0  0  0  0  0999 V2000
    5.3102   -0.9476    1.2181 C   0  0  0  0  0  0  0  0  0  0  0  0
    4.7771   -0.6121   -0.0339 O   0  0  0  0  0  0  0  0  0  0  0  0
    3.4589   -0.1917   -0.1454 C   0  0  0  0  0  0  0  0  0  0  0  0
    2.9210    0.1417   -1.3713 C   0  0  0  0  0  0  0  0  0  0  0  0
    1.6075    0.5560   -1.4486 C   0  0  0  0  0  0  0  0  0  0  0  0
    0.7817    0.6576   -0.3376 C   0  0  0  0  0  0  0  0  0  0  0  0
    1.3321    0.3228    0.8703 C   0  0  0  0  0  0  0  0  0  0  0  0
    2.6370   -0.0903    0.9580 C   0  0  0  0  0  0  0  0  0  0  0  0
   -0.5597    1.1647   -0.5586 C   0  0  0  0  0  0  0  0  0  0  0  0
   -0.8818    2.4623   -1.0011 C   0  0  0  0  0  0  0  0  0  0  0  0
   -2.1747    2.6129   -1.0481 O   0  0  0  0  0  0  0  0  0  0  0  0
   -2.7789    1.5023   -0.6673 C   0  0  0  0  0  0  0  0  0  0  0  0
   -4.1178    1.1984   -0.5605 C   0  0  0  0  0  0  0  0  0  0  0  0
   -4.5129   -0.0369   -0.1417 C   0  0  0  0  0  0  0  0  0  0  0  0
   -5.8744   -0.3642   -0.0261 O   0  0  0  0  0  0  0  0  0  0  0  0
   -3.5358   -0.9478    0.1626 C   0  0  0  0  0  0  0  0  0  0  0  0
   -2.1718   -0.6797    0.0681 C   0  0  0  0  0  0  0  0  0  0  0  0
   -1.1965   -1.7205    0.3810 C   0  0  0  0  0  0  0  0  0  0  0  0
   -1.7891    0.5735   -0.3542 C   0  0  0  0  0  0  0  0  0  0  0  0
    5.4846   -0.0896    1.8827 H   0  0  0  0  0  0  0  0  0  0  0  0
    4.6628   -1.6676    1.7868 H   0  0  0  0  0  0  0  0  0  0  0  0
    6.2860   -1.4781    1.1019 H   0  0  0  0  0  0  0  0  0  0  0  0
    3.5576    0.0683   -2.2633 H   0  0  0  0  0  0  0  0  0  0  0  0
    1.2459    0.8043   -2.4487 H   0  0  0  0  0  0  0  0  0  0  0  0
    0.7183    0.3909    1.7506 H   0  0  0  0  0  0  0  0  0  0  0  0
    3.0993   -0.3637    1.9164 H   0  0  0  0  0  0  0  0  0  0  0  0
   -0.1194    3.1705   -1.2460 H   0  0  0  0  0  0  0  0  0  0  0  0
   -4.8679    1.9527   -0.8132 H   0  0  0  0  0  0  0  0  0  0  0  0
   -6.3824   -0.2084    0.8420 H   0  0  0  0  0  0  0  0  0  0  0  0
   -3.8522   -1.9318    0.4953 H   0  0  0  0  0  0  0  0  0  0  0  0
   -0.9204   -1.6833    1.4283 H   0  0  0  0  0  0  0  0  0  0  0  0
   -0.3829   -1.8568   -0.3564 H   0  0  0  0  0  0  0  0  0  0  0  0
   -1.7616   -2.7089    0.2870 H   0  0  0  0  0  0  0  0  0  0  0  0
  1  2  1  0
  2  3  1  0
  3  4  2  0
  4  5  1  0
  5  6  2  0
  6  7  1  0
  7  8  2  0
  6  9  1  0
  9 10  2  0
 10 11  1  0
 11 12  1  0
 12 13  2  0
 13 14  1  0
 14 15  1  0
 14 16  2  0
 16 17  1  0
 17 18  1  0
 17 19  2  0
  8  3  1  0
 19  9  1  0
 19 12  1  0
  1 20  1  0
  1 21  1  0
  1 22  1  0
  4 23  1  0
  5 24  1  0
  7 25  1  0
  8 26  1  0
 10 27  1  0
 13 28  1  0
 15 29  1  0
 16 30  1  0
 18 31  1  0
 18 32  1  0
 18 33  1  0
M  END
$$$$
[H]c1c([H])c([H])c(-c2c([H])c([H])c(C([H])([H])OC(=O)N([H])[C@]([H])(C(=O)N([H])[C@]([H])(C(=O)N([H])[C@@]([H])(C(=O)N([H])c3c([H])c([H])c([H])c([H])c3[H])C([H])(C([H])([H])[H])C([H])([H])[H])C([H])([H])C([H])([H])C([H])([H])C([H])([H])N([H])C(=O)c3c([H])c([H])c([N+](=O)[O-])c([H])c3[H])C([H])([H])C([H])(C([H])([H])[H])C([H])([H])[H])c([H])c2[H])c([H])c1[H]
     RDKit          2D

110113  0  0  0  0  0  0  0  0999 V2000
    7.5000   -8.1962    0.0000 C   0  0  0  0  0  0  0  0  0  0  0  0
    6.0000   -8.1962    0.0000 C   0  0  0  0  0  0  0  0  0  0  0  0
    4.5000   -8.1962    0.0000 C   0  0  0  0  0  0  0  0  0  0  0  0
    6.0000   -6.6962    0.0000 C   0  0  0  0  0  0  0  0  0  0  0  0
    6.0000   -5.1962    0.0000 C   0  0  0  0  0  0  0  0  0  0  0  0
    7.5000   -5.1962    0.0000 N   0  0  0  0  0  0  0  0  0  0  0  0
    8.2500   -6.4952    0.0000 C   0  0  0  0  0  0  0  0  0  0  0  0
    7.9788   -7.4412    0.0000 O   0  0  0  0  0  0  0  0  0  0  0  0
    9.7500   -6.4952    0.0000 O   0  0  0  0  0  0  0  0  0  0  0  0
   10.5000   -7.7942    0.0000 C   0  0  0  0  0  0  0  0  0  0  0  0
   11.2500   -9.0933    0.0000 C   0  0  0  0  0  0  0  0  0  0  0  0
   10.5000  -10.3923    0.0000 C   0  0  0  0  0  0  0  0  0  0  0  0
   11.2500  -11.6913    0.0000 C   0  0  0  0  0  0  0  0  0  0  0  0
   12.7500  -11.6913    0.0000 C   0  0  0  0  0  0  0  0  0  0  0  0
   13.5000  -10.3923    0.0000 C   0  0  0  0  0  0  0  0  0  0  0  0
   12.7500   -9.0933    0.0000 C   0  0  0  0  0  0  0  0  0  0  0  0
   13.5000  -12.9904    0.0000 C   0  0  0  0  0  0  0  0  0  0  0  0
   12.7500  -14.2894    0.0000 C   0  0  0  0  0  0  0  0  0  0  0  0
   13.5000  -15.5885    0.0000 C   0  0  0  0  0  0  0  0  0  0  0  0
   15.0000  -15.5885    0.0000 C   0  0  0  0  0  0  0  0  0  0  0  0
   15.7500  -14.2894    0.0000 C   0  0  0  0  0  0  0  0  0  0  0  0
   15.0000  -12.9904    0.0000 C   0  0  0  0  0  0  0  0  0  0  0  0
    6.0000   -3.6962    0.0000 C   0  0  0  0  0  0  0  0  0  0  0  0
    5.2329   -3.2533    0.0000 O   0  0  0  0  0  0  0  0  0  0  0  0
    7.2990   -2.9462    0.0000 N   0  0  0  0  0  0  0  0  0  0  0  0
    7.2990   -1.4462    0.0000 C   0  0  0  0  0  0  0  0  0  0  0  0
    8.7990   -1.4462    0.0000 C   0  0  0  0  0  0  0  0  0  0  0  0
   10.2990   -1.4462    0.0000 C   0  0  0  0  0  0  0  0  0  0  0  0
   11.7990   -1.4462    0.0000 C   0  0  0  0  0  0  0  0  0  0  0  0
   13.2990   -1.4462    0.0000 C   0  0  0  0  0  0  0  0  0  0  0  0
   14.7990   -1.4462    0.0000 N   0  0  0  0  0  0  0  0  0  0  0  0
   15.5490   -0.1471    0.0000 C   0  0  0  0  0  0  0  0  0  0  0  0
   14.7990    1.1519    0.0000 O   0  0  0  0  0  0  0  0  0  0  0  0
   17.0490   -0.1471    0.0000 C   0  0  0  0  0  0  0  0  0  0  0  0
   17.7990   -1.4462    0.0000 C   0  0  0  0  0  0  0  0  0  0  0  0
   19.2990   -1.4462    0.0000 C   0  0  0  0  0  0  0  0  0  0  0  0
   20.0490   -0.1471    0.0000 C   0  0  0  0  0  0  0  0  0  0  0  0
   19.2990    1.1519    0.0000 C   0  0  0  0  0  0  0  0  0  0  0  0
   17.7990    1.1519    0.0000 C   0  0  0  0  0  0  0  0  0  0  0  0
   21.5490   -0.1471    0.0000 N   0  0  0  0  0  0  0  0  0  0  0  0
   22.2990    1.1519    0.0000 O   0  0  0  0  0  0  0  0  0  0  0  0
   22.2990   -1.4462    0.0000 O   0  0  0  0  0  0  0  0  0  0  0  0
    5.7990   -1.4462    0.0000 C   0  0  0  0  0  0  0  0  0  0  0  0
    5.4005   -2.1365    0.0000 O   0  0  0  0  0  0  0  0  0  0  0  0
    5.0490   -0.1471    0.0000 N   0  0  0  0  0  0  0  0  0  0  0  0
    3.5490   -0.1471    0.0000 C   0  0  0  0  0  0  0  0  0  0  0  0
    3.5490   -1.6471    0.0000 C   0  0  0  0  0  0  0  0  0  0  0  0
    4.4960   -2.1939    0.0000 O   0  0  0  0  0  0  0  0  0  0  0  0
    2.2500   -2.3971    0.0000 N   0  0  0  0  0  0  0  0  0  0  0  0
    2.2500   -3.8971    0.0000 C   0  0  0  0  0  0  0  0  0  0  0  0
    0.9510   -4.6471    0.0000 C   0  0  0  0  0  0  0  0  0  0  0  0
    0.9510   -6.1471    0.0000 C   0  0  0  0  0  0  0  0  0  0  0  0
    2.2500   -6.8971    0.0000 C   0  0  0  0  0  0  0  0  0  0  0  0
    3.5490   -6.1471    0.0000 C   0  0  0  0  0  0  0  0  0  0  0  0
    3.5490   -4.6471    0.0000 C   0  0  0  0  0  0  0  0  0  0  0  0
    3.5490    1.3529    0.0000 C   0  0  0  0  0  0  0  0  0  0  0  0
    3.5490    2.8529    0.0000 C   0  0  0  0  0  0  0  0  0  0  0  0
    2.0490    1.3529    0.0000 C   0  0  0  0  0  0  0  0  0  0  0  0
    8.9888   -8.3790    0.0000 H   0  0  0  0  0  0  0  0  0  0  0  0
    7.5000   -9.6962    0.0000 H   0  0  0  0  0  0  0  0  0  0  0  0
    7.3172   -6.7073    0.0000 H   0  0  0  0  0  0  0  0  0  0  0  0
    6.0000   -9.6962    0.0000 H   0  0  0  0  0  0  0  0  0  0  0  0
    3.0112   -8.3790    0.0000 H   0  0  0  0  0  0  0  0  0  0  0  0
    4.5000   -9.6962    0.0000 H   0  0  0  0  0  0  0  0  0  0  0  0
    4.5000   -6.6962    0.0000 H   0  0  0  0  0  0  0  0  0  0  0  0
    4.5000   -6.6962    0.0000 H   0  0  0  0  0  0  0  0  0  0  0  0
    7.4888   -6.8790    0.0000 H   0  0  0  0  0  0  0  0  0  0  0  0
    4.5000   -5.1962    0.0000 H   0  0  0  0  0  0  0  0  0  0  0  0
    8.4028   -3.9982    0.0000 H   0  0  0  0  0  0  0  0  0  0  0  0
   11.7990   -7.0442    0.0000 H   0  0  0  0  0  0  0  0  0  0  0  0
    9.3021   -8.6970    0.0000 H   0  0  0  0  0  0  0  0  0  0  0  0
    9.0000  -10.3923    0.0000 H   0  0  0  0  0  0  0  0  0  0  0  0
   10.5000  -12.9904    0.0000 H   0  0  0  0  0  0  0  0  0  0  0  0
   15.0000  -10.3923    0.0000 H   0  0  0  0  0  0  0  0  0  0  0  0
   13.5000   -7.7942    0.0000 H   0  0  0  0  0  0  0  0  0  0  0  0
   11.2500  -14.2894    0.0000 H   0  0  0  0  0  0  0  0  0  0  0  0
   12.7500  -16.8875    0.0000 H   0  0  0  0  0  0  0  0  0  0  0  0
   15.7500  -16.8875    0.0000 H   0  0  0  0  0  0  0  0  0  0  0  0
   17.2500  -14.2894    0.0000 H   0  0  0  0  0  0  0  0  0  0  0  0
   15.7500  -11.6913    0.0000 H   0  0  0  0  0  0  0  0  0  0  0  0
    8.5981   -3.6962    0.0000 H   0  0  0  0  0  0  0  0  0  0  0  0
    7.2990    0.0538    0.0000 H   0  0  0  0  0  0  0  0  0  0  0  0
    8.7990    0.0538    0.0000 H   0  0  0  0  0  0  0  0  0  0  0  0
    8.9819   -2.9350    0.0000 H   0  0  0  0  0  0  0  0  0  0  0  0
   10.2990   -2.9462    0.0000 H   0  0  0  0  0  0  0  0  0  0  0  0
   10.2990    0.0538    0.0000 H   0  0  0  0  0  0  0  0  0  0  0  0
   11.7990    0.0538    0.0000 H   0  0  0  0  0  0  0  0  0  0  0  0
   11.7990   -2.9462    0.0000 H   0  0  0  0  0  0  0  0  0  0  0  0
   13.2990   -2.9462    0.0000 H   0  0  0  0  0  0  0  0  0  0  0  0
   13.2990    0.0538    0.0000 H   0  0  0  0  0  0  0  0  0  0  0  0
   15.5490   -2.7452    0.0000 H   0  0  0  0  0  0  0  0  0  0  0  0
   17.0490   -2.7452    0.0000 H   0  0  0  0  0  0  0  0  0  0  0  0
   20.0490   -2.7452    0.0000 H   0  0  0  0  0  0  0  0  0  0  0  0
   20.0490    2.4510    0.0000 H   0  0  0  0  0  0  0  0  0  0  0  0
   17.0490    2.4510    0.0000 H   0  0  0  0  0  0  0  0  0  0  0  0
    5.9518    1.0508    0.0000 H   0  0  0  0  0  0  0  0  0  0  0  0
    2.0602   -0.3300    0.0000 H   0  0  0  0  0  0  0  0  0  0  0  0
    0.9510   -1.6471    0.0000 H   0  0  0  0  0  0  0  0  0  0  0  0
   -0.3481   -3.8971    0.0000 H   0  0  0  0  0  0  0  0  0  0  0  0
   -0.3481   -6.8971    0.0000 H   0  0  0  0  0  0  0  0  0  0  0  0
    2.0672   -8.3859    0.0000 H   0  0  0  0  0  0  0  0  0  0  0  0
    4.8481   -6.8971    0.0000 H   0  0  0  0  0  0  0  0  0  0  0  0
    4.8481   -3.8971    0.0000 H   0  0  0  0  0  0  0  0  0  0  0  0
    5.0379    1.5357    0.0000 H   0  0  0  0  0  0  0  0  0  0  0  0
    3.5490    4.3529    0.0000 H   0  0  0  0  0  0  0  0  0  0  0  0
    5.0490    2.8529    0.0000 H   0  0  0  0  0  0  0  0  0  0  0  0
    2.0602    3.0357    0.0000 H   0  0  0  0  0  0  0  0  0  0  0  0
    0.5490    1.3529    0.0000 H   0  0  0  0  0  0  0  0  0  0  0  0
    1.8662    2.8417    0.0000 H   0  0  0  0  0  0  0  0  0  0  0  0
    1.8662   -0.1359    0.0000 H   0  0  0  0  0  0  0  0  0  0  0  0
  1  2  1  0
  2  3  1  0
  2  4  1  0
  4  5  1  0
  5  6  1  0
  6  7  1  0
  7  8  2  0
  7  9  1  0
  9 10  1  0
 10 11  1  0
 11 12  2  0
 12 13  1  0
 13 14  2  0
 14 15  1  0
 15 16  2  0
 14 17  1  0
 17 18  2  0
 18 19  1  0
 19 20  2  0
 20 21  1  0
 21 22  2  0
  5 23  1  0
 23 24  2  0
 23 25  1  0
 25 26  1  0
 26 27  1  0
 27 28  1  0
 28 29  1  0
 29 30  1  0
 30 31  1  0
 31 32  1  0
 32 33  2  0
 32 34  1  0
 34 35  2  0
 35 36  1  0
 36 37  2  0
 37 38  1  0
 38 39  2  0
 37 40  1  0
 40 41  1  0
 40 42  2  0
 26 43  1  0
 43 44  2  0
 43 45  1  0
 45 46  1  0
 46 47  1  0
 47 48  2  0
 47 49  1  0
 49 50  1  0
 50 51  2  0
 51 52  1  0
 52 53  2  0
 53 54  1  0
 54 55  2  0
 46 56  1  0
 56 57  1  0
 56 58  1  0
 16 11  1  0
 22 17  1  0
 39 34  1  0
 55 50  1  0
  1 59  1  0
  1 60  1  0
  1 61  1  0
  2 62  1  0
  3 63  1  0
  3 64  1  0
  3 65  1  0
  4 66  1  0
  4 67  1  0
  5 68  1  6
  6 69  1  0
 10 70  1  0
 10 71  1  0
 12 72  1  0
 13 73  1  0
 15 74  1  0
 16 75  1  0
 18 76  1  0
 19 77  1  0
 20 78  1  0
 21 79  1  0
 22 80  1  0
 25 81  1  0
 26 82  1  1
 27 83  1  0
 27 84  1  0
 28 85  1  0
 28 86  1  0
 29 87  1  0
 29 88  1  0
 30 89  1  0
 30 90  1  0
 31 91  1  0
 35 92  1  0
 36 93  1  0
 38 94  1  0
 39 95  1  0
 45 96  1  0
 46 97  1  6
 49 98  1  0
 51 99  1  0
 52100  1  0
 53101  1  0
 54102  1  0
 55103  1  0
 56104  1  0
 57105  1  0
 57106  1  0
 57107  1  0
 58108  1  0
 58109  1  0
 58110  1  0
M  CHG  2  40   1  41  -1
M  END
$$$$
[H]c1nc2c([H])c([H])c([H])c([H])c2c(C(=O)N([H])c2c([H])c3c(c([H])c2Cl)OC([H])([H])C([H])([H])O3)c1[H]
     RDKit          3D

 37 40  0  0  0  0  0  0  0  0999 V2000
    0.3921    2.5225   -1.8654 Cl  0  0  0  0  0  0  0  0  0  0  0  0
    1.5873    1.5004   -1.0964 C   0  0  0  0  0  0  0  0  0  0  0  0
    2.9106    1.5921   -1.4610 C   0  0  0  0  0  0  0  0  0  0  0  0
    3.8560    0.7990   -0.8648 C   0  0  0  0  0  0  0  0  0  0  0  0
    5.2051    0.8442   -1.1892 O   0  0  0  0  0  0  0  0  0  0  0  0
    6.2073    0.0592   -0.5835 C   0  0  0  0  0  0  0  0  0  0  0  0
    5.5775   -1.2341   -0.1107 C   0  0  0  0  0  0  0  0  0  0  0  0
    4.4351   -0.8752    0.6860 O   0  0  0  0  0  0  0  0  0  0  0  0
    3.4612   -0.0862    0.1001 C   0  0  0  0  0  0  0  0  0  0  0  0
    2.1143   -0.1666    0.4582 C   0  0  0  0  0  0  0  0  0  0  0  0
    1.1280    0.6063   -0.1102 C   0  0  0  0  0  0  0  0  0  0  0  0
   -0.2426    0.5525    0.1877 N   0  0  0  0  0  0  0  0  0  0  0  0
   -0.9145   -0.2069    1.1573 C   0  0  0  0  0  0  0  0  0  0  0  0
   -0.2917   -0.9839    1.9611 O   0  0  0  0  0  0  0  0  0  0  0  0
   -2.3509   -0.1955    1.3630 C   0  0  0  0  0  0  0  0  0  0  0  0
   -2.8246    0.0151    2.6656 C   0  0  0  0  0  0  0  0  0  0  0  0
   -4.1827    0.1311    2.8986 C   0  0  0  0  0  0  0  0  0  0  0  0
   -5.0776    0.0469    1.9023 N   0  0  0  0  0  0  0  0  0  0  0  0
   -4.6556   -0.1559    0.6491 C   0  0  0  0  0  0  0  0  0  0  0  0
   -5.6249   -0.2629   -0.3299 C   0  0  0  0  0  0  0  0  0  0  0  0
   -5.1976   -0.5029   -1.6110 C   0  0  0  0  0  0  0  0  0  0  0  0
   -3.8699   -0.6332   -1.9199 C   0  0  0  0  0  0  0  0  0  0  0  0
   -2.9237   -0.5223   -0.9318 C   0  0  0  0  0  0  0  0  0  0  0  0
   -3.2849   -0.2806    0.3650 C   0  0  0  0  0  0  0  0  0  0  0  0
    3.2322    2.2871   -2.2226 H   0  0  0  0  0  0  0  0  0  0  0  0
    7.0011   -0.2200   -1.3122 H   0  0  0  0  0  0  0  0  0  0  0  0
    6.6200    0.5987    0.2887 H   0  0  0  0  0  0  0  0  0  0  0  0
    6.2434   -1.8954    0.4360 H   0  0  0  0  0  0  0  0  0  0  0  0
    5.2230   -1.7777   -1.0089 H   0  0  0  0  0  0  0  0  0  0  0  0
    1.8533   -0.8754    1.2165 H   0  0  0  0  0  0  0  0  0  0  0  0
   -0.8738    1.1995   -0.3806 H   0  0  0  0  0  0  0  0  0  0  0  0
   -2.1196    0.0863    3.4853 H   0  0  0  0  0  0  0  0  0  0  0  0
   -4.5903    0.2965    3.9057 H   0  0  0  0  0  0  0  0  0  0  0  0
   -6.6853   -0.1709   -0.1559 H   0  0  0  0  0  0  0  0  0  0  0  0
   -5.9070   -0.6016   -2.4479 H   0  0  0  0  0  0  0  0  0  0  0  0
   -3.5518   -0.8276   -2.9620 H   0  0  0  0  0  0  0  0  0  0  0  0
   -1.8784   -0.6625   -1.1623 H   0  0  0  0  0  0  0  0  0  0  0  0
  1  2  1  0
  2  3  2  0
  3  4  1  0
  4  5  1  0
  5  6  1  0
  6  7  1  0
  7  8  1  0
  8  9  1  0
  9 10  1  0
 10 11  2  0
 11 12  1  0
 12 13  1  0
 13 14  2  0
 13 15  1  0
 15 16  2  0
 16 17  1  0
 17 18  2  0
 18 19  1  0
 19 20  2  0
 20 21  1  0
 21 22  2  0
 22 23  1  0
 23 24  2  0
 11  2  1  0
 24 15  1  0
  9  4  2  0
 24 19  1  0
  3 25  1  0
  6 26  1  0
  6 27  1  0
  7 28  1  0
  7 29  1  0
 10 30  1  0
 12 31  1  0
 16 32  1  0
 17 33  1  0
 20 34  1  0
 21 35  1  0
 22 36  1  0
 23 37  1  0
M  END
$$$$
[H]c1nc(N([H])c2c([H])c([H])c([H])c(N([H])S(=O)(=O)C([H])([H])[H])c2[H])nc(-c2c([H])nc([H])c([H])c2[H])c1[H]
     RDKit          3D

 39 41  0  0  0  0  0  0  0  0999 V2000
    7.0191    0.5175    0.0998 C   0  0  0  0  0  0  0  0  0  0  0  0
    5.8341    1.8054   -0.0120 S   0  0  0  0  0  0  0  0  0  0  0  0
    5.3884    2.1259    1.3948 O   0  0  0  0  0  0  0  0  0  0  0  0
    6.5679    3.0483   -0.5038 O   0  0  0  0  0  0  0  0  0  0  0  0
    4.4943    1.4994   -0.9943 N   0  0  0  0  0  0  0  0  0  0  0  0
    3.5730    0.4653   -0.7560 C   0  0  0  0  0  0  0  0  0  0  0  0
    4.0125   -0.8091   -0.5094 C   0  0  0  0  0  0  0  0  0  0  0  0
    3.0635   -1.7812   -0.2963 C   0  0  0  0  0  0  0  0  0  0  0  0
    1.6997   -1.5531   -0.3157 C   0  0  0  0  0  0  0  0  0  0  0  0
    1.2521   -0.2864   -0.5600 C   0  0  0  0  0  0  0  0  0  0  0  0
   -0.1010    0.0990   -0.5832 N   0  0  0  0  0  0  0  0  0  0  0  0
   -1.1579   -0.5680    0.0698 C   0  0  0  0  0  0  0  0  0  0  0  0
   -1.0346   -1.6667    0.8294 N   0  0  0  0  0  0  0  0  0  0  0  0
   -2.0993   -2.2262    1.4068 C   0  0  0  0  0  0  0  0  0  0  0  0
   -3.3654   -1.6563    1.2159 C   0  0  0  0  0  0  0  0  0  0  0  0
   -3.5165   -0.5356    0.4453 C   0  0  0  0  0  0  0  0  0  0  0  0
   -2.4116   -0.0179   -0.1092 N   0  0  0  0  0  0  0  0  0  0  0  0
   -4.8079    0.0854    0.2224 C   0  0  0  0  0  0  0  0  0  0  0  0
   -5.9952   -0.3667    0.7441 C   0  0  0  0  0  0  0  0  0  0  0  0
   -7.2060    0.2864    0.4848 C   0  0  0  0  0  0  0  0  0  0  0  0
   -7.2359    1.4112   -0.3091 C   0  0  0  0  0  0  0  0  0  0  0  0
   -6.0650    1.8387   -0.8105 N   0  0  0  0  0  0  0  0  0  0  0  0
   -4.8906    1.2315   -0.5777 C   0  0  0  0  0  0  0  0  0  0  0  0
    2.2037    0.7201   -0.7803 C   0  0  0  0  0  0  0  0  0  0  0  0
    7.2031   -0.0122   -0.8611 H   0  0  0  0  0  0  0  0  0  0  0  0
    8.0061    0.9728    0.3718 H   0  0  0  0  0  0  0  0  0  0  0  0
    6.8099   -0.2031    0.9360 H   0  0  0  0  0  0  0  0  0  0  0  0
    4.3159    2.1067   -1.8442 H   0  0  0  0  0  0  0  0  0  0  0  0
    5.0855   -1.0745   -0.4850 H   0  0  0  0  0  0  0  0  0  0  0  0
    3.4039   -2.7889   -0.1010 H   0  0  0  0  0  0  0  0  0  0  0  0
    1.0103   -2.4000   -0.1526 H   0  0  0  0  0  0  0  0  0  0  0  0
   -0.3637    0.9808   -1.1507 H   0  0  0  0  0  0  0  0  0  0  0  0
   -2.0532   -3.1110    2.0276 H   0  0  0  0  0  0  0  0  0  0  0  0
   -4.2356   -2.0954    1.6750 H   0  0  0  0  0  0  0  0  0  0  0  0
   -6.0117   -1.2379    1.3657 H   0  0  0  0  0  0  0  0  0  0  0  0
   -8.1375   -0.0738    0.8980 H   0  0  0  0  0  0  0  0  0  0  0  0
   -8.1646    1.9303   -0.5209 H   0  0  0  0  0  0  0  0  0  0  0  0
   -3.9498    1.6068   -1.0032 H   0  0  0  0  0  0  0  0  0  0  0  0
    1.8599    1.7324   -0.9766 H   0  0  0  0  0  0  0  0  0  0  0  0
  1  2  1  0
  2  3  2  0
  2  4  2  0
  2  5  1  0
  5  6  1  0
  6  7  2  0
  7  8  1  0
  8  9  2  0
  9 10  1  0
 10 11  1  0
 11 12  1  0
 12 13  2  0
 13 14  1  0
 14 15  2  0
 15 16  1  0
 16 17  2  0
 16 18  1  0
 18 19  2  0
 19 20  1  0
 20 21  2  0
 21 22  1  0
 22 23  2  0
 10 24  2  0
 24  6  1  0
 17 12  1  0
 23 18  1  0
  1 25  1  0
  1 26  1  0
  1 27  1  0
  5 28  1  0
  7 29  1  0
  8 30  1  0
  9 31  1  0
 11 32  1  0
 14 33  1  0
 15 34  1  0
 19 35  1  0
 20 36  1  0
 21 37  1  0
 23 38  1  0
 24 39  1  0
M  END
$$$$
