[H]C1=C([H])[C@@]([H])(N([H])C(=O)c2c([H])c([H])c([H])c([H])c2[H])C([H])([H])C([H])([H])C([H])([H])N(c2c([H])c([H])c([H])c(C(C(=O)OC([H])([H])[H])(C([H])([H])[H])C([H])([H])[H])c2[H])C([H])([H])C([H])([H])OC([H])([H])C([H])([H])N1c1c([H])c([H])c([H])c([H])c1[H]
     RDKit          3D

 82 85  0  0  0  0  0  0  0  0999 V2000
   -2.1464    1.9975   -2.5081 O   0  0  0  0  0  0  0  0  0  0  0  0
   -2.8130    2.4327   -1.5410 C   0  0  0  0  0  0  0  0  0  0  0  0
   -3.3002    1.5648   -0.5749 N   0  0  0  0  0  0  0  0  0  0  0  0
   -3.0886    0.0976   -0.5842 C   0  0  1  0  0  0  0  0  0  0  0  0
   -2.4566   -0.1841    0.7672 C   0  0  0  0  0  0  0  0  0  0  0  0
   -1.2411    0.6774    0.9164 C   0  0  0  0  0  0  0  0  0  0  0  0
   -0.0899   -0.0419    1.5614 C   0  0  0  0  0  0  0  0  0  0  0  0
    1.0384   -0.1351    0.6325 N   0  0  0  0  0  0  0  0  0  0  0  0
    0.9481   -0.9435   -0.5490 C   0  0  0  0  0  0  0  0  0  0  0  0
    0.5676   -2.3744   -0.3130 C   0  0  0  0  0  0  0  0  0  0  0  0
   -0.2891   -2.7491   -1.3723 O   0  0  0  0  0  0  0  0  0  0  0  0
   -1.3491   -3.5485   -0.9069 C   0  0  0  0  0  0  0  0  0  0  0  0
   -2.6212   -3.1779   -1.6299 C   0  0  0  0  0  0  0  0  0  0  0  0
   -3.7209   -3.0006   -0.6914 N   0  0  0  0  0  0  0  0  0  0  0  0
   -4.5939   -1.9012   -0.6553 C   0  0  0  0  0  0  0  0  0  0  0  0
   -4.3871   -0.6155   -0.6115 C   0  0  0  0  0  0  0  0  0  0  0  0
   -3.8658   -4.1105    0.2090 C   0  0  0  0  0  0  0  0  0  0  0  0
   -4.3863   -3.9520    1.4875 C   0  0  0  0  0  0  0  0  0  0  0  0
   -4.5526   -5.0134    2.3536 C   0  0  0  0  0  0  0  0  0  0  0  0
   -4.2086   -6.2853    1.9890 C   0  0  0  0  0  0  0  0  0  0  0  0
   -3.6909   -6.4870    0.7360 C   0  0  0  0  0  0  0  0  0  0  0  0
   -3.5284   -5.3988   -0.1319 C   0  0  0  0  0  0  0  0  0  0  0  0
    2.2298    0.6052    0.8842 C   0  0  0  0  0  0  0  0  0  0  0  0
    2.2155    1.7818    1.6189 C   0  0  0  0  0  0  0  0  0  0  0  0
    3.3517    2.5139    1.8915 C   0  0  0  0  0  0  0  0  0  0  0  0
    4.5601    2.0678    1.4180 C   0  0  0  0  0  0  0  0  0  0  0  0
    4.6454    0.8965    0.6742 C   0  0  0  0  0  0  0  0  0  0  0  0
    3.4788    0.2016    0.4306 C   0  0  0  0  0  0  0  0  0  0  0  0
    5.9705    0.4306    0.1719 C   0  0  0  0  0  0  0  0  0  0  0  0
    6.8011   -0.2076    1.2507 C   0  0  0  0  0  0  0  0  0  0  0  0
    5.7823   -0.5919   -0.9365 C   0  0  0  0  0  0  0  0  0  0  0  0
    6.7288    1.5636   -0.4014 C   0  0  0  0  0  0  0  0  0  0  0  0
    7.8523    1.9358    0.0392 O   0  0  0  0  0  0  0  0  0  0  0  0
    6.1854    2.2534   -1.4725 O   0  0  0  0  0  0  0  0  0  0  0  0
    6.9341    3.3488   -2.0159 C   0  0  0  0  0  0  0  0  0  0  0  0
   -3.0622    3.8613   -1.4542 C   0  0  0  0  0  0  0  0  0  0  0  0
   -3.7125    4.4856   -0.4346 C   0  0  0  0  0  0  0  0  0  0  0  0
   -3.9288    5.8397   -0.3879 C   0  0  0  0  0  0  0  0  0  0  0  0
   -3.4584    6.6280   -1.4443 C   0  0  0  0  0  0  0  0  0  0  0  0
   -2.7986    6.0459   -2.4931 C   0  0  0  0  0  0  0  0  0  0  0  0
   -2.6066    4.6923   -2.4941 C   0  0  0  0  0  0  0  0  0  0  0  0
   -3.8540    1.9029    0.2296 H   0  0  0  0  0  0  0  0  0  0  0  0
   -2.4429   -0.0646   -1.4391 H   0  0  0  0  0  0  0  0  0  0  0  0
   -3.1923    0.1592    1.5560 H   0  0  0  0  0  0  0  0  0  0  0  0
   -2.2982   -1.2437    0.9808 H   0  0  0  0  0  0  0  0  0  0  0  0
   -0.9145    0.9836   -0.1122 H   0  0  0  0  0  0  0  0  0  0  0  0
   -1.4758    1.6340    1.4343 H   0  0  0  0  0  0  0  0  0  0  0  0
   -0.3827   -1.0694    1.9244 H   0  0  0  0  0  0  0  0  0  0  0  0
    0.2130    0.5001    2.4675 H   0  0  0  0  0  0  0  0  0  0  0  0
    1.8930   -0.9283   -1.1202 H   0  0  0  0  0  0  0  0  0  0  0  0
    0.2058   -0.4461   -1.2330 H   0  0  0  0  0  0  0  0  0  0  0  0
    1.4708   -3.0276   -0.3622 H   0  0  0  0  0  0  0  0  0  0  0  0
    0.0366   -2.5734    0.6165 H   0  0  0  0  0  0  0  0  0  0  0  0
   -1.0087   -4.5934   -1.1031 H   0  0  0  0  0  0  0  0  0  0  0  0
   -1.4399   -3.4017    0.1914 H   0  0  0  0  0  0  0  0  0  0  0  0
   -2.9019   -4.0305   -2.2900 H   0  0  0  0  0  0  0  0  0  0  0  0
   -2.4087   -2.2655   -2.2203 H   0  0  0  0  0  0  0  0  0  0  0  0
   -5.6720   -2.1828   -0.6614 H   0  0  0  0  0  0  0  0  0  0  0  0
   -5.2613    0.0830   -0.5904 H   0  0  0  0  0  0  0  0  0  0  0  0
   -4.6592   -2.9375    1.7774 H   0  0  0  0  0  0  0  0  0  0  0  0
   -4.9573   -4.8709    3.3405 H   0  0  0  0  0  0  0  0  0  0  0  0
   -4.3332   -7.1210    2.6559 H   0  0  0  0  0  0  0  0  0  0  0  0
   -3.4138   -7.4855    0.4301 H   0  0  0  0  0  0  0  0  0  0  0  0
   -3.1261   -5.6039   -1.1168 H   0  0  0  0  0  0  0  0  0  0  0  0
    1.2498    2.1427    1.9922 H   0  0  0  0  0  0  0  0  0  0  0  0
    3.2882    3.4223    2.4673 H   0  0  0  0  0  0  0  0  0  0  0  0
    5.4837    2.6225    1.6132 H   0  0  0  0  0  0  0  0  0  0  0  0
    3.5820   -0.7147   -0.1461 H   0  0  0  0  0  0  0  0  0  0  0  0
    7.4963   -0.9222    0.7517 H   0  0  0  0  0  0  0  0  0  0  0  0
    7.4394    0.5405    1.7524 H   0  0  0  0  0  0  0  0  0  0  0  0
    6.1504   -0.7515    1.9766 H   0  0  0  0  0  0  0  0  0  0  0  0
    5.4522   -1.5480   -0.4932 H   0  0  0  0  0  0  0  0  0  0  0  0
    4.9577   -0.2200   -1.5817 H   0  0  0  0  0  0  0  0  0  0  0  0
    6.7232   -0.6703   -1.5158 H   0  0  0  0  0  0  0  0  0  0  0  0
    7.8746    2.8833   -2.3998 H   0  0  0  0  0  0  0  0  0  0  0  0
    6.3689    3.7433   -2.8618 H   0  0  0  0  0  0  0  0  0  0  0  0
    7.1369    4.0948   -1.2202 H   0  0  0  0  0  0  0  0  0  0  0  0
   -4.0800    3.8646    0.3951 H   0  0  0  0  0  0  0  0  0  0  0  0
   -4.4462    6.3438    0.4250 H   0  0  0  0  0  0  0  0  0  0  0  0
   -3.6314    7.6853   -1.4009 H   0  0  0  0  0  0  0  0  0  0  0  0
   -2.4363    6.6374   -3.3035 H   0  0  0  0  0  0  0  0  0  0  0  0
   -2.0794    4.2259   -3.3305 H   0  0  0  0  0  0  0  0  0  0  0  0
  1  2  2  0
  2  3  1  0
  3  4  1  0
  4  5  1  0
  5  6  1  0
  6  7  1  0
  7  8  1  0
  8  9  1  0
  9 10  1  0
 10 11  1  0
 11 12  1  0
 12 13  1  0
 13 14  1  0
 14 15  1  0
 15 16  2  0
 14 17  1  0
 17 18  2  0
 18 19  1  0
 19 20  2  0
 20 21  1  0
 21 22  2  0
  8 23  1  0
 23 24  2  0
 24 25  1  0
 25 26  2  0
 26 27  1  0
 27 28  2  0
 27 29  1  0
 29 30  1  0
 29 31  1  0
 29 32  1  0
 32 33  2  0
 32 34  1  0
 34 35  1  0
  2 36  1  0
 36 37  2  0
 37 38  1  0
 38 39  2  0
 39 40  1  0
 40 41  2  0
 16  4  1  0
 22 17  1  0
 28 23  1  0
 41 36  1  0
  3 42  1  0
  4 43  1  6
  5 44  1  0
  5 45  1  0
  6 46  1  0
  6 47  1  0
  7 48  1  0
  7 49  1  0
  9 50  1  0
  9 51  1  0
 10 52  1  0
 10 53  1  0
 12 54  1  0
 12 55  1  0
 13 56  1  0
 13 57  1  0
 15 58  1  0
 16 59  1  0
 18 60  1  0
 19 61  1  0
 20 62  1  0
 21 63  1  0
 22 64  1  0
 24 65  1  0
 25 66  1  0
 26 67  1  0
 28 68  1  0
 30 69  1  0
 30 70  1  0
 30 71  1  0
 31 72  1  0
 31 73  1  0
 31 74  1  0
 35 75  1  0
 35 76  1  0
 35 77  1  0
 37 78  1  0
 38 79  1  0
 39 80  1  0
 40 81  1  0
 41 82  1  0
M  END
$$$$
[H]OC([H])([H])[C@@]1([H])O[C@@]([H])(n2c([H])nc3c(N([H])C([H])([H])C4([H])C([H])([H])C4([H])[H])nc([H])nc32)[C@]([H])(O[H])[C@]1([H])O[H]
     RDKit          3D

 42 45  0  0  0  0  0  0  0  0999 V2000
   -6.5929   -1.3072    0.3066 O   0  0  0  0  0  0  0  0  0  0  0  0
   -5.3596   -1.2538    0.9789 C   0  0  0  0  0  0  0  0  0  0  0  0
   -4.5538   -0.1370    0.3514 C   0  0  1  0  0  0  0  0  0  0  0  0
   -3.3138    0.0079    0.9383 O   0  0  0  0  0  0  0  0  0  0  0  0
   -2.4838    0.6356    0.0231 C   0  0  2  0  0  0  0  0  0  0  0  0
   -3.0811    0.5069   -1.3304 C   0  0  2  0  0  0  0  0  0  0  0  0
   -3.6281    1.7015   -1.8044 O   0  0  0  0  0  0  0  0  0  0  0  0
   -4.2279   -0.4522   -1.0930 C   0  0  2  0  0  0  0  0  0  0  0  0
   -5.2993   -0.1779   -1.9379 O   0  0  0  0  0  0  0  0  0  0  0  0
   -1.1789    0.0336    0.0865 N   0  0  0  0  0  0  0  0  0  0  0  0
   -0.8746   -1.2388   -0.2211 C   0  0  0  0  0  0  0  0  0  0  0  0
    0.4484   -1.4651   -0.0477 N   0  0  0  0  0  0  0  0  0  0  0  0
    1.0040   -0.3369    0.3735 C   0  0  0  0  0  0  0  0  0  0  0  0
    2.3344   -0.0361    0.6984 C   0  0  0  0  0  0  0  0  0  0  0  0
    3.3526   -1.0151    0.6094 N   0  0  0  0  0  0  0  0  0  0  0  0
    4.7009   -0.6851    0.9381 C   0  0  0  0  0  0  0  0  0  0  0  0
    5.3477    0.3480    0.0708 C   0  0  0  0  0  0  0  0  0  0  0  0
    6.7918    0.6464    0.4882 C   0  0  0  0  0  0  0  0  0  0  0  0
    6.4872   -0.0709   -0.7943 C   0  0  0  0  0  0  0  0  0  0  0  0
    2.5423    1.2299    1.0963 N   0  0  0  0  0  0  0  0  0  0  0  0
    1.5638    2.1498    1.1823 C   0  0  0  0  0  0  0  0  0  0  0  0
    0.2891    1.8550    0.8691 N   0  0  0  0  0  0  0  0  0  0  0  0
   -0.0070    0.6006    0.4587 C   0  0  0  0  0  0  0  0  0  0  0  0
   -7.0281   -0.4005    0.3106 H   0  0  0  0  0  0  0  0  0  0  0  0
   -4.8788   -2.2344    0.8064 H   0  0  0  0  0  0  0  0  0  0  0  0
   -5.5597   -1.0805    2.0436 H   0  0  0  0  0  0  0  0  0  0  0  0
   -5.1002    0.8185    0.3955 H   0  0  0  0  0  0  0  0  0  0  0  0
   -2.4708    1.7128    0.2928 H   0  0  0  0  0  0  0  0  0  0  0  0
   -2.3860    0.1499   -2.1094 H   0  0  0  0  0  0  0  0  0  0  0  0
   -2.9879    2.4329   -1.8460 H   0  0  0  0  0  0  0  0  0  0  0  0
   -3.8978   -1.5145   -1.1812 H   0  0  0  0  0  0  0  0  0  0  0  0
   -5.7205   -1.0667   -2.1452 H   0  0  0  0  0  0  0  0  0  0  0  0
   -1.6241   -1.9693   -0.5639 H   0  0  0  0  0  0  0  0  0  0  0  0
    3.1038   -1.9755    0.3017 H   0  0  0  0  0  0  0  0  0  0  0  0
    5.3546   -1.5895    1.0452 H   0  0  0  0  0  0  0  0  0  0  0  0
    4.6866   -0.2502    1.9823 H   0  0  0  0  0  0  0  0  0  0  0  0
    4.7808    1.2538   -0.1430 H   0  0  0  0  0  0  0  0  0  0  0  0
    7.2534    0.0666    1.2921 H   0  0  0  0  0  0  0  0  0  0  0  0
    7.1499    1.6966    0.4463 H   0  0  0  0  0  0  0  0  0  0  0  0
    6.5595    0.4443   -1.7658 H   0  0  0  0  0  0  0  0  0  0  0  0
    6.6465   -1.1666   -0.8600 H   0  0  0  0  0  0  0  0  0  0  0  0
    1.8575    3.1333    1.5152 H   0  0  0  0  0  0  0  0  0  0  0  0
  1  2  1  0
  2  3  1  0
  3  4  1  0
  4  5  1  0
  5  6  1  0
  6  7  1  0
  6  8  1  0
  8  9  1  0
  5 10  1  0
 10 11  1  0
 11 12  2  0
 12 13  1  0
 13 14  2  0
 14 15  1  0
 15 16  1  0
 16 17  1  0
 17 18  1  0
 18 19  1  0
 14 20  1  0
 20 21  2  0
 21 22  1  0
 22 23  2  0
  8  3  1  0
 23 10  1  0
 23 13  1  0
 19 17  1  0
  1 24  1  0
  2 25  1  0
  2 26  1  0
  3 27  1  6
  5 28  1  1
  6 29  1  6
  7 30  1  0
  8 31  1  1
  9 32  1  0
 11 33  1  0
 15 34  1  0
 16 35  1  0
 16 36  1  0
 17 37  1  0
 18 38  1  0
 18 39  1  0
 19 40  1  0
 19 41  1  0
 21 42  1  0
M  END
$$$$
[H]c1nc([H])n(C([H])([H])c2c([H])c([H])c(C(=O)N([H])c3sc(N([H])c4c([H])c([H])c5c([H])c([H])c([H])c([H])c5c4[H])nc3C(=O)N([H])[H])c([H])c2[H])n1
     RDKit          3D

 53 57  0  0  0  0  0  0  0  0999 V2000
   -1.9442   -1.5856    1.8448 N   0  0  0  0  0  0  0  0  0  0  0  0
   -0.8509   -0.8043    1.3216 C   0  0  0  0  0  0  0  0  0  0  0  0
    0.2050   -0.9161    1.9317 O   0  0  0  0  0  0  0  0  0  0  0  0
   -1.0527    0.0618    0.1147 C   0  0  0  0  0  0  0  0  0  0  0  0
   -2.2868    0.3745   -0.2023 N   0  0  0  0  0  0  0  0  0  0  0  0
   -2.5734    1.2722   -1.0838 C   0  0  0  0  0  0  0  0  0  0  0  0
   -3.8206    1.7796   -1.5902 N   0  0  0  0  0  0  0  0  0  0  0  0
   -5.0787    1.3670   -1.1954 C   0  0  0  0  0  0  0  0  0  0  0  0
   -6.1720    1.9912   -1.8148 C   0  0  0  0  0  0  0  0  0  0  0  0
   -7.4703    1.6659   -1.5058 C   0  0  0  0  0  0  0  0  0  0  0  0
   -7.7014    0.6771   -0.5392 C   0  0  0  0  0  0  0  0  0  0  0  0
   -8.9982    0.3401   -0.2187 C   0  0  0  0  0  0  0  0  0  0  0  0
   -9.2781   -0.6272    0.7266 C   0  0  0  0  0  0  0  0  0  0  0  0
   -8.2050   -1.2412    1.3358 C   0  0  0  0  0  0  0  0  0  0  0  0
   -6.9003   -0.9220    1.0329 C   0  0  0  0  0  0  0  0  0  0  0  0
   -6.6595    0.0448    0.0878 C   0  0  0  0  0  0  0  0  0  0  0  0
   -5.3521    0.4147   -0.2648 C   0  0  0  0  0  0  0  0  0  0  0  0
   -0.9906    1.7742   -1.5638 S   0  0  0  0  0  0  0  0  0  0  0  0
   -0.0567    0.6981   -0.5119 C   0  0  0  0  0  0  0  0  0  0  0  0
    1.3462    0.5740   -0.6708 N   0  0  0  0  0  0  0  0  0  0  0  0
    2.1986   -0.5122   -0.5619 C   0  0  0  0  0  0  0  0  0  0  0  0
    1.8413   -1.6722   -0.3232 O   0  0  0  0  0  0  0  0  0  0  0  0
    3.6621   -0.3386   -0.7346 C   0  0  0  0  0  0  0  0  0  0  0  0
    4.4257   -1.4366   -1.0357 C   0  0  0  0  0  0  0  0  0  0  0  0
    5.7896   -1.3642   -1.2068 C   0  0  0  0  0  0  0  0  0  0  0  0
    6.4438   -0.1620   -1.0783 C   0  0  0  0  0  0  0  0  0  0  0  0
    7.9051   -0.0637   -1.2581 C   0  0  0  0  0  0  0  0  0  0  0  0
    8.6209   -0.2658   -0.0036 N   0  0  0  0  0  0  0  0  0  0  0  0
    9.0643   -1.4295    0.4959 C   0  0  0  0  0  0  0  0  0  0  0  0
    9.6774   -1.2351    1.6688 N   0  0  0  0  0  0  0  0  0  0  0  0
    9.6139    0.0872    1.9063 C   0  0  0  0  0  0  0  0  0  0  0  0
    8.9711    0.6533    0.8826 N   0  0  0  0  0  0  0  0  0  0  0  0
    5.6708    0.9326   -0.7764 C   0  0  0  0  0  0  0  0  0  0  0  0
    4.2933    0.8647   -0.6026 C   0  0  0  0  0  0  0  0  0  0  0  0
   -1.7918   -2.6034    1.9162 H   0  0  0  0  0  0  0  0  0  0  0  0
   -2.8193   -1.1409    2.1264 H   0  0  0  0  0  0  0  0  0  0  0  0
   -3.7119    2.5363   -2.3306 H   0  0  0  0  0  0  0  0  0  0  0  0
   -6.0171    2.7628   -2.5693 H   0  0  0  0  0  0  0  0  0  0  0  0
   -8.3017    2.1569   -1.9928 H   0  0  0  0  0  0  0  0  0  0  0  0
   -9.7900    0.8713   -0.7447 H   0  0  0  0  0  0  0  0  0  0  0  0
  -10.3092   -0.8645    0.9514 H   0  0  0  0  0  0  0  0  0  0  0  0
   -8.3701   -2.0078    2.0853 H   0  0  0  0  0  0  0  0  0  0  0  0
   -6.0598   -1.4336    1.5401 H   0  0  0  0  0  0  0  0  0  0  0  0
   -4.5961   -0.1248    0.2691 H   0  0  0  0  0  0  0  0  0  0  0  0
    1.8486    1.5116   -0.9243 H   0  0  0  0  0  0  0  0  0  0  0  0
    3.9577   -2.4064   -1.1474 H   0  0  0  0  0  0  0  0  0  0  0  0
    6.3480   -2.2560   -1.4431 H   0  0  0  0  0  0  0  0  0  0  0  0
    8.2775   -0.7819   -2.0314 H   0  0  0  0  0  0  0  0  0  0  0  0
    8.1657    0.9641   -1.6127 H   0  0  0  0  0  0  0  0  0  0  0  0
    8.9388   -2.3904    0.0095 H   0  0  0  0  0  0  0  0  0  0  0  0
   10.0277    0.5578    2.7886 H   0  0  0  0  0  0  0  0  0  0  0  0
    6.1305    1.8961   -0.6647 H   0  0  0  0  0  0  0  0  0  0  0  0
    3.7349    1.7562   -0.3619 H   0  0  0  0  0  0  0  0  0  0  0  0
  1  2  1  0
  2  3  2  0
  2  4  1  0
  4  5  1  0
  5  6  2  0
  6  7  1  0
  7  8  1  0
  8  9  2  0
  9 10  1  0
 10 11  2  0
 11 12  1  0
 12 13  2  0
 13 14  1  0
 14 15  2  0
 15 16  1  0
 16 17  2  0
  6 18  1  0
 18 19  1  0
 19 20  1  0
 20 21  1  0
 21 22  2  0
 21 23  1  0
 23 24  2  0
 24 25  1  0
 25 26  2  0
 26 27  1  0
 27 28  1  0
 28 29  1  0
 29 30  2  0
 30 31  1  0
 31 32  2  0
 26 33  1  0
 33 34  2  0
 19  4  2  0
 34 23  1  0
 17  8  1  0
 32 28  1  0
 16 11  1  0
  1 35  1  0
  1 36  1  0
  7 37  1  0
  9 38  1  0
 10 39  1  0
 12 40  1  0
 13 41  1  0
 14 42  1  0
 15 43  1  0
 17 44  1  0
 20 45  1  0
 24 46  1  0
 25 47  1  0
 27 48  1  0
 27 49  1  0
 29 50  1  0
 31 51  1  0
 33 52  1  0
 34 53  1  0
M  END
$$$$
[H]c1c([H])c(C(=O)N([H])c2c([H])c([H])c3c(c2[H])c(C([H])([H])C([H])([H])N(C([H])([H])[H])C([H])([H])[H])c([H])n3[H])c([H])c([H])c1F
     RDKit          3D

 44 46  0  0  0  0  0  0  0  0999 V2000
   -4.2032    1.9977   -1.7503 C   0  0  0  0  0  0  0  0  0  0  0  0
   -4.1258    1.1553   -0.5709 N   0  0  0  0  0  0  0  0  0  0  0  0
   -5.3984    1.3577    0.1399 C   0  0  0  0  0  0  0  0  0  0  0  0
   -3.0590    1.6098    0.2759 C   0  0  0  0  0  0  0  0  0  0  0  0
   -2.9023    0.7904    1.5278 C   0  0  0  0  0  0  0  0  0  0  0  0
   -2.6147   -0.6204    1.2868 C   0  0  0  0  0  0  0  0  0  0  0  0
   -3.4693   -1.6861    1.3953 C   0  0  0  0  0  0  0  0  0  0  0  0
   -2.7695   -2.7866    1.0774 N   0  0  0  0  0  0  0  0  0  0  0  0
   -1.4917   -2.4514    0.7691 C   0  0  0  0  0  0  0  0  0  0  0  0
   -0.3958   -3.1830    0.3862 C   0  0  0  0  0  0  0  0  0  0  0  0
    0.8318   -2.5489    0.1262 C   0  0  0  0  0  0  0  0  0  0  0  0
    1.0004   -1.2000    0.2379 C   0  0  0  0  0  0  0  0  0  0  0  0
    2.1963   -0.4823    0.0130 N   0  0  0  0  0  0  0  0  0  0  0  0
    3.4543   -1.0385   -0.1248 C   0  0  0  0  0  0  0  0  0  0  0  0
    3.6759   -2.2636   -0.0575 O   0  0  0  0  0  0  0  0  0  0  0  0
    4.6403   -0.1916   -0.3657 C   0  0  0  0  0  0  0  0  0  0  0  0
    4.5563    1.1114   -0.7876 C   0  0  0  0  0  0  0  0  0  0  0  0
    5.7333    1.8460   -0.9819 C   0  0  0  0  0  0  0  0  0  0  0  0
    6.9763    1.3030   -0.7632 C   0  0  0  0  0  0  0  0  0  0  0  0
    8.1382    1.9697   -0.9361 F   0  0  0  0  0  0  0  0  0  0  0  0
    7.0420   -0.0016   -0.3416 C   0  0  0  0  0  0  0  0  0  0  0  0
    5.8915   -0.7407   -0.1449 C   0  0  0  0  0  0  0  0  0  0  0  0
   -0.1549   -0.4906    0.6339 C   0  0  0  0  0  0  0  0  0  0  0  0
   -1.3610   -1.0891    0.8917 C   0  0  0  0  0  0  0  0  0  0  0  0
   -3.5127    1.6856   -2.5490 H   0  0  0  0  0  0  0  0  0  0  0  0
   -5.2476    1.9470   -2.1213 H   0  0  0  0  0  0  0  0  0  0  0  0
   -4.0412    3.0647   -1.4465 H   0  0  0  0  0  0  0  0  0  0  0  0
   -5.6991    0.3689    0.5440 H   0  0  0  0  0  0  0  0  0  0  0  0
   -5.2785    2.0401    0.9898 H   0  0  0  0  0  0  0  0  0  0  0  0
   -6.1979    1.6569   -0.5667 H   0  0  0  0  0  0  0  0  0  0  0  0
   -3.2502    2.6648    0.6039 H   0  0  0  0  0  0  0  0  0  0  0  0
   -2.1050    1.6456   -0.2875 H   0  0  0  0  0  0  0  0  0  0  0  0
   -2.0340    1.2402    2.0877 H   0  0  0  0  0  0  0  0  0  0  0  0
   -3.7729    0.8882    2.2055 H   0  0  0  0  0  0  0  0  0  0  0  0
   -4.5173   -1.7150    1.6767 H   0  0  0  0  0  0  0  0  0  0  0  0
   -3.0803   -3.7838    1.0463 H   0  0  0  0  0  0  0  0  0  0  0  0
   -0.4597   -4.2536    0.2791 H   0  0  0  0  0  0  0  0  0  0  0  0
    1.6433   -3.1821   -0.1809 H   0  0  0  0  0  0  0  0  0  0  0  0
    2.1508    0.5913   -0.0593 H   0  0  0  0  0  0  0  0  0  0  0  0
    3.6130    1.5670   -0.9714 H   0  0  0  0  0  0  0  0  0  0  0  0
    5.6619    2.8686   -1.3132 H   0  0  0  0  0  0  0  0  0  0  0  0
    8.0137   -0.4659   -0.1585 H   0  0  0  0  0  0  0  0  0  0  0  0
    5.9771   -1.7733    0.1906 H   0  0  0  0  0  0  0  0  0  0  0  0
   -0.0545    0.5784    0.7311 H   0  0  0  0  0  0  0  0  0  0  0  0
  1  2  1  0
  2  3  1  0
  2  4  1  0
  4  5  1  0
  5  6  1  0
  6  7  2  0
  7  8  1  0
  8  9  1  0
  9 10  2  0
 10 11  1  0
 11 12  2  0
 12 13  1  0
 13 14  1  0
 14 15  2  0
 14 16  1  0
 16 17  2  0
 17 18  1  0
 18 19  2  0
 19 20  1  0
 19 21  1  0
 21 22  2  0
 12 23  1  0
 23 24  2  0
 24  6  1  0
 24  9  1  0
 22 16  1  0
  1 25  1  0
  1 26  1  0
  1 27  1  0
  3 28  1  0
  3 29  1  0
  3 30  1  0
  4 31  1  0
  4 32  1  0
  5 33  1  0
  5 34  1  0
  7 35  1  0
  8 36  1  0
 10 37  1  0
 11 38  1  0
 13 39  1  0
 17 40  1  0
 18 41  1  0
 21 42  1  0
 22 43  1  0
 23 44  1  0
M  END
$$$$
[H]Oc1c([H])c([H])c2c(c1[H])C([H])([H])C([H])([H])[C@]1([H])[C@]2([H])C([H])([H])C([H])([H])[C@]2(C([H])([H])[H])[C@@](C#Cc3c([H])c([H])c([H])c([H])c3[H])(O[H])C([H])([H])C([H])([H])[C@]21[H]
     RDKit          3D

 56 60  0  0  0  0  0  0  0  0999 V2000
   -0.8618    2.4741    1.0683 C   0  0  0  0  0  0  0  0  0  0  0  0
    0.2283    1.5230    0.6413 C   0  0  2  0  0  0  0  0  0  0  0  0
    0.2080    1.3071   -0.8275 C   0  0  0  0  0  0  0  0  0  0  0  0
   -1.1639    0.8704   -1.2230 C   0  0  0  0  0  0  0  0  0  0  0  0
   -1.6165   -0.3307   -0.4826 C   0  0  1  0  0  0  0  0  0  0  0  0
   -1.3247   -0.3119    0.9939 C   0  0  1  0  0  0  0  0  0  0  0  0
   -1.4997   -1.7591    1.4759 C   0  0  0  0  0  0  0  0  0  0  0  0
   -2.8999   -2.2456    1.2912 C   0  0  0  0  0  0  0  0  0  0  0  0
   -3.6252   -1.5437    0.2016 C   0  0  0  0  0  0  0  0  0  0  0  0
   -4.9792   -1.8575    0.0722 C   0  0  0  0  0  0  0  0  0  0  0  0
   -5.7465   -1.2621   -0.9080 C   0  0  0  0  0  0  0  0  0  0  0  0
   -7.1057   -1.5568   -1.0618 O   0  0  0  0  0  0  0  0  0  0  0  0
   -5.1652   -0.3486   -1.7656 C   0  0  0  0  0  0  0  0  0  0  0  0
   -3.8074   -0.0481   -1.6191 C   0  0  0  0  0  0  0  0  0  0  0  0
   -3.0407   -0.6366   -0.6473 C   0  0  0  0  0  0  0  0  0  0  0  0
    0.0541    0.1512    1.2833 C   0  0  2  0  0  0  0  0  0  0  0  0
    0.3414    0.4419    2.7086 C   0  0  0  0  0  0  0  0  0  0  0  0
    1.4105    1.5148    2.6682 C   0  0  0  0  0  0  0  0  0  0  0  0
    1.5129    1.9747    1.2221 C   0  0  2  0  0  0  0  0  0  0  0  0
    1.6765    3.3402    1.2212 O   0  0  0  0  0  0  0  0  0  0  0  0
    2.6044    1.2805    0.5294 C   0  0  0  0  0  0  0  0  0  0  0  0
    3.4903    0.7011   -0.0210 C   0  0  0  0  0  0  0  0  0  0  0  0
    4.5449   -0.0176   -0.6812 C   0  0  0  0  0  0  0  0  0  0  0  0
    5.8670    0.1022   -0.2664 C   0  0  0  0  0  0  0  0  0  0  0  0
    6.8749   -0.5899   -0.9036 C   0  0  0  0  0  0  0  0  0  0  0  0
    6.6137   -1.4228   -1.9704 C   0  0  0  0  0  0  0  0  0  0  0  0
    5.3008   -1.5418   -2.3823 C   0  0  0  0  0  0  0  0  0  0  0  0
    4.2989   -0.8441   -1.7371 C   0  0  0  0  0  0  0  0  0  0  0  0
   -1.8693    2.1490    0.8186 H   0  0  0  0  0  0  0  0  0  0  0  0
   -0.6779    3.4294    0.5349 H   0  0  0  0  0  0  0  0  0  0  0  0
   -0.7678    2.6923    2.1657 H   0  0  0  0  0  0  0  0  0  0  0  0
    0.9007    0.4436   -1.0515 H   0  0  0  0  0  0  0  0  0  0  0  0
    0.5341    2.1838   -1.4209 H   0  0  0  0  0  0  0  0  0  0  0  0
   -1.8402    1.7391   -1.1791 H   0  0  0  0  0  0  0  0  0  0  0  0
   -1.1124    0.5929   -2.3167 H   0  0  0  0  0  0  0  0  0  0  0  0
   -1.0484   -1.2149   -0.8974 H   0  0  0  0  0  0  0  0  0  0  0  0
   -2.0900    0.2684    1.5756 H   0  0  0  0  0  0  0  0  0  0  0  0
   -1.1407   -1.7977    2.5175 H   0  0  0  0  0  0  0  0  0  0  0  0
   -0.8328   -2.3942    0.8347 H   0  0  0  0  0  0  0  0  0  0  0  0
   -2.9318   -3.3346    1.0395 H   0  0  0  0  0  0  0  0  0  0  0  0
   -3.4377   -2.1174    2.2467 H   0  0  0  0  0  0  0  0  0  0  0  0
   -5.4592   -2.5642    0.7245 H   0  0  0  0  0  0  0  0  0  0  0  0
   -7.3664   -2.3208   -1.6798 H   0  0  0  0  0  0  0  0  0  0  0  0
   -5.7039    0.1528   -2.5515 H   0  0  0  0  0  0  0  0  0  0  0  0
   -3.3203    0.6603   -2.2709 H   0  0  0  0  0  0  0  0  0  0  0  0
    0.7753   -0.5363    0.8074 H   0  0  0  0  0  0  0  0  0  0  0  0
   -0.5433    0.7335    3.2786 H   0  0  0  0  0  0  0  0  0  0  0  0
    0.8079   -0.4680    3.1684 H   0  0  0  0  0  0  0  0  0  0  0  0
    2.3837    1.1472    3.0519 H   0  0  0  0  0  0  0  0  0  0  0  0
    1.0606    2.3338    3.3294 H   0  0  0  0  0  0  0  0  0  0  0  0
    1.6235    3.7203    2.1184 H   0  0  0  0  0  0  0  0  0  0  0  0
    6.1421    0.7367    0.5619 H   0  0  0  0  0  0  0  0  0  0  0  0
    7.8908   -0.4880   -0.5729 H   0  0  0  0  0  0  0  0  0  0  0  0
    7.4175   -1.9470   -2.4448 H   0  0  0  0  0  0  0  0  0  0  0  0
    5.1192   -2.1996   -3.2199 H   0  0  0  0  0  0  0  0  0  0  0  0
    3.2964   -0.9646   -2.0876 H   0  0  0  0  0  0  0  0  0  0  0  0
  2  1  1  6
  2  3  1  0
  3  4  1  0
  4  5  1  0
  5  6  1  0
  6  7  1  0
  7  8  1  0
  8  9  1  0
  9 10  2  0
 10 11  1  0
 11 12  1  0
 11 13  2  0
 13 14  1  0
 14 15  2  0
  6 16  1  0
 16 17  1  0
 17 18  1  0
 18 19  1  0
 19 20  1  0
 19 21  1  6
 21 22  3  0
 22 23  1  0
 23 24  2  0
 24 25  1  0
 25 26  2  0
 26 27  1  0
 27 28  2  0
 16  2  1  0
 28 23  1  0
 19  2  1  0
 15  5  1  0
 15  9  1  0
  1 29  1  0
  1 30  1  0
  1 31  1  0
  3 32  1  0
  3 33  1  0
  4 34  1  0
  4 35  1  0
  5 36  1  6
  6 37  1  1
  7 38  1  0
  7 39  1  0
  8 40  1  0
  8 41  1  0
 10 42  1  0
 12 43  1  0
 13 44  1  0
 14 45  1  0
 16 46  1  6
 17 47  1  0
 17 48  1  0
 18 49  1  0
 18 50  1  0
 20 51  1  0
 24 52  1  0
 25 53  1  0
 26 54  1  0
 27 55  1  0
 28 56  1  0
M  END
$$$$
[H]OC(=O)c1c([H])c([H])c(-c2c([H])c(F)c(C(F)(F)F)c([H])c2N([H])[H])c([H])c1[H]
     RDKit          3D

 30 31  0  0  0  0  0  0  0  0999 V2000
    0.7661    2.2553   -0.4439 N   0  0  0  0  0  0  0  0  0  0  0  0
    1.4427    1.0402   -0.1589 C   0  0  0  0  0  0  0  0  0  0  0  0
    2.8456    1.0450   -0.1667 C   0  0  0  0  0  0  0  0  0  0  0  0
    3.4960   -0.1360    0.1045 C   0  0  0  0  0  0  0  0  0  0  0  0
    2.7902   -1.2907    0.3761 C   0  0  0  0  0  0  0  0  0  0  0  0
    3.5008   -2.4146    0.6337 F   0  0  0  0  0  0  0  0  0  0  0  0
    1.4172   -1.2505    0.3734 C   0  0  0  0  0  0  0  0  0  0  0  0
    0.7273   -0.0898    0.1072 C   0  0  0  0  0  0  0  0  0  0  0  0
   -0.7250   -0.1150    0.1260 C   0  0  0  0  0  0  0  0  0  0  0  0
   -1.4782    0.8279    0.7894 C   0  0  0  0  0  0  0  0  0  0  0  0
   -2.8316    0.7532    0.7661 C   0  0  0  0  0  0  0  0  0  0  0  0
   -3.5023   -0.2424    0.0960 C   0  0  0  0  0  0  0  0  0  0  0  0
   -2.7778   -1.2159   -0.5877 C   0  0  0  0  0  0  0  0  0  0  0  0
   -1.4139   -1.1245   -0.5532 C   0  0  0  0  0  0  0  0  0  0  0  0
   -4.9572   -0.2576    0.1156 C   0  0  0  0  0  0  0  0  0  0  0  0
   -5.6720   -1.2419   -0.5458 O   0  0  0  0  0  0  0  0  0  0  0  0
   -5.5568    0.6437    0.7471 O   0  0  0  0  0  0  0  0  0  0  0  0
    4.9793   -0.1744    0.1060 C   0  0  0  0  0  0  0  0  0  0  0  0
    5.4439   -1.0683   -0.8374 F   0  0  0  0  0  0  0  0  0  0  0  0
    5.4598    1.1014   -0.0827 F   0  0  0  0  0  0  0  0  0  0  0  0
    5.3625   -0.6438    1.3520 F   0  0  0  0  0  0  0  0  0  0  0  0
    0.7336    3.0350    0.2609 H   0  0  0  0  0  0  0  0  0  0  0  0
    0.2728    2.4311   -1.3592 H   0  0  0  0  0  0  0  0  0  0  0  0
    3.3918    1.9520   -0.3800 H   0  0  0  0  0  0  0  0  0  0  0  0
    0.9045   -2.1861    0.5932 H   0  0  0  0  0  0  0  0  0  0  0  0
   -0.9713    1.6418    1.3427 H   0  0  0  0  0  0  0  0  0  0  0  0
   -3.3779    1.5346    1.3141 H   0  0  0  0  0  0  0  0  0  0  0  0
   -3.3367   -1.9649   -1.0906 H   0  0  0  0  0  0  0  0  0  0  0  0
   -0.8419   -1.8865   -1.0885 H   0  0  0  0  0  0  0  0  0  0  0  0
   -6.0914   -0.9585   -1.4434 H   0  0  0  0  0  0  0  0  0  0  0  0
  1  2  1  0
  2  3  2  0
  3  4  1  0
  4  5  2  0
  5  6  1  0
  5  7  1  0
  7  8  2  0
  8  9  1  0
  9 10  2  0
 10 11  1  0
 11 12  2  0
 12 13  1  0
 13 14  2  0
 12 15  1  0
 15 16  1  0
 15 17  2  0
  4 18  1  0
 18 19  1  0
 18 20  1  0
 18 21  1  0
  8  2  1  0
 14  9  1  0
  1 22  1  0
  1 23  1  0
  3 24  1  0
  7 25  1  0
 10 26  1  0
 11 27  1  0
 13 28  1  0
 14 29  1  0
 16 30  1  0
M  END
$$$$
[H]c1c([H])c(C(=O)N([H])[H])c([H])c(-n2c([H])nc3c(N([H])[H])nc(N4C([H])([H])C([H])([H])C([H])([H])C4([H])C([H])(C([H])([H])[H])C([H])([H])[H])nc32)c1[H]
     RDKit          3D

 50 53  0  0  0  0  0  0  0  0999 V2000
   -3.8670    0.8909    1.2719 C   0  0  0  0  0  0  0  0  0  0  0  0
   -3.9907   -0.1208    0.1843 C   0  0  0  0  0  0  0  0  0  0  0  0
   -5.4638   -0.2980   -0.1599 C   0  0  0  0  0  0  0  0  0  0  0  0
   -3.1787    0.1598   -1.0382 C   0  0  0  0  0  0  0  0  0  0  0  0
   -3.4878    1.4352   -1.7304 C   0  0  0  0  0  0  0  0  0  0  0  0
   -2.5720    2.4354   -1.1182 C   0  0  0  0  0  0  0  0  0  0  0  0
   -1.3267    1.6329   -0.8180 C   0  0  0  0  0  0  0  0  0  0  0  0
   -1.7740    0.2762   -0.7070 N   0  0  0  0  0  0  0  0  0  0  0  0
   -0.9555   -0.8417   -0.3215 C   0  0  0  0  0  0  0  0  0  0  0  0
   -1.4238   -2.0855   -0.2498 N   0  0  0  0  0  0  0  0  0  0  0  0
   -0.7046   -3.1645    0.1039 C   0  0  0  0  0  0  0  0  0  0  0  0
   -1.2511   -4.4707    0.1651 N   0  0  0  0  0  0  0  0  0  0  0  0
    0.6170   -2.9854    0.4184 C   0  0  0  0  0  0  0  0  0  0  0  0
    1.6398   -3.7631    0.8040 N   0  0  0  0  0  0  0  0  0  0  0  0
    2.7456   -3.0349    0.9774 C   0  0  0  0  0  0  0  0  0  0  0  0
    2.4231   -1.7579    0.6957 N   0  0  0  0  0  0  0  0  0  0  0  0
    3.2788   -0.6142    0.7398 C   0  0  0  0  0  0  0  0  0  0  0  0
    3.5977   -0.0107    1.9388 C   0  0  0  0  0  0  0  0  0  0  0  0
    4.4280    1.0954    1.9571 C   0  0  0  0  0  0  0  0  0  0  0  0
    4.9698    1.6438    0.8141 C   0  0  0  0  0  0  0  0  0  0  0  0
    4.6508    1.0383   -0.3975 C   0  0  0  0  0  0  0  0  0  0  0  0
    3.8218   -0.0640   -0.4023 C   0  0  0  0  0  0  0  0  0  0  0  0
    5.1963    1.5769   -1.6389 C   0  0  0  0  0  0  0  0  0  0  0  0
    6.0406    2.6996   -1.6329 N   0  0  0  0  0  0  0  0  0  0  0  0
    4.8952    1.0144   -2.7220 O   0  0  0  0  0  0  0  0  0  0  0  0
    1.1093   -1.6961    0.3458 C   0  0  0  0  0  0  0  0  0  0  0  0
    0.3447   -0.6507   -0.0144 N   0  0  0  0  0  0  0  0  0  0  0  0
   -4.5326    1.7598    1.1791 H   0  0  0  0  0  0  0  0  0  0  0  0
   -2.8325    1.2214    1.4620 H   0  0  0  0  0  0  0  0  0  0  0  0
   -4.1859    0.3776    2.2277 H   0  0  0  0  0  0  0  0  0  0  0  0
   -3.6614   -1.0997    0.5920 H   0  0  0  0  0  0  0  0  0  0  0  0
   -5.8173    0.6636   -0.5576 H   0  0  0  0  0  0  0  0  0  0  0  0
   -5.9916   -0.6406    0.7437 H   0  0  0  0  0  0  0  0  0  0  0  0
   -5.5622   -1.0929   -0.9542 H   0  0  0  0  0  0  0  0  0  0  0  0
   -3.3070   -0.6977   -1.7301 H   0  0  0  0  0  0  0  0  0  0  0  0
   -3.1821    1.3157   -2.8118 H   0  0  0  0  0  0  0  0  0  0  0  0
   -4.5438    1.7228   -1.7486 H   0  0  0  0  0  0  0  0  0  0  0  0
   -2.9704    2.9341   -0.2095 H   0  0  0  0  0  0  0  0  0  0  0  0
   -2.3376    3.2889   -1.8206 H   0  0  0  0  0  0  0  0  0  0  0  0
   -0.8222    2.0052    0.0981 H   0  0  0  0  0  0  0  0  0  0  0  0
   -0.6222    1.7860   -1.6709 H   0  0  0  0  0  0  0  0  0  0  0  0
   -0.6400   -5.2950   -0.0562 H   0  0  0  0  0  0  0  0  0  0  0  0
   -2.2520   -4.5947    0.4290 H   0  0  0  0  0  0  0  0  0  0  0  0
    3.7458   -3.3709    1.2886 H   0  0  0  0  0  0  0  0  0  0  0  0
    3.1740   -0.4381    2.8418 H   0  0  0  0  0  0  0  0  0  0  0  0
    4.6740    1.5647    2.9064 H   0  0  0  0  0  0  0  0  0  0  0  0
    5.6181    2.5093    0.8410 H   0  0  0  0  0  0  0  0  0  0  0  0
    3.5548   -0.5599   -1.3431 H   0  0  0  0  0  0  0  0  0  0  0  0
    6.6759    2.9508   -0.8503 H   0  0  0  0  0  0  0  0  0  0  0  0
    6.0557    3.3489   -2.4577 H   0  0  0  0  0  0  0  0  0  0  0  0
  1  2  1  0
  2  3  1  0
  2  4  1  0
  4  5  1  0
  5  6  1  0
  6  7  1  0
  7  8  1  0
  8  9  1  0
  9 10  2  0
 10 11  1  0
 11 12  1  0
 11 13  2  0
 13 14  1  0
 14 15  2  0
 15 16  1  0
 16 17  1  0
 17 18  2  0
 18 19  1  0
 19 20  2  0
 20 21  1  0
 21 22  2  0
 21 23  1  0
 23 24  1  0
 23 25  2  0
 16 26  1  0
 26 27  2  0
  8  4  1  0
 27  9  1  0
 26 13  1  0
 22 17  1  0
  1 28  1  0
  1 29  1  0
  1 30  1  0
  2 31  1  0
  3 32  1  0
  3 33  1  0
  3 34  1  0
  4 35  1  0
  5 36  1  0
  5 37  1  0
  6 38  1  0
  6 39  1  0
  7 40  1  0
  7 41  1  0
 12 42  1  0
 12 43  1  0
 15 44  1  0
 18 45  1  0
 19 46  1  0
 20 47  1  0
 22 48  1  0
 24 49  1  0
 24 50  1  0
M  END
$$$$
[H]OC(=O)c1c([H])c(C(=O)N2C([H])([H])C([H])([H])N(S(=O)(=O)c3c([H])c([H])c(OC([H])([H])[H])c([H])c3[H])C([H])([H])C2([H])[H])c([H])c(C(F)(F)F)c1[H]
     RDKit          3D

 51 53  0  0  0  0  0  0  0  0999 V2000
   -8.2604   -0.1689   -0.4854 C   0  0  0  0  0  0  0  0  0  0  0  0
   -7.7295   -0.1943    0.8017 O   0  0  0  0  0  0  0  0  0  0  0  0
   -6.3774   -0.1354    1.0927 C   0  0  0  0  0  0  0  0  0  0  0  0
   -5.9062   -0.1741    2.4101 C   0  0  0  0  0  0  0  0  0  0  0  0
   -4.5635   -0.1094    2.6320 C   0  0  0  0  0  0  0  0  0  0  0  0
   -3.6145   -0.0039    1.6055 C   0  0  0  0  0  0  0  0  0  0  0  0
   -4.1332    0.0279    0.3432 C   0  0  0  0  0  0  0  0  0  0  0  0
   -5.4909   -0.0348    0.0428 C   0  0  0  0  0  0  0  0  0  0  0  0
   -1.9239    0.1137    2.0108 S   0  0  0  0  0  0  0  0  0  0  0  0
   -1.6516   -0.9691    3.0440 O   0  0  0  0  0  0  0  0  0  0  0  0
   -1.6798    1.4612    2.7166 O   0  0  0  0  0  0  0  0  0  0  0  0
   -0.9412    0.0315    0.6845 N   0  0  0  0  0  0  0  0  0  0  0  0
   -0.8550   -1.0621   -0.1548 C   0  0  0  0  0  0  0  0  0  0  0  0
   -0.2823   -0.6121   -1.5208 C   0  0  0  0  0  0  0  0  0  0  0  0
    1.0141   -0.0682   -1.2053 N   0  0  0  0  0  0  0  0  0  0  0  0
    0.9933    1.1442   -0.3935 C   0  0  0  0  0  0  0  0  0  0  0  0
   -0.3433    1.2711    0.2996 C   0  0  0  0  0  0  0  0  0  0  0  0
    2.1711   -0.7576   -1.6108 C   0  0  0  0  0  0  0  0  0  0  0  0
    2.0603   -1.8704   -2.2311 O   0  0  0  0  0  0  0  0  0  0  0  0
    3.5482   -0.2835   -1.3451 C   0  0  0  0  0  0  0  0  0  0  0  0
    3.8811    1.0380   -1.1641 C   0  0  0  0  0  0  0  0  0  0  0  0
    5.1089    1.4948   -0.7035 C   0  0  0  0  0  0  0  0  0  0  0  0
    6.0474    0.5419   -0.4183 C   0  0  0  0  0  0  0  0  0  0  0  0
    5.7810   -0.8152   -0.5843 C   0  0  0  0  0  0  0  0  0  0  0  0
    4.5422   -1.2129   -1.0453 C   0  0  0  0  0  0  0  0  0  0  0  0
    6.7917   -1.8275   -0.2342 C   0  0  0  0  0  0  0  0  0  0  0  0
    7.8804   -1.2672    0.3936 F   0  0  0  0  0  0  0  0  0  0  0  0
    7.2267   -2.5217   -1.3517 F   0  0  0  0  0  0  0  0  0  0  0  0
    6.2151   -2.7197    0.6609 F   0  0  0  0  0  0  0  0  0  0  0  0
    5.2888    2.9213   -0.5416 C   0  0  0  0  0  0  0  0  0  0  0  0
    6.4228    3.3826    0.1305 O   0  0  0  0  0  0  0  0  0  0  0  0
    4.4634    3.7197   -0.9805 O   0  0  0  0  0  0  0  0  0  0  0  0
   -9.2984   -0.5485   -0.5116 H   0  0  0  0  0  0  0  0  0  0  0  0
   -7.6741   -0.8541   -1.1762 H   0  0  0  0  0  0  0  0  0  0  0  0
   -8.2708    0.7926   -1.0097 H   0  0  0  0  0  0  0  0  0  0  0  0
   -6.6381   -0.2547    3.1948 H   0  0  0  0  0  0  0  0  0  0  0  0
   -4.2104   -0.1243    3.6433 H   0  0  0  0  0  0  0  0  0  0  0  0
   -3.4321    0.1139   -0.4924 H   0  0  0  0  0  0  0  0  0  0  0  0
   -5.7765   -0.0273   -0.9927 H   0  0  0  0  0  0  0  0  0  0  0  0
   -1.8055   -1.6028   -0.3565 H   0  0  0  0  0  0  0  0  0  0  0  0
   -0.0735   -1.8270    0.1967 H   0  0  0  0  0  0  0  0  0  0  0  0
   -0.2514   -1.4543   -2.2063 H   0  0  0  0  0  0  0  0  0  0  0  0
   -0.9267    0.2155   -1.8569 H   0  0  0  0  0  0  0  0  0  0  0  0
    1.0952    2.0624   -1.0045 H   0  0  0  0  0  0  0  0  0  0  0  0
    1.8005    1.0152    0.3707 H   0  0  0  0  0  0  0  0  0  0  0  0
   -0.1714    1.9185    1.1874 H   0  0  0  0  0  0  0  0  0  0  0  0
   -1.0292    1.7916   -0.3644 H   0  0  0  0  0  0  0  0  0  0  0  0
    3.1736    1.8227   -1.4540 H   0  0  0  0  0  0  0  0  0  0  0  0
    7.0177    0.8631   -0.0648 H   0  0  0  0  0  0  0  0  0  0  0  0
    4.3070   -2.2542   -1.1682 H   0  0  0  0  0  0  0  0  0  0  0  0
    6.4804    3.3722    1.1672 H   0  0  0  0  0  0  0  0  0  0  0  0
  1  2  1  0
  2  3  1  0
  3  4  2  0
  4  5  1  0
  5  6  2  0
  6  7  1  0
  7  8  2  0
  6  9  1  0
  9 10  2  0
  9 11  2  0
  9 12  1  0
 12 13  1  0
 13 14  1  0
 14 15  1  0
 15 16  1  0
 16 17  1  0
 15 18  1  0
 18 19  2  0
 18 20  1  0
 20 21  2  0
 21 22  1  0
 22 23  2  0
 23 24  1  0
 24 25  2  0
 24 26  1  0
 26 27  1  0
 26 28  1  0
 26 29  1  0
 22 30  1  0
 30 31  1  0
 30 32  2  0
  8  3  1  0
 17 12  1  0
 25 20  1  0
  1 33  1  0
  1 34  1  0
  1 35  1  0
  4 36  1  0
  5 37  1  0
  7 38  1  0
  8 39  1  0
 13 40  1  0
 13 41  1  0
 14 42  1  0
 14 43  1  0
 16 44  1  0
 16 45  1  0
 17 46  1  0
 17 47  1  0
 21 48  1  0
 23 49  1  0
 25 50  1  0
 31 51  1  0
M  END
$$$$
[H]C1=C([H])C([H])(F)C([H])([H])C([H])=C1N([H])C(=O)C1(C(=O)N([H])c2c([H])c([H])c(Oc3c([H])c([H])nc4c([H])c(OC([H])([H])C([H])([H])C([H])([H])N5C([H])([H])C([H])([H])C([H])([H])C5([H])[H])c(OC([H])([H])[H])c([H])c34)c([H])c2[H])C([H])([H])C1([H])[H]
     RDKit          3D

 81 86  0  0  0  0  0  0  0  0999 V2000
   -3.8979   -0.4586   -3.6225 C   0  0  0  0  0  0  0  0  0  0  0  0
   -4.7021   -0.8533   -2.5486 O   0  0  0  0  0  0  0  0  0  0  0  0
   -4.1827   -0.9123   -1.2868 C   0  0  0  0  0  0  0  0  0  0  0  0
   -2.8726   -0.5873   -1.0570 C   0  0  0  0  0  0  0  0  0  0  0  0
   -2.3105   -0.6347    0.2033 C   0  0  0  0  0  0  0  0  0  0  0  0
   -0.9855   -0.3022    0.3959 C   0  0  0  0  0  0  0  0  0  0  0  0
   -0.1856    0.0889   -0.6631 O   0  0  0  0  0  0  0  0  0  0  0  0
    1.1484    0.4273   -0.5412 C   0  0  0  0  0  0  0  0  0  0  0  0
    1.6158    1.6685   -0.2752 C   0  0  0  0  0  0  0  0  0  0  0  0
    2.9913    1.9203   -0.1693 C   0  0  0  0  0  0  0  0  0  0  0  0
    3.9213    0.9338   -0.3270 C   0  0  0  0  0  0  0  0  0  0  0  0
    5.3376    1.0932   -0.2045 N   0  0  0  0  0  0  0  0  0  0  0  0
    5.9058    1.9761    0.6981 C   0  0  0  0  0  0  0  0  0  0  0  0
    5.0715    2.6611    1.4256 O   0  0  0  0  0  0  0  0  0  0  0  0
    7.3118    2.2928    0.9829 C   0  0  0  0  0  0  0  0  0  0  0  0
    7.6186    3.2028    2.1488 C   0  0  0  0  0  0  0  0  0  0  0  0
    7.6005    3.8141    0.8211 C   0  0  0  0  0  0  0  0  0  0  0  0
    8.4565    1.4525    0.5655 C   0  0  0  0  0  0  0  0  0  0  0  0
    9.6024    2.0404    0.6064 O   0  0  0  0  0  0  0  0  0  0  0  0
    8.4147    0.1285    0.1541 N   0  0  0  0  0  0  0  0  0  0  0  0
    9.4185   -0.7556   -0.2796 C   0  0  0  0  0  0  0  0  0  0  0  0
   10.6832   -0.4706   -0.3473 C   0  0  0  0  0  0  0  0  0  0  0  0
   11.7403   -1.3845   -0.7977 C   0  0  0  0  0  0  0  0  0  0  0  0
   11.3042   -2.7154   -1.2271 C   0  0  0  0  0  0  0  0  0  0  0  0
   11.9147   -3.6525   -0.3540 F   0  0  0  0  0  0  0  0  0  0  0  0
    9.8754   -2.9647   -1.1245 C   0  0  0  0  0  0  0  0  0  0  0  0
    8.9853   -2.1081   -0.7015 C   0  0  0  0  0  0  0  0  0  0  0  0
    3.4131   -0.3482   -0.6032 C   0  0  0  0  0  0  0  0  0  0  0  0
    2.0690   -0.5868   -0.7058 C   0  0  0  0  0  0  0  0  0  0  0  0
   -0.5068   -0.3802    1.6862 C   0  0  0  0  0  0  0  0  0  0  0  0
   -1.3361   -0.7752    2.7182 C   0  0  0  0  0  0  0  0  0  0  0  0
   -2.6192   -1.0885    2.4792 N   0  0  0  0  0  0  0  0  0  0  0  0
   -3.1355   -1.0278    1.2310 C   0  0  0  0  0  0  0  0  0  0  0  0
   -4.4710   -1.3613    1.0079 C   0  0  0  0  0  0  0  0  0  0  0  0
   -5.0382   -1.3167   -0.2427 C   0  0  0  0  0  0  0  0  0  0  0  0
   -6.3354   -1.6274   -0.5272 O   0  0  0  0  0  0  0  0  0  0  0  0
   -7.3959   -2.0174    0.2359 C   0  0  0  0  0  0  0  0  0  0  0  0
   -7.9096   -1.0658    1.2632 C   0  0  0  0  0  0  0  0  0  0  0  0
   -8.3817    0.2420    0.6588 C   0  0  0  0  0  0  0  0  0  0  0  0
   -9.4544    0.0520   -0.2858 N   0  0  0  0  0  0  0  0  0  0  0  0
   -9.8217    1.3189   -0.8444 C   0  0  0  0  0  0  0  0  0  0  0  0
  -11.1336    1.6465   -0.2031 C   0  0  0  0  0  0  0  0  0  0  0  0
  -11.8005    0.2826   -0.1024 C   0  0  0  0  0  0  0  0  0  0  0  0
  -10.6069   -0.5699    0.2941 C   0  0  0  0  0  0  0  0  0  0  0  0
   -3.3204    0.4600   -3.4095 H   0  0  0  0  0  0  0  0  0  0  0  0
   -4.5047   -0.2388   -4.5380 H   0  0  0  0  0  0  0  0  0  0  0  0
   -3.1974   -1.2720   -3.9365 H   0  0  0  0  0  0  0  0  0  0  0  0
   -2.1951   -0.2710   -1.8606 H   0  0  0  0  0  0  0  0  0  0  0  0
    0.9262    2.4806   -0.1417 H   0  0  0  0  0  0  0  0  0  0  0  0
    3.3185    2.9500    0.0227 H   0  0  0  0  0  0  0  0  0  0  0  0
    5.9298    0.5379   -0.8672 H   0  0  0  0  0  0  0  0  0  0  0  0
    8.5934    3.0933    2.6483 H   0  0  0  0  0  0  0  0  0  0  0  0
    6.7943    3.4574    2.8649 H   0  0  0  0  0  0  0  0  0  0  0  0
    6.7602    4.4744    0.5869 H   0  0  0  0  0  0  0  0  0  0  0  0
    8.5297    4.0954    0.2898 H   0  0  0  0  0  0  0  0  0  0  0  0
    7.4370   -0.3170    0.2401 H   0  0  0  0  0  0  0  0  0  0  0  0
   11.0266    0.5453   -0.0439 H   0  0  0  0  0  0  0  0  0  0  0  0
   12.5533   -1.4580   -0.0142 H   0  0  0  0  0  0  0  0  0  0  0  0
   12.2057   -0.8703   -1.7042 H   0  0  0  0  0  0  0  0  0  0  0  0
   11.6601   -2.9694   -2.2791 H   0  0  0  0  0  0  0  0  0  0  0  0
    9.4605   -3.9632   -1.4225 H   0  0  0  0  0  0  0  0  0  0  0  0
    7.9160   -2.3760   -0.6552 H   0  0  0  0  0  0  0  0  0  0  0  0
    4.1636   -1.1432   -0.7298 H   0  0  0  0  0  0  0  0  0  0  0  0
    1.7241   -1.6133   -0.9241 H   0  0  0  0  0  0  0  0  0  0  0  0
    0.5151   -0.1418    1.9400 H   0  0  0  0  0  0  0  0  0  0  0  0
   -0.9333   -0.8285    3.7323 H   0  0  0  0  0  0  0  0  0  0  0  0
   -5.0673   -1.6778    1.8574 H   0  0  0  0  0  0  0  0  0  0  0  0
   -7.0516   -2.9304    0.8293 H   0  0  0  0  0  0  0  0  0  0  0  0
   -8.2360   -2.4626   -0.3810 H   0  0  0  0  0  0  0  0  0  0  0  0
   -8.8107   -1.5102    1.7591 H   0  0  0  0  0  0  0  0  0  0  0  0
   -7.1923   -0.8650    2.0440 H   0  0  0  0  0  0  0  0  0  0  0  0
   -8.7678    0.8638    1.4843 H   0  0  0  0  0  0  0  0  0  0  0  0
   -7.5313    0.7008    0.1175 H   0  0  0  0  0  0  0  0  0  0  0  0
   -9.9852    1.2787   -1.9436 H   0  0  0  0  0  0  0  0  0  0  0  0
   -9.0941    2.1266   -0.5797 H   0  0  0  0  0  0  0  0  0  0  0  0
  -11.7478    2.3512   -0.8067 H   0  0  0  0  0  0  0  0  0  0  0  0
  -11.0582    2.0735    0.8021 H   0  0  0  0  0  0  0  0  0  0  0  0
  -12.1785    0.0298   -1.1120 H   0  0  0  0  0  0  0  0  0  0  0  0
  -12.5852    0.3021    0.6780 H   0  0  0  0  0  0  0  0  0  0  0  0
  -10.7928   -1.5918   -0.0803 H   0  0  0  0  0  0  0  0  0  0  0  0
  -10.5811   -0.5979    1.4148 H   0  0  0  0  0  0  0  0  0  0  0  0
  1  2  1  0
  2  3  1  0
  3  4  2  0
  4  5  1  0
  5  6  2  0
  6  7  1  0
  7  8  1  0
  8  9  2  0
  9 10  1  0
 10 11  2  0
 11 12  1  0
 12 13  1  0
 13 14  2  0
 13 15  1  0
 15 16  1  0
 16 17  1  0
 15 18  1  0
 18 19  2  0
 18 20  1  0
 20 21  1  0
 21 22  2  0
 22 23  1  0
 23 24  1  0
 24 25  1  0
 24 26  1  0
 26 27  2  0
 11 28  1  0
 28 29  2  0
  6 30  1  0
 30 31  2  0
 31 32  1  0
 32 33  2  0
 33 34  1  0
 34 35  2  0
 35 36  1  0
 36 37  1  0
 37 38  1  0
 38 39  1  0
 39 40  1  0
 40 41  1  0
 41 42  1  0
 42 43  1  0
 43 44  1  0
 35  3  1  0
 44 40  1  0
 33  5  1  0
 29  8  1  0
 17 15  1  0
 27 21  1  0
  1 45  1  0
  1 46  1  0
  1 47  1  0
  4 48  1  0
  9 49  1  0
 10 50  1  0
 12 51  1  0
 16 52  1  0
 16 53  1  0
 17 54  1  0
 17 55  1  0
 20 56  1  0
 22 57  1  0
 23 58  1  0
 23 59  1  0
 24 60  1  0
 26 61  1  0
 27 62  1  0
 28 63  1  0
 29 64  1  0
 30 65  1  0
 31 66  1  0
 34 67  1  0
 37 68  1  0
 37 69  1  0
 38 70  1  0
 38 71  1  0
 39 72  1  0
 39 73  1  0
 41 74  1  0
 41 75  1  0
 42 76  1  0
 42 77  1  0
 43 78  1  0
 43 79  1  0
 44 80  1  0
 44 81  1  0
M  END
$$$$
[H]c1nc(Oc2c([H])c([H])c(S(=O)(=O)N3C([H])([H])C([H])([H])C([H])([H])C3([H])[H])c([H])c2[H])c([H])c([H])c1-c1nc(C(=O)N([H])C(=O)C([H])([H])OC([H])([H])[H])oc1[H]
     RDKit          3D

 56 59  0  0  0  0  0  0  0  0999 V2000
   12.0580   -0.2102   -1.6751 C   0  0  0  0  0  0  0  0  0  0  0  0
   11.0357    0.7390   -1.7726 O   0  0  0  0  0  0  0  0  0  0  0  0
    9.8481    0.1264   -1.3411 C   0  0  0  0  0  0  0  0  0  0  0  0
    8.7294    1.1005   -1.4272 C   0  0  0  0  0  0  0  0  0  0  0  0
    8.9623    2.2659   -1.8601 O   0  0  0  0  0  0  0  0  0  0  0  0
    7.4214    0.7730   -1.0445 N   0  0  0  0  0  0  0  0  0  0  0  0
    6.9998   -0.4744   -0.5382 C   0  0  0  0  0  0  0  0  0  0  0  0
    7.8590   -1.3880   -0.4109 O   0  0  0  0  0  0  0  0  0  0  0  0
    5.5975   -0.7165   -0.1644 C   0  0  0  0  0  0  0  0  0  0  0  0
    4.5661    0.1406   -0.2369 N   0  0  0  0  0  0  0  0  0  0  0  0
    3.4508   -0.4784    0.2034 C   0  0  0  0  0  0  0  0  0  0  0  0
    3.8618   -1.7486    0.5439 C   0  0  0  0  0  0  0  0  0  0  0  0
    5.1612   -1.8514    0.3073 O   0  0  0  0  0  0  0  0  0  0  0  0
    2.1201    0.1023    0.2862 C   0  0  0  0  0  0  0  0  0  0  0  0
    1.8576    1.3980   -0.0939 C   0  0  0  0  0  0  0  0  0  0  0  0
    0.5953    1.9266   -0.0079 C   0  0  0  0  0  0  0  0  0  0  0  0
   -0.4943    1.1723    0.4725 C   0  0  0  0  0  0  0  0  0  0  0  0
   -1.7166    1.7686    0.5274 O   0  0  0  0  0  0  0  0  0  0  0  0
   -2.9357    1.3570    0.9198 C   0  0  0  0  0  0  0  0  0  0  0  0
   -3.9889    2.2869    0.8273 C   0  0  0  0  0  0  0  0  0  0  0  0
   -5.2699    1.9760    1.1989 C   0  0  0  0  0  0  0  0  0  0  0  0
   -5.5846    0.7289    1.6831 C   0  0  0  0  0  0  0  0  0  0  0  0
   -4.5565   -0.1787    1.7733 C   0  0  0  0  0  0  0  0  0  0  0  0
   -3.2537    0.1200    1.4013 C   0  0  0  0  0  0  0  0  0  0  0  0
   -7.1892    0.3076    2.1592 S   0  0  0  0  0  0  0  0  0  0  0  0
   -7.1396   -0.7306    3.2707 O   0  0  0  0  0  0  0  0  0  0  0  0
   -7.9469    1.4817    2.7370 O   0  0  0  0  0  0  0  0  0  0  0  0
   -8.1363   -0.3488    0.8993 N   0  0  0  0  0  0  0  0  0  0  0  0
   -8.3370    0.5439   -0.1992 C   0  0  0  0  0  0  0  0  0  0  0  0
   -8.2212   -0.2494   -1.4730 C   0  0  0  0  0  0  0  0  0  0  0  0
   -8.0130   -1.6721   -1.0691 C   0  0  0  0  0  0  0  0  0  0  0  0
   -7.6289   -1.5924    0.3801 C   0  0  0  0  0  0  0  0  0  0  0  0
   -0.1851   -0.0812    0.8286 N   0  0  0  0  0  0  0  0  0  0  0  0
    1.0431   -0.6213    0.7536 C   0  0  0  0  0  0  0  0  0  0  0  0
   12.1308   -0.5253   -0.6059 H   0  0  0  0  0  0  0  0  0  0  0  0
   11.8579   -1.0548   -2.3492 H   0  0  0  0  0  0  0  0  0  0  0  0
   13.0141    0.2491   -1.9368 H   0  0  0  0  0  0  0  0  0  0  0  0
    9.9716   -0.1597   -0.2912 H   0  0  0  0  0  0  0  0  0  0  0  0
    9.5905   -0.7351   -1.9865 H   0  0  0  0  0  0  0  0  0  0  0  0
    6.6643    1.5155   -1.1339 H   0  0  0  0  0  0  0  0  0  0  0  0
    3.2076   -2.5024    0.9332 H   0  0  0  0  0  0  0  0  0  0  0  0
    2.7106    1.9793   -0.4669 H   0  0  0  0  0  0  0  0  0  0  0  0
    0.4095    2.9416   -0.3098 H   0  0  0  0  0  0  0  0  0  0  0  0
   -3.7347    3.2734    0.4432 H   0  0  0  0  0  0  0  0  0  0  0  0
   -6.0186    2.7536    1.0941 H   0  0  0  0  0  0  0  0  0  0  0  0
   -4.7236   -1.1928    2.1486 H   0  0  0  0  0  0  0  0  0  0  0  0
   -2.5020   -0.6422    1.5003 H   0  0  0  0  0  0  0  0  0  0  0  0
   -9.3932    0.9100   -0.1425 H   0  0  0  0  0  0  0  0  0  0  0  0
   -7.7020    1.4404   -0.1767 H   0  0  0  0  0  0  0  0  0  0  0  0
   -7.3463    0.0998   -2.0928 H   0  0  0  0  0  0  0  0  0  0  0  0
   -9.1109   -0.1374   -2.1205 H   0  0  0  0  0  0  0  0  0  0  0  0
   -7.1680   -2.1145   -1.6250 H   0  0  0  0  0  0  0  0  0  0  0  0
   -8.9283   -2.3012   -1.2405 H   0  0  0  0  0  0  0  0  0  0  0  0
   -8.1879   -2.4146    0.9043 H   0  0  0  0  0  0  0  0  0  0  0  0
   -6.5532   -1.7431    0.5379 H   0  0  0  0  0  0  0  0  0  0  0  0
    1.2421   -1.6519    1.0579 H   0  0  0  0  0  0  0  0  0  0  0  0
  1  2  1  0
  2  3  1  0
  3  4  1  0
  4  5  2  0
  4  6  1  0
  6  7  1  0
  7  8  2  0
  7  9  1  0
  9 10  2  0
 10 11  1  0
 11 12  2  0
 12 13  1  0
 11 14  1  0
 14 15  2  0
 15 16  1  0
 16 17  2  0
 17 18  1  0
 18 19  1  0
 19 20  2  0
 20 21  1  0
 21 22  2  0
 22 23  1  0
 23 24  2  0
 22 25  1  0
 25 26  2  0
 25 27  2  0
 25 28  1  0
 28 29  1  0
 29 30  1  0
 30 31  1  0
 31 32  1  0
 17 33  1  0
 33 34  2  0
 13  9  1  0
 34 14  1  0
 24 19  1  0
 32 28  1  0
  1 35  1  0
  1 36  1  0
  1 37  1  0
  3 38  1  0
  3 39  1  0
  6 40  1  0
 12 41  1  0
 15 42  1  0
 16 43  1  0
 20 44  1  0
 21 45  1  0
 23 46  1  0
 24 47  1  0
 29 48  1  0
 29 49  1  0
 30 50  1  0
 30 51  1  0
 31 52  1  0
 31 53  1  0
 32 54  1  0
 32 55  1  0
 34 56  1  0
M  END
$$$$
[H]c1nc(N([H])c2c([H])c([H])c(OC([H])([H])[H])c(Cl)c2[H])nc(N([H])c2c([H])c([H])c([H])c([H])c2S(=O)(=O)N(C([H])([H])[H])C([H])([H])[H])c1Cl
     RDKit          3D

 49 51  0  0  0  0  0  0  0  0999 V2000
    9.2124   -0.9248    0.2003 C   0  0  0  0  0  0  0  0  0  0  0  0
    8.3952    0.2062    0.0366 O   0  0  0  0  0  0  0  0  0  0  0  0
    7.0192    0.1972    0.0834 C   0  0  0  0  0  0  0  0  0  0  0  0
    6.2700   -0.9307    0.2981 C   0  0  0  0  0  0  0  0  0  0  0  0
    4.8628   -0.8622    0.3328 C   0  0  0  0  0  0  0  0  0  0  0  0
    4.2018    0.3083    0.1567 C   0  0  0  0  0  0  0  0  0  0  0  0
    2.8231    0.4344    0.1593 N   0  0  0  0  0  0  0  0  0  0  0  0
    1.8232   -0.5668    0.0327 C   0  0  0  0  0  0  0  0  0  0  0  0
    2.1002   -1.8616   -0.1278 N   0  0  0  0  0  0  0  0  0  0  0  0
    1.1605   -2.8124   -0.2480 C   0  0  0  0  0  0  0  0  0  0  0  0
   -0.1557   -2.4145   -0.2011 C   0  0  0  0  0  0  0  0  0  0  0  0
   -1.3866   -3.6189   -0.3533 Cl  0  0  0  0  0  0  0  0  0  0  0  0
   -0.5190   -1.0573   -0.0330 C   0  0  0  0  0  0  0  0  0  0  0  0
   -1.8822   -0.7650   -0.0031 N   0  0  0  0  0  0  0  0  0  0  0  0
   -2.4663    0.5064    0.1572 C   0  0  0  0  0  0  0  0  0  0  0  0
   -1.7932    1.6857    0.3648 C   0  0  0  0  0  0  0  0  0  0  0  0
   -2.4564    2.9098    0.5268 C   0  0  0  0  0  0  0  0  0  0  0  0
   -3.8227    2.9645    0.4820 C   0  0  0  0  0  0  0  0  0  0  0  0
   -4.5372    1.8025    0.2756 C   0  0  0  0  0  0  0  0  0  0  0  0
   -3.8781    0.6197    0.1191 C   0  0  0  0  0  0  0  0  0  0  0  0
   -4.8033   -0.8308   -0.1341 S   0  0  0  0  0  0  0  0  0  0  0  0
   -4.6300   -1.8009    1.0159 O   0  0  0  0  0  0  0  0  0  0  0  0
   -4.4668   -1.4962   -1.4676 O   0  0  0  0  0  0  0  0  0  0  0  0
   -6.5009   -0.5420   -0.2273 N   0  0  0  0  0  0  0  0  0  0  0  0
   -6.9116    0.2904   -1.3035 C   0  0  0  0  0  0  0  0  0  0  0  0
   -7.0471   -0.2328    1.0519 C   0  0  0  0  0  0  0  0  0  0  0  0
    0.5113   -0.2344    0.0714 N   0  0  0  0  0  0  0  0  0  0  0  0
    4.9844    1.4492   -0.0609 C   0  0  0  0  0  0  0  0  0  0  0  0
    6.3619    1.3939   -0.0967 C   0  0  0  0  0  0  0  0  0  0  0  0
    7.2930    2.8630   -0.3745 Cl  0  0  0  0  0  0  0  0  0  0  0  0
    8.9019   -1.7761   -0.4470 H   0  0  0  0  0  0  0  0  0  0  0  0
    9.3168   -1.2420    1.2612 H   0  0  0  0  0  0  0  0  0  0  0  0
   10.2376   -0.6403   -0.1301 H   0  0  0  0  0  0  0  0  0  0  0  0
    6.8017   -1.8554    0.4364 H   0  0  0  0  0  0  0  0  0  0  0  0
    4.4072   -1.8174    0.5218 H   0  0  0  0  0  0  0  0  0  0  0  0
    2.4482    1.4519    0.2810 H   0  0  0  0  0  0  0  0  0  0  0  0
    1.3978   -3.8582   -0.3776 H   0  0  0  0  0  0  0  0  0  0  0  0
   -2.5371   -1.5677   -0.1052 H   0  0  0  0  0  0  0  0  0  0  0  0
   -0.7128    1.6798    0.4088 H   0  0  0  0  0  0  0  0  0  0  0  0
   -1.8817    3.8026    0.6863 H   0  0  0  0  0  0  0  0  0  0  0  0
   -4.3842    3.8932    0.6027 H   0  0  0  0  0  0  0  0  0  0  0  0
   -5.6370    1.8825    0.2553 H   0  0  0  0  0  0  0  0  0  0  0  0
   -6.0322    0.6742   -1.8561 H   0  0  0  0  0  0  0  0  0  0  0  0
   -7.4920   -0.3223   -2.0450 H   0  0  0  0  0  0  0  0  0  0  0  0
   -7.5774    1.0848   -0.9409 H   0  0  0  0  0  0  0  0  0  0  0  0
   -7.6329    0.7133    0.9644 H   0  0  0  0  0  0  0  0  0  0  0  0
   -6.2012   -0.1274    1.7762 H   0  0  0  0  0  0  0  0  0  0  0  0
   -7.7217   -1.0796    1.3508 H   0  0  0  0  0  0  0  0  0  0  0  0
    4.5371    2.4243   -0.2105 H   0  0  0  0  0  0  0  0  0  0  0  0
  1  2  1  0
  2  3  1  0
  3  4  2  0
  4  5  1  0
  5  6  2  0
  6  7  1  0
  7  8  1  0
  8  9  2  0
  9 10  1  0
 10 11  2  0
 11 12  1  0
 11 13  1  0
 13 14  1  0
 14 15  1  0
 15 16  2  0
 16 17  1  0
 17 18  2  0
 18 19  1  0
 19 20  2  0
 20 21  1  0
 21 22  2  0
 21 23  2  0
 21 24  1  0
 24 25  1  0
 24 26  1  0
 13 27  2  0
  6 28  1  0
 28 29  2  0
 29 30  1  0
 29  3  1  0
 27  8  1  0
 20 15  1  0
  1 31  1  0
  1 32  1  0
  1 33  1  0
  4 34  1  0
  5 35  1  0
  7 36  1  0
 10 37  1  0
 14 38  1  0
 16 39  1  0
 17 40  1  0
 18 41  1  0
 19 42  1  0
 25 43  1  0
 25 44  1  0
 25 45  1  0
 26 46  1  0
 26 47  1  0
 26 48  1  0
 28 49  1  0
M  END
$$$$
[H]N=C(N([H])[H])N([H])C([H])([H])C([H])([H])C([H])([H])[C@@]([H])(C(=O)OC(C([H])([H])[H])(C([H])([H])[H])C([H])([H])[H])N([H])C(=O)[C@@]([H])(N([H])C(=O)[C@@]([H])(N([H])C(=O)[C@]([H])(N([H])C(=O)OC(C([H])([H])[H])(C([H])([H])[H])C([H])([H])[H])C([H])([H])c1c([H])c([H])c([H])c([H])c1[H])C([H])([H])C([H])([H])C([H])([H])N([H])C(=N[H])N([H])[H])C([H])([H])C([H])([H])C([H])([H])N([H])C(=N[H])N([H])[H]
     RDKit          3D

119119  0  0  0  0  0  0  0  0999 V2000
   -4.8223    6.3990    3.3609 N   0  0  0  0  0  0  0  0  0  0  0  0
   -3.8300    5.3439    3.3885 C   0  0  0  0  0  0  0  0  0  0  0  0
   -3.9311    4.3815    4.2295 N   0  0  0  0  0  0  0  0  0  0  0  0
   -2.7414    5.3829    2.4900 N   0  0  0  0  0  0  0  0  0  0  0  0
   -2.5519    4.5282    1.3841 C   0  0  0  0  0  0  0  0  0  0  0  0
   -2.2186    3.0832    1.7127 C   0  0  0  0  0  0  0  0  0  0  0  0
   -2.0249    2.3928    0.3822 C   0  0  0  0  0  0  0  0  0  0  0  0
   -1.6272    0.9699    0.4313 C   0  0  2  0  0  0  0  0  0  0  0  0
   -2.5894    0.1083    1.1366 N   0  0  0  0  0  0  0  0  0  0  0  0
   -3.4339   -0.7310    0.4175 C   0  0  0  0  0  0  0  0  0  0  0  0
   -3.3944   -0.7401   -0.8341 O   0  0  0  0  0  0  0  0  0  0  0  0
   -4.4097   -1.6504    1.0952 C   0  0  1  0  0  0  0  0  0  0  0  0
   -5.1209   -0.8208    2.1854 C   0  0  0  0  0  0  0  0  0  0  0  0
   -6.0714   -1.8183    2.7983 C   0  0  0  0  0  0  0  0  0  0  0  0
   -7.3794   -1.8878    2.3327 C   0  0  0  0  0  0  0  0  0  0  0  0
   -8.2905   -2.8143    2.8375 C   0  0  0  0  0  0  0  0  0  0  0  0
   -7.8812   -3.6894    3.8292 C   0  0  0  0  0  0  0  0  0  0  0  0
   -6.5870   -3.6067    4.2751 C   0  0  0  0  0  0  0  0  0  0  0  0
   -5.6933   -2.6915    3.7749 C   0  0  0  0  0  0  0  0  0  0  0  0
   -5.2720   -2.2434    0.2256 N   0  0  0  0  0  0  0  0  0  0  0  0
   -6.1431   -2.8754   -0.6448 C   0  0  0  0  0  0  0  0  0  0  0  0
   -6.4172   -4.0837   -0.7090 O   0  0  0  0  0  0  0  0  0  0  0  0
   -6.8466   -2.1052   -1.5959 O   0  0  0  0  0  0  0  0  0  0  0  0
   -7.7524   -2.5115   -2.5441 C   0  0  0  0  0  0  0  0  0  0  0  0
   -8.2354   -1.2122   -3.2424 C   0  0  0  0  0  0  0  0  0  0  0  0
   -7.1393   -3.3464   -3.6485 C   0  0  0  0  0  0  0  0  0  0  0  0
   -8.9814   -3.1623   -2.0153 C   0  0  0  0  0  0  0  0  0  0  0  0
   -0.2626    0.7535    1.0818 C   0  0  0  0  0  0  0  0  0  0  0  0
   -0.3673    0.8477    2.3607 O   0  0  0  0  0  0  0  0  0  0  0  0
    0.7836    0.5037    0.3548 N   0  0  0  0  0  0  0  0  0  0  0  0
    1.9294    0.2302   -0.4274 C   0  0  1  0  0  0  0  0  0  0  0  0
    1.9711    1.2199   -1.5709 C   0  0  0  0  0  0  0  0  0  0  0  0
    1.9442    2.6531   -1.2276 C   0  0  0  0  0  0  0  0  0  0  0  0
    2.9708    3.2399   -0.3482 C   0  0  0  0  0  0  0  0  0  0  0  0
    2.8327    4.6858   -0.1305 N   0  0  0  0  0  0  0  0  0  0  0  0
    3.0667    5.6798   -1.1076 C   0  0  0  0  0  0  0  0  0  0  0  0
    2.0016    6.4074   -1.7120 N   0  0  0  0  0  0  0  0  0  0  0  0
    4.3039    5.9270   -1.4390 N   0  0  0  0  0  0  0  0  0  0  0  0
    3.2999    0.0487    0.0508 C   0  0  0  0  0  0  0  0  0  0  0  0
    3.7118    0.3737    1.1589 O   0  0  0  0  0  0  0  0  0  0  0  0
    4.1913   -0.5755   -0.9103 N   0  0  0  0  0  0  0  0  0  0  0  0
    5.5383   -0.9202   -0.8911 C   0  0  1  0  0  0  0  0  0  0  0  0
    5.6190   -2.4420   -0.6031 C   0  0  0  0  0  0  0  0  0  0  0  0
    5.1265   -2.8474    0.7278 C   0  0  0  0  0  0  0  0  0  0  0  0
    6.0540   -2.2272    1.7461 C   0  0  0  0  0  0  0  0  0  0  0  0
    5.6493   -2.6230    3.0734 N   0  0  0  0  0  0  0  0  0  0  0  0
    6.5111   -2.2258    4.1307 C   0  0  0  0  0  0  0  0  0  0  0  0
    7.3085   -3.2051    4.7792 N   0  0  0  0  0  0  0  0  0  0  0  0
    6.5759   -1.0100    4.4829 N   0  0  0  0  0  0  0  0  0  0  0  0
    6.1466   -0.8474   -2.2779 C   0  0  0  0  0  0  0  0  0  0  0  0
    5.3715   -0.6142   -3.2718 O   0  0  0  0  0  0  0  0  0  0  0  0
    7.4824   -1.0204   -2.5526 O   0  0  0  0  0  0  0  0  0  0  0  0
    8.0011   -0.9912   -3.8725 C   0  0  0  0  0  0  0  0  0  0  0  0
    7.4822   -2.1198   -4.7205 C   0  0  0  0  0  0  0  0  0  0  0  0
    9.4971   -1.0087   -3.8131 C   0  0  0  0  0  0  0  0  0  0  0  0
    7.5633    0.2920   -4.5826 C   0  0  0  0  0  0  0  0  0  0  0  0
   -5.5414    6.3826    2.6553 H   0  0  0  0  0  0  0  0  0  0  0  0
   -4.7700    7.1494    4.0685 H   0  0  0  0  0  0  0  0  0  0  0  0
   -3.2769    3.5906    4.3231 H   0  0  0  0  0  0  0  0  0  0  0  0
   -2.0039    6.1411    2.6826 H   0  0  0  0  0  0  0  0  0  0  0  0
   -3.4630    4.5929    0.7049 H   0  0  0  0  0  0  0  0  0  0  0  0
   -1.7405    4.9701    0.7402 H   0  0  0  0  0  0  0  0  0  0  0  0
   -1.3997    3.0208    2.4038 H   0  0  0  0  0  0  0  0  0  0  0  0
   -3.1350    2.6616    2.2209 H   0  0  0  0  0  0  0  0  0  0  0  0
   -3.0480    2.4151   -0.1043 H   0  0  0  0  0  0  0  0  0  0  0  0
   -1.3943    2.9710   -0.3243 H   0  0  0  0  0  0  0  0  0  0  0  0
   -1.5884    0.6050   -0.6060 H   0  0  0  0  0  0  0  0  0  0  0  0
   -2.6111    0.1388    2.1697 H   0  0  0  0  0  0  0  0  0  0  0  0
   -3.7909   -2.3620    1.7303 H   0  0  0  0  0  0  0  0  0  0  0  0
   -5.6586   -0.0107    1.7103 H   0  0  0  0  0  0  0  0  0  0  0  0
   -4.3389   -0.5122    2.8941 H   0  0  0  0  0  0  0  0  0  0  0  0
   -7.6494   -1.1769    1.5501 H   0  0  0  0  0  0  0  0  0  0  0  0
   -9.3011   -2.8496    2.4601 H   0  0  0  0  0  0  0  0  0  0  0  0
   -8.5789   -4.4268    4.2412 H   0  0  0  0  0  0  0  0  0  0  0  0
   -6.2659   -4.2944    5.0460 H   0  0  0  0  0  0  0  0  0  0  0  0
   -4.6515   -2.6268    4.1236 H   0  0  0  0  0  0  0  0  0  0  0  0
   -5.1155   -3.4449    0.8663 H   0  0  0  0  0  0  0  0  0  0  0  0
   -9.3045   -1.2587   -3.4887 H   0  0  0  0  0  0  0  0  0  0  0  0
   -7.6689   -1.0184   -4.1664 H   0  0  0  0  0  0  0  0  0  0  0  0
   -8.0820   -0.3306   -2.5648 H   0  0  0  0  0  0  0  0  0  0  0  0
   -6.1710   -2.8973   -3.9527 H   0  0  0  0  0  0  0  0  0  0  0  0
   -7.0709   -4.4113   -3.3730 H   0  0  0  0  0  0  0  0  0  0  0  0
   -7.8281   -3.2618   -4.5058 H   0  0  0  0  0  0  0  0  0  0  0  0
   -9.6658   -2.4595   -1.4875 H   0  0  0  0  0  0  0  0  0  0  0  0
   -9.5091   -3.6134   -2.8841 H   0  0  0  0  0  0  0  0  0  0  0  0
   -8.7685   -3.9578   -1.2773 H   0  0  0  0  0  0  0  0  0  0  0  0
    1.5858    0.3108    1.4607 H   0  0  0  0  0  0  0  0  0  0  0  0
    1.7428   -0.8584   -0.8758 H   0  0  0  0  0  0  0  0  0  0  0  0
    1.0902    0.9937   -2.2126 H   0  0  0  0  0  0  0  0  0  0  0  0
    2.8776    1.0605   -2.2257 H   0  0  0  0  0  0  0  0  0  0  0  0
    0.9399    2.9897   -0.8303 H   0  0  0  0  0  0  0  0  0  0  0  0
    1.9902    3.2165   -2.2181 H   0  0  0  0  0  0  0  0  0  0  0  0
    2.8253    2.8443    0.7163 H   0  0  0  0  0  0  0  0  0  0  0  0
    4.0196    3.1032   -0.6700 H   0  0  0  0  0  0  0  0  0  0  0  0
    2.5304    5.0727    0.8170 H   0  0  0  0  0  0  0  0  0  0  0  0
    2.0983    6.7493   -2.6822 H   0  0  0  0  0  0  0  0  0  0  0  0
    1.1384    6.6007   -1.1972 H   0  0  0  0  0  0  0  0  0  0  0  0
    5.0760    5.4007   -0.9879 H   0  0  0  0  0  0  0  0  0  0  0  0
    3.6956   -0.8339   -1.8632 H   0  0  0  0  0  0  0  0  0  0  0  0
    6.1418   -0.3776   -0.1943 H   0  0  0  0  0  0  0  0  0  0  0  0
    6.6877   -2.7082   -0.7455 H   0  0  0  0  0  0  0  0  0  0  0  0
    5.0413   -2.9101   -1.4500 H   0  0  0  0  0  0  0  0  0  0  0  0
    5.1878   -3.9410    0.8303 H   0  0  0  0  0  0  0  0  0  0  0  0
    4.0741   -2.5649    0.8929 H   0  0  0  0  0  0  0  0  0  0  0  0
    6.0651   -1.1265    1.7092 H   0  0  0  0  0  0  0  0  0  0  0  0
    7.0713   -2.5723    1.5085 H   0  0  0  0  0  0  0  0  0  0  0  0
    4.7694   -3.1683    3.2341 H   0  0  0  0  0  0  0  0  0  0  0  0
    8.2269   -2.9096    5.2396 H   0  0  0  0  0  0  0  0  0  0  0  0
    7.1121   -4.2044    4.8668 H   0  0  0  0  0  0  0  0  0  0  0  0
    6.0954   -0.1874    4.1348 H   0  0  0  0  0  0  0  0  0  0  0  0
    8.3578   -2.5296   -5.2989 H   0  0  0  0  0  0  0  0  0  0  0  0
    7.0874   -2.9659   -4.1359 H   0  0  0  0  0  0  0  0  0  0  0  0
    6.7758   -1.7754   -5.5286 H   0  0  0  0  0  0  0  0  0  0  0  0
    9.8538   -1.2235   -2.7863 H   0  0  0  0  0  0  0  0  0  0  0  0
    9.9816   -1.7789   -4.4502 H   0  0  0  0  0  0  0  0  0  0  0  0
    9.9043    0.0107   -4.0394 H   0  0  0  0  0  0  0  0  0  0  0  0
    8.3970    0.5811   -5.2457 H   0  0  0  0  0  0  0  0  0  0  0  0
    7.3471    1.1179   -3.9065 H   0  0  0  0  0  0  0  0  0  0  0  0
    6.6861    0.0745   -5.2634 H   0  0  0  0  0  0  0  0  0  0  0  0
  1  2  1  0
  2  3  2  3
  2  4  1  0
  4  5  1  0
  5  6  1  0
  6  7  1  0
  7  8  1  0
  8  9  1  0
  9 10  1  0
 10 11  2  0
 10 12  1  0
 12 13  1  0
 13 14  1  0
 14 15  2  0
 15 16  1  0
 16 17  2  0
 17 18  1  0
 18 19  2  0
 12 20  1  0
 20 21  1  0
 21 22  2  0
 21 23  1  0
 23 24  1  0
 24 25  1  0
 24 26  1  0
 24 27  1  0
  8 28  1  0
 28 29  2  0
 28 30  1  0
 30 31  1  0
 31 32  1  0
 32 33  1  0
 33 34  1  0
 34 35  1  0
 35 36  1  0
 36 37  1  0
 36 38  2  3
 31 39  1  0
 39 40  2  0
 39 41  1  0
 41 42  1  0
 42 43  1  0
 43 44  1  0
 44 45  1  0
 45 46  1  0
 46 47  1  0
 47 48  1  0
 47 49  2  3
 42 50  1  0
 50 51  2  0
 50 52  1  0
 52 53  1  0
 53 54  1  0
 53 55  1  0
 53 56  1  0
 19 14  1  0
  1 57  1  0
  1 58  1  0
  3 59  1  0
  4 60  1  0
  5 61  1  0
  5 62  1  0
  6 63  1  0
  6 64  1  0
  7 65  1  0
  7 66  1  0
  8 67  1  6
  9 68  1  0
 12 69  1  1
 13 70  1  0
 13 71  1  0
 15 72  1  0
 16 73  1  0
 17 74  1  0
 18 75  1  0
 19 76  1  0
 20 77  1  0
 25 78  1  0
 25 79  1  0
 25 80  1  0
 26 81  1  0
 26 82  1  0
 26 83  1  0
 27 84  1  0
 27 85  1  0
 27 86  1  0
 30 87  1  0
 31 88  1  6
 32 89  1  0
 32 90  1  0
 33 91  1  0
 33 92  1  0
 34 93  1  0
 34 94  1  0
 35 95  1  0
 37 96  1  0
 37 97  1  0
 38 98  1  0
 41 99  1  0
 42100  1  1
 43101  1  0
 43102  1  0
 44103  1  0
 44104  1  0
 45105  1  0
 45106  1  0
 46107  1  0
 48108  1  0
 48109  1  0
 49110  1  0
 54111  1  0
 54112  1  0
 54113  1  0
 55114  1  0
 55115  1  0
 55116  1  0
 56117  1  0
 56118  1  0
 56119  1  0
M  END
$$$$
[H]OC(=O)[C@@]([H])(N([H])C(=O)[C@@]([H])(N([H])C(=O)[C@@]([H])(N([H])C(=O)[C@@]([H])(N([H])C(=O)[C@@]([H])(N([H])[H])C([H])([H])c1c([H])c([H])c([H])c([H])c1[H])C([H])([H])c1c([H])c([H])c([H])c([H])c1[H])C([H])([H])C([H])(C([H])([H])[H])C([H])([H])[H])C([H])([H])C([H])([H])C([H])([H])C([H])([H])N([H])[H])C([H])([H])c1c([H])n([H])c2c([H])c([H])c([H])c([H])c12
     RDKit          3D

107110  0  0  0  0  0  0  0  0999 V2000
    2.4734    3.7393    1.8717 C   0  0  0  0  0  0  0  0  0  0  0  0
    1.0748    4.2065    1.7821 C   0  0  0  0  0  0  0  0  0  0  0  0
    0.8881    5.1426    3.0180 C   0  0  0  0  0  0  0  0  0  0  0  0
    0.0314    3.2233    1.8600 C   0  0  0  0  0  0  0  0  0  0  0  0
   -0.3207    2.0955    1.0420 C   0  0  2  0  0  0  0  0  0  0  0  0
   -1.5442    1.5754    1.7083 N   0  0  0  0  0  0  0  0  0  0  0  0
   -2.7646    1.2425    1.1519 C   0  0  0  0  0  0  0  0  0  0  0  0
   -2.8230    1.3621   -0.1231 O   0  0  0  0  0  0  0  0  0  0  0  0
   -3.9771    0.7901    1.8485 C   0  0  2  0  0  0  0  0  0  0  0  0
   -3.8842   -0.1444    2.9684 C   0  0  0  0  0  0  0  0  0  0  0  0
   -3.3278   -1.4724    2.7903 C   0  0  0  0  0  0  0  0  0  0  0  0
   -4.2178   -2.4835    2.3960 C   0  0  0  0  0  0  0  0  0  0  0  0
   -3.8452   -3.7895    2.1961 C   0  0  0  0  0  0  0  0  0  0  0  0
   -2.5165   -4.0858    2.4043 C   0  0  0  0  0  0  0  0  0  0  0  0
   -1.6119   -3.1070    2.7955 C   0  0  0  0  0  0  0  0  0  0  0  0
   -2.0167   -1.8157    2.9855 C   0  0  0  0  0  0  0  0  0  0  0  0
   -5.0849    0.4882    0.9745 N   0  0  0  0  0  0  0  0  0  0  0  0
   -6.0266    1.4403    0.5012 C   0  0  0  0  0  0  0  0  0  0  0  0
   -5.8533    2.6426    0.8510 O   0  0  0  0  0  0  0  0  0  0  0  0
   -7.1636    1.0478   -0.3604 C   0  0  1  0  0  0  0  0  0  0  0  0
   -7.7593    2.1988   -0.9679 N   0  0  0  0  0  0  0  0  0  0  0  0
   -6.8214    0.0422   -1.4327 C   0  0  0  0  0  0  0  0  0  0  0  0
   -8.0282   -0.3054   -2.2331 C   0  0  0  0  0  0  0  0  0  0  0  0
   -8.8502   -1.3601   -1.8608 C   0  0  0  0  0  0  0  0  0  0  0  0
   -9.9929   -1.6550   -2.6065 C   0  0  0  0  0  0  0  0  0  0  0  0
  -10.3428   -0.9277   -3.7179 C   0  0  0  0  0  0  0  0  0  0  0  0
   -9.5182    0.1134   -4.0728 C   0  0  0  0  0  0  0  0  0  0  0  0
   -8.3655    0.4279   -3.3398 C   0  0  0  0  0  0  0  0  0  0  0  0
    0.4754    1.0056    0.5648 C   0  0  0  0  0  0  0  0  0  0  0  0
   -0.1527   -0.1518    0.6259 O   0  0  0  0  0  0  0  0  0  0  0  0
    1.7412    0.8500    0.0549 N   0  0  0  0  0  0  0  0  0  0  0  0
    2.5170   -0.2853   -0.3682 C   0  0  1  0  0  0  0  0  0  0  0  0
    2.0492   -1.6614   -0.0858 C   0  0  0  0  0  0  0  0  0  0  0  0
    1.9641   -2.1479    1.3012 C   0  0  0  0  0  0  0  0  0  0  0  0
    3.3162   -2.1687    2.0126 C   0  0  0  0  0  0  0  0  0  0  0  0
    4.2799   -3.0721    1.3080 C   0  0  0  0  0  0  0  0  0  0  0  0
    3.7953   -4.4424    1.2467 N   0  0  0  0  0  0  0  0  0  0  0  0
    3.1776   -0.0654   -1.6620 C   0  0  0  0  0  0  0  0  0  0  0  0
    2.9608    1.0469   -2.2492 O   0  0  0  0  0  0  0  0  0  0  0  0
    4.0240   -0.9891   -2.2881 N   0  0  0  0  0  0  0  0  0  0  0  0
    4.6533   -0.7540   -3.5573 C   0  0  1  0  0  0  0  0  0  0  0  0
    6.1409   -0.7704   -3.5960 C   0  0  0  0  0  0  0  0  0  0  0  0
    6.8416    0.2303   -2.7830 C   0  0  0  0  0  0  0  0  0  0  0  0
    7.3427    1.4459   -3.2789 C   0  0  0  0  0  0  0  0  0  0  0  0
    7.8920    2.1107   -2.2683 N   0  0  0  0  0  0  0  0  0  0  0  0
    7.7726    1.3856   -1.1435 C   0  0  0  0  0  0  0  0  0  0  0  0
    8.1925    1.6474    0.1456 C   0  0  0  0  0  0  0  0  0  0  0  0
    7.9769    0.7495    1.1672 C   0  0  0  0  0  0  0  0  0  0  0  0
    7.3289   -0.4249    0.8676 C   0  0  0  0  0  0  0  0  0  0  0  0
    6.8947   -0.7120   -0.4241 C   0  0  0  0  0  0  0  0  0  0  0  0
    7.1130    0.1918   -1.4344 C   0  0  0  0  0  0  0  0  0  0  0  0
    4.0643   -1.6784   -4.5868 C   0  0  0  0  0  0  0  0  0  0  0  0
    4.5091   -1.6585   -5.8865 O   0  0  0  0  0  0  0  0  0  0  0  0
    3.1496   -2.4877   -4.2700 O   0  0  0  0  0  0  0  0  0  0  0  0
    2.9990    3.7874    0.8806 H   0  0  0  0  0  0  0  0  0  0  0  0
    3.1159    4.4086    2.5296 H   0  0  0  0  0  0  0  0  0  0  0  0
    2.5965    2.7294    2.3012 H   0  0  0  0  0  0  0  0  0  0  0  0
    0.9340    4.9578    0.9359 H   0  0  0  0  0  0  0  0  0  0  0  0
    1.2259    4.6293    3.9178 H   0  0  0  0  0  0  0  0  0  0  0  0
   -0.2155    5.3857    3.0354 H   0  0  0  0  0  0  0  0  0  0  0  0
    1.3965    6.0867    2.7731 H   0  0  0  0  0  0  0  0  0  0  0  0
   -0.9641    3.8537    1.9381 H   0  0  0  0  0  0  0  0  0  0  0  0
    0.0223    2.8965    3.0057 H   0  0  0  0  0  0  0  0  0  0  0  0
   -0.8131    2.5197    0.0747 H   0  0  0  0  0  0  0  0  0  0  0  0
   -1.4204    1.4489    2.7665 H   0  0  0  0  0  0  0  0  0  0  0  0
   -4.3327    1.8008    2.3261 H   0  0  0  0  0  0  0  0  0  0  0  0
   -3.3846    0.2933    3.8706 H   0  0  0  0  0  0  0  0  0  0  0  0
   -4.9479   -0.2960    3.3525 H   0  0  0  0  0  0  0  0  0  0  0  0
   -5.2836   -2.2830    2.2275 H   0  0  0  0  0  0  0  0  0  0  0  0
   -4.5391   -4.5730    1.8905 H   0  0  0  0  0  0  0  0  0  0  0  0
   -2.1666   -5.1092    2.2569 H   0  0  0  0  0  0  0  0  0  0  0  0
   -0.5574   -3.3399    2.9584 H   0  0  0  0  0  0  0  0  0  0  0  0
   -1.3338   -1.0350    3.2822 H   0  0  0  0  0  0  0  0  0  0  0  0
   -5.2004   -0.4973    0.6644 H   0  0  0  0  0  0  0  0  0  0  0  0
   -7.9800    0.6091    0.3072 H   0  0  0  0  0  0  0  0  0  0  0  0
   -7.7552    3.0340   -0.3363 H   0  0  0  0  0  0  0  0  0  0  0  0
   -8.7753    1.9682   -1.1639 H   0  0  0  0  0  0  0  0  0  0  0  0
   -6.0023    0.4705   -2.0419 H   0  0  0  0  0  0  0  0  0  0  0  0
   -6.4246   -0.8678   -0.9353 H   0  0  0  0  0  0  0  0  0  0  0  0
   -8.5632   -1.9236   -0.9842 H   0  0  0  0  0  0  0  0  0  0  0  0
  -10.6118   -2.4939   -2.2657 H   0  0  0  0  0  0  0  0  0  0  0  0
  -11.2415   -1.2009   -4.2701 H   0  0  0  0  0  0  0  0  0  0  0  0
   -9.7568    0.7132   -4.9402 H   0  0  0  0  0  0  0  0  0  0  0  0
   -7.7292    1.2510   -3.6386 H   0  0  0  0  0  0  0  0  0  0  0  0
    2.2875    1.7668   -0.1077 H   0  0  0  0  0  0  0  0  0  0  0  0
    3.4342   -0.2444    0.4124 H   0  0  0  0  0  0  0  0  0  0  0  0
    2.7561   -2.3647   -0.6265 H   0  0  0  0  0  0  0  0  0  0  0  0
    1.0629   -1.8892   -0.5923 H   0  0  0  0  0  0  0  0  0  0  0  0
    1.2815   -1.7047    2.0041 H   0  0  0  0  0  0  0  0  0  0  0  0
    1.6882   -3.2434    1.2503 H   0  0  0  0  0  0  0  0  0  0  0  0
    3.7506   -1.1982    2.1909 H   0  0  0  0  0  0  0  0  0  0  0  0
    3.1017   -2.6511    3.0086 H   0  0  0  0  0  0  0  0  0  0  0  0
    5.2206   -3.0965    1.9090 H   0  0  0  0  0  0  0  0  0  0  0  0
    4.5467   -2.6973    0.3146 H   0  0  0  0  0  0  0  0  0  0  0  0
    3.8952   -4.9703    2.1251 H   0  0  0  0  0  0  0  0  0  0  0  0
    4.2928   -4.9476    0.4832 H   0  0  0  0  0  0  0  0  0  0  0  0
    4.2410   -1.9312   -1.8414 H   0  0  0  0  0  0  0  0  0  0  0  0
    4.3444    0.2977   -3.8602 H   0  0  0  0  0  0  0  0  0  0  0  0
    6.4708   -1.7801   -3.1979 H   0  0  0  0  0  0  0  0  0  0  0  0
    6.5113   -0.6902   -4.6644 H   0  0  0  0  0  0  0  0  0  0  0  0
    7.2797    1.7558   -4.3144 H   0  0  0  0  0  0  0  0  0  0  0  0
    8.3667    3.0616   -2.2698 H   0  0  0  0  0  0  0  0  0  0  0  0
    8.7087    2.5792    0.3978 H   0  0  0  0  0  0  0  0  0  0  0  0
    8.3187    0.9861    2.1655 H   0  0  0  0  0  0  0  0  0  0  0  0
    7.1472   -1.1630    1.6417 H   0  0  0  0  0  0  0  0  0  0  0  0
    6.4031   -1.6344   -0.6607 H   0  0  0  0  0  0  0  0  0  0  0  0
    4.7682   -2.5297   -6.3299 H   0  0  0  0  0  0  0  0  0  0  0  0
  1  2  1  0
  2  3  1  0
  2  4  1  0
  4  5  1  0
  5  6  1  0
  6  7  1  0
  7  8  2  0
  7  9  1  0
  9 10  1  0
 10 11  1  0
 11 12  2  0
 12 13  1  0
 13 14  2  0
 14 15  1  0
 15 16  2  0
  9 17  1  0
 17 18  1  0
 18 19  2  0
 18 20  1  0
 20 21  1  0
 20 22  1  0
 22 23  1  0
 23 24  2  0
 24 25  1  0
 25 26  2  0
 26 27  1  0
 27 28  2  0
  5 29  1  0
 29 30  2  0
 29 31  1  0
 31 32  1  0
 32 33  1  0
 33 34  1  0
 34 35  1  0
 35 36  1  0
 36 37  1  0
 32 38  1  0
 38 39  2  0
 38 40  1  0
 40 41  1  0
 41 42  1  0
 42 43  1  0
 43 44  2  0
 44 45  1  0
 45 46  1  0
 46 47  2  0
 47 48  1  0
 48 49  2  0
 49 50  1  0
 50 51  2  0
 41 52  1  0
 52 53  1  0
 52 54  2  0
 16 11  1  0
 28 23  1  0
 51 43  1  0
 51 46  1  0
  1 55  1  0
  1 56  1  0
  1 57  1  0
  2 58  1  0
  3 59  1  0
  3 60  1  0
  3 61  1  0
  4 62  1  0
  4 63  1  0
  5 64  1  6
  6 65  1  0
  9 66  1  1
 10 67  1  0
 10 68  1  0
 12 69  1  0
 13 70  1  0
 14 71  1  0
 15 72  1  0
 16 73  1  0
 17 74  1  0
 20 75  1  1
 21 76  1  0
 21 77  1  0
 22 78  1  0
 22 79  1  0
 24 80  1  0
 25 81  1  0
 26 82  1  0
 27 83  1  0
 28 84  1  0
 31 85  1  0
 32 86  1  1
 33 87  1  0
 33 88  1  0
 34 89  1  0
 34 90  1  0
 35 91  1  0
 35 92  1  0
 36 93  1  0
 36 94  1  0
 37 95  1  0
 37 96  1  0
 40 97  1  0
 41 98  1  6
 42 99  1  0
 42100  1  0
 44101  1  0
 45102  1  0
 47103  1  0
 48104  1  0
 49105  1  0
 50106  1  0
 53107  1  0
M  END
$$$$
[H]c1nc2c([H])c(OC([H])([H])C([H])([H])C([H])([H])N3C([H])([H])C([H])([H])N(C([H])([H])[H])C([H])([H])C3([H])[H])c(OC([H])([H])[H])c([H])c2c(N([H])c2c([H])c(OC([H])([H])[H])c(Cl)c([H])c2Cl)c1C#N
     RDKit          3D

 65 68  0  0  0  0  0  0  0  0999 V2000
   -5.2946    0.1799   -2.9709 C   0  0  0  0  0  0  0  0  0  0  0  0
   -6.0951   -0.9158   -2.5530 O   0  0  0  0  0  0  0  0  0  0  0  0
   -6.1608   -1.1576   -1.1778 C   0  0  0  0  0  0  0  0  0  0  0  0
   -5.4971   -0.3938   -0.2509 C   0  0  0  0  0  0  0  0  0  0  0  0
   -5.5371   -0.6002    1.1107 C   0  0  0  0  0  0  0  0  0  0  0  0
   -4.8166    0.2382    2.0340 N   0  0  0  0  0  0  0  0  0  0  0  0
   -4.0248    1.3195    1.6049 C   0  0  0  0  0  0  0  0  0  0  0  0
   -4.6352    2.5531    1.4917 C   0  0  0  0  0  0  0  0  0  0  0  0
   -3.8290    3.6094    1.0643 C   0  0  0  0  0  0  0  0  0  0  0  0
   -2.5270    3.4300    0.7791 N   0  0  0  0  0  0  0  0  0  0  0  0
   -1.9535    2.2186    0.8968 C   0  0  0  0  0  0  0  0  0  0  0  0
   -0.6053    1.9975    0.6091 C   0  0  0  0  0  0  0  0  0  0  0  0
   -0.0254    0.7512    0.7328 C   0  0  0  0  0  0  0  0  0  0  0  0
    1.3282    0.5594    0.4376 O   0  0  0  0  0  0  0  0  0  0  0  0
    2.1607    1.6065    0.0051 C   0  0  0  0  0  0  0  0  0  0  0  0
    3.5417    1.0243   -0.2125 C   0  0  0  0  0  0  0  0  0  0  0  0
    3.4226   -0.0554   -1.2622 C   0  0  0  0  0  0  0  0  0  0  0  0
    4.6627   -0.6900   -1.5641 N   0  0  0  0  0  0  0  0  0  0  0  0
    5.1982   -1.4923   -0.4904 C   0  0  0  0  0  0  0  0  0  0  0  0
    6.5388   -0.9813   -0.0123 C   0  0  0  0  0  0  0  0  0  0  0  0
    7.5161   -0.9508   -1.0794 N   0  0  0  0  0  0  0  0  0  0  0  0
    8.4297    0.1509   -0.7994 C   0  0  0  0  0  0  0  0  0  0  0  0
    6.9128   -0.6710   -2.3660 C   0  0  0  0  0  0  0  0  0  0  0  0
    5.6339    0.1418   -2.1961 C   0  0  0  0  0  0  0  0  0  0  0  0
   -0.7837   -0.3247    1.1524 C   0  0  0  0  0  0  0  0  0  0  0  0
   -0.1660   -1.5451    1.2609 O   0  0  0  0  0  0  0  0  0  0  0  0
   -0.8182   -2.7273    1.6769 C   0  0  0  0  0  0  0  0  0  0  0  0
   -2.1295   -0.1321    1.4455 C   0  0  0  0  0  0  0  0  0  0  0  0
   -2.6832    1.1246    1.3132 C   0  0  0  0  0  0  0  0  0  0  0  0
   -6.0331    2.7467    1.7978 C   0  0  0  0  0  0  0  0  0  0  0  0
   -7.1560    2.8867    2.0549 N   0  0  0  0  0  0  0  0  0  0  0  0
   -6.3055   -1.6561    1.5519 C   0  0  0  0  0  0  0  0  0  0  0  0
   -6.4410   -2.0259    3.2478 Cl  0  0  0  0  0  0  0  0  0  0  0  0
   -7.0004   -2.4646    0.6587 C   0  0  0  0  0  0  0  0  0  0  0  0
   -6.9278   -2.2166   -0.6919 C   0  0  0  0  0  0  0  0  0  0  0  0
   -7.7733   -3.1886   -1.8765 Cl  0  0  0  0  0  0  0  0  0  0  0  0
   -5.4136    0.3597   -4.0746 H   0  0  0  0  0  0  0  0  0  0  0  0
   -4.2180   -0.0377   -2.8166 H   0  0  0  0  0  0  0  0  0  0  0  0
   -5.5182    1.1093   -2.4102 H   0  0  0  0  0  0  0  0  0  0  0  0
   -4.8824    0.4495   -0.5886 H   0  0  0  0  0  0  0  0  0  0  0  0
   -4.9019    0.0142    3.0487 H   0  0  0  0  0  0  0  0  0  0  0  0
   -4.3295    4.5717    0.9823 H   0  0  0  0  0  0  0  0  0  0  0  0
   -0.0170    2.8280    0.2846 H   0  0  0  0  0  0  0  0  0  0  0  0
    1.7778    1.9385   -1.0008 H   0  0  0  0  0  0  0  0  0  0  0  0
    2.1821    2.4558    0.7154 H   0  0  0  0  0  0  0  0  0  0  0  0
    4.2210    1.8377   -0.5139 H   0  0  0  0  0  0  0  0  0  0  0  0
    3.9285    0.6049    0.7361 H   0  0  0  0  0  0  0  0  0  0  0  0
    2.9821    0.3266   -2.1992 H   0  0  0  0  0  0  0  0  0  0  0  0
    2.7315   -0.8214   -0.8541 H   0  0  0  0  0  0  0  0  0  0  0  0
    5.2338   -2.5366   -0.8312 H   0  0  0  0  0  0  0  0  0  0  0  0
    4.5037   -1.4099    0.3697 H   0  0  0  0  0  0  0  0  0  0  0  0
    6.3881   -0.0055    0.4627 H   0  0  0  0  0  0  0  0  0  0  0  0
    6.9097   -1.6815    0.7631 H   0  0  0  0  0  0  0  0  0  0  0  0
    7.9186    0.8915   -0.1786 H   0  0  0  0  0  0  0  0  0  0  0  0
    9.2446   -0.2873   -0.1540 H   0  0  0  0  0  0  0  0  0  0  0  0
    8.8635    0.5756   -1.7319 H   0  0  0  0  0  0  0  0  0  0  0  0
    7.6268   -0.0558   -2.9818 H   0  0  0  0  0  0  0  0  0  0  0  0
    6.6852   -1.5665   -2.9435 H   0  0  0  0  0  0  0  0  0  0  0  0
    5.9066    1.0433   -1.6186 H   0  0  0  0  0  0  0  0  0  0  0  0
    5.2600    0.4179   -3.1952 H   0  0  0  0  0  0  0  0  0  0  0  0
   -1.6281   -3.0342    0.9852 H   0  0  0  0  0  0  0  0  0  0  0  0
   -0.0534   -3.5288    1.7326 H   0  0  0  0  0  0  0  0  0  0  0  0
   -1.1857   -2.5572    2.7031 H   0  0  0  0  0  0  0  0  0  0  0  0
   -2.7370   -0.9576    1.7739 H   0  0  0  0  0  0  0  0  0  0  0  0
   -7.6050   -3.2933    0.9881 H   0  0  0  0  0  0  0  0  0  0  0  0
  1  2  1  0
  2  3  1  0
  3  4  2  0
  4  5  1  0
  5  6  1  0
  6  7  1  0
  7  8  2  0
  8  9  1  0
  9 10  2  0
 10 11  1  0
 11 12  2  0
 12 13  1  0
 13 14  1  0
 14 15  1  0
 15 16  1  0
 16 17  1  0
 17 18  1  0
 18 19  1  0
 19 20  1  0
 20 21  1  0
 21 22  1  0
 21 23  1  0
 23 24  1  0
 13 25  2  0
 25 26  1  0
 26 27  1  0
 25 28  1  0
 28 29  2  0
  8 30  1  0
 30 31  3  0
  5 32  2  0
 32 33  1  0
 32 34  1  0
 34 35  2  0
 35 36  1  0
 35  3  1  0
 29  7  1  0
 29 11  1  0
 24 18  1  0
  1 37  1  0
  1 38  1  0
  1 39  1  0
  4 40  1  0
  6 41  1  0
  9 42  1  0
 12 43  1  0
 15 44  1  0
 15 45  1  0
 16 46  1  0
 16 47  1  0
 17 48  1  0
 17 49  1  0
 19 50  1  0
 19 51  1  0
 20 52  1  0
 20 53  1  0
 22 54  1  0
 22 55  1  0
 22 56  1  0
 23 57  1  0
 23 58  1  0
 24 59  1  0
 24 60  1  0
 27 61  1  0
 27 62  1  0
 27 63  1  0
 28 64  1  0
 34 65  1  0
M  END
$$$$
[H]OC(=O)C(Oc1c([H])c([H])c(O[H])c(-c2c([H])c([H])c(C(C([H])([H])[H])(C([H])([H])[H])C([H])([H])[H])c([H])c2[H])c1[H])(C([H])([H])[H])C([H])([H])[H]
     RDKit          3D

 48 49  0  0  0  0  0  0  0  0999 V2000
   -5.8670    0.7149   -1.0596 C   0  0  0  0  0  0  0  0  0  0  0  0
   -5.0063    0.6630    0.1528 C   0  0  0  0  0  0  0  0  0  0  0  0
   -5.1046    2.0015    0.8683 C   0  0  0  0  0  0  0  0  0  0  0  0
   -5.5068   -0.3691    1.1686 C   0  0  0  0  0  0  0  0  0  0  0  0
   -3.5842    0.3249   -0.0730 C   0  0  0  0  0  0  0  0  0  0  0  0
   -3.2323   -0.7660   -0.8291 C   0  0  0  0  0  0  0  0  0  0  0  0
   -1.9178   -1.1927   -1.0222 C   0  0  0  0  0  0  0  0  0  0  0  0
   -0.9165   -0.4745   -0.4201 C   0  0  0  0  0  0  0  0  0  0  0  0
   -1.2158    0.6365    0.3549 C   0  0  0  0  0  0  0  0  0  0  0  0
   -2.5343    1.0076    0.5084 C   0  0  0  0  0  0  0  0  0  0  0  0
    0.4841   -0.9060   -0.4399 C   0  0  0  0  0  0  0  0  0  0  0  0
    1.5005    0.0074   -0.4729 C   0  0  0  0  0  0  0  0  0  0  0  0
    2.8436   -0.3865   -0.3372 C   0  0  0  0  0  0  0  0  0  0  0  0
    3.8056    0.5577   -0.3731 O   0  0  0  0  0  0  0  0  0  0  0  0
    5.1339    0.5687   -0.0961 C   0  0  0  0  0  0  0  0  0  0  0  0
    5.2775    0.2769    1.4301 C   0  0  0  0  0  0  0  0  0  0  0  0
    6.0306   -0.3871   -0.8412 C   0  0  0  0  0  0  0  0  0  0  0  0
    5.6610    1.9779   -0.2253 C   0  0  0  0  0  0  0  0  0  0  0  0
    4.8416    3.0173   -0.6051 O   0  0  0  0  0  0  0  0  0  0  0  0
    6.8625    2.1823    0.0275 O   0  0  0  0  0  0  0  0  0  0  0  0
    3.1389   -1.7055   -0.1794 C   0  0  0  0  0  0  0  0  0  0  0  0
    2.1228   -2.6154   -0.1500 C   0  0  0  0  0  0  0  0  0  0  0  0
    0.7631   -2.2615   -0.2792 C   0  0  0  0  0  0  0  0  0  0  0  0
   -0.1411   -3.2220   -0.2397 O   0  0  0  0  0  0  0  0  0  0  0  0
   -5.7148   -0.2023   -1.6469 H   0  0  0  0  0  0  0  0  0  0  0  0
   -5.6921    1.6328   -1.6319 H   0  0  0  0  0  0  0  0  0  0  0  0
   -6.9368    0.7243   -0.7026 H   0  0  0  0  0  0  0  0  0  0  0  0
   -6.2023    2.1552    1.1510 H   0  0  0  0  0  0  0  0  0  0  0  0
   -4.7431    2.8382    0.2817 H   0  0  0  0  0  0  0  0  0  0  0  0
   -4.6019    1.9907    1.8791 H   0  0  0  0  0  0  0  0  0  0  0  0
   -4.6856   -0.4407    1.9048 H   0  0  0  0  0  0  0  0  0  0  0  0
   -6.3924    0.0093    1.7312 H   0  0  0  0  0  0  0  0  0  0  0  0
   -5.6718   -1.3548    0.7274 H   0  0  0  0  0  0  0  0  0  0  0  0
   -4.0017   -1.3696   -1.3292 H   0  0  0  0  0  0  0  0  0  0  0  0
   -1.6811   -2.0345   -1.6474 H   0  0  0  0  0  0  0  0  0  0  0  0
   -0.3812    1.1932    0.8274 H   0  0  0  0  0  0  0  0  0  0  0  0
   -2.7762    1.8831    1.0856 H   0  0  0  0  0  0  0  0  0  0  0  0
    1.3325    1.0918   -0.6261 H   0  0  0  0  0  0  0  0  0  0  0  0
    4.7330    1.1291    1.9153 H   0  0  0  0  0  0  0  0  0  0  0  0
    6.3367    0.2433    1.6758 H   0  0  0  0  0  0  0  0  0  0  0  0
    4.6885   -0.6232    1.6332 H   0  0  0  0  0  0  0  0  0  0  0  0
    6.9420    0.2092   -1.1623 H   0  0  0  0  0  0  0  0  0  0  0  0
    5.6215   -0.8276   -1.7349 H   0  0  0  0  0  0  0  0  0  0  0  0
    6.4732   -1.1357   -0.1272 H   0  0  0  0  0  0  0  0  0  0  0  0
    4.1378    2.8244   -1.3301 H   0  0  0  0  0  0  0  0  0  0  0  0
    4.2011   -2.0816   -0.0789 H   0  0  0  0  0  0  0  0  0  0  0  0
    2.3741   -3.6686   -0.0293 H   0  0  0  0  0  0  0  0  0  0  0  0
   -0.7982   -3.8362   -0.2208 H   0  0  0  0  0  0  0  0  0  0  0  0
  1  2  1  0
  2  3  1  0
  2  4  1  0
  2  5  1  0
  5  6  2  0
  6  7  1  0
  7  8  2  0
  8  9  1  0
  9 10  2  0
  8 11  1  0
 11 12  2  0
 12 13  1  0
 13 14  1  0
 14 15  1  0
 15 16  1  0
 15 17  1  0
 15 18  1  0
 18 19  1  0
 18 20  2  0
 13 21  2  0
 21 22  1  0
 22 23  2  0
 23 24  1  0
 10  5  1  0
 23 11  1  0
  1 25  1  0
  1 26  1  0
  1 27  1  0
  3 28  1  0
  3 29  1  0
  3 30  1  0
  4 31  1  0
  4 32  1  0
  4 33  1  0
  6 34  1  0
  7 35  1  0
  9 36  1  0
 10 37  1  0
 12 38  1  0
 16 39  1  0
 16 40  1  0
 16 41  1  0
 17 42  1  0
 17 43  1  0
 17 44  1  0
 19 45  1  0
 21 46  1  0
 22 47  1  0
 24 48  1  0
M  END
$$$$
[H]OC(=O)[C@@]([H])(N([H])C(=O)[C@@]([H])(N1C([H])([H])C([H])([H])[C@@]([H])(C(=O)O[H])C([H])([H])[C@@]([H])(O[H])[C@]([H])(O[H])[C@@]1([H])O[H])C([H])(C([H])([H])[H])C([H])([H])[H])C([H])([H])c1c([H])nc([H])c([H])c1[H]
     RDKit          3D

 63 64  0  0  0  0  0  0  0  0999 V2000
    0.5206   -3.3966   -0.4411 C   0  0  0  0  0  0  0  0  0  0  0  0
   -0.8010   -2.6111   -0.2762 C   0  0  0  0  0  0  0  0  0  0  0  0
   -1.7469   -3.5752    0.3022 C   0  0  0  0  0  0  0  0  0  0  0  0
   -0.5496   -1.2997    0.3577 C   0  0  2  0  0  0  0  0  0  0  0  0
   -1.6165   -0.4169    0.5849 N   0  0  0  0  0  0  0  0  0  0  0  0
   -2.5346   -0.8240    1.5625 C   0  0  0  0  0  0  0  0  0  0  0  0
   -3.9951   -0.6981    1.2607 C   0  0  0  0  0  0  0  0  0  0  0  0
   -4.3622    0.0761    0.0478 C   0  0  2  0  0  0  0  0  0  0  0  0
   -4.6396    1.5260    0.3741 C   0  0  0  0  0  0  0  0  0  0  0  0
   -3.3845    2.2966    0.0295 C   0  0  1  0  0  0  0  0  0  0  0  0
   -3.7318    3.6593    0.1301 O   0  0  0  0  0  0  0  0  0  0  0  0
   -2.3339    1.9213    1.0498 C   0  0  2  0  0  0  0  0  0  0  0  0
   -1.6292    3.1300    1.2873 O   0  0  0  0  0  0  0  0  0  0  0  0
   -1.3069    0.9635    0.4968 C   0  0  1  0  0  0  0  0  0  0  0  0
   -0.1062    1.3061    1.1172 O   0  0  0  0  0  0  0  0  0  0  0  0
   -5.5128   -0.5450   -0.6469 C   0  0  0  0  0  0  0  0  0  0  0  0
   -6.0556   -0.0123   -1.7957 O   0  0  0  0  0  0  0  0  0  0  0  0
   -6.0065   -1.5894   -0.1714 O   0  0  0  0  0  0  0  0  0  0  0  0
    0.6520   -0.7286   -0.3263 C   0  0  0  0  0  0  0  0  0  0  0  0
    0.4935   -0.0369   -1.3466 O   0  0  0  0  0  0  0  0  0  0  0  0
    1.9817   -0.9366    0.1437 N   0  0  0  0  0  0  0  0  0  0  0  0
    3.1341   -0.3545   -0.5432 C   0  0  1  0  0  0  0  0  0  0  0  0
    3.7130    0.6679    0.4077 C   0  0  0  0  0  0  0  0  0  0  0  0
    4.8917    1.3769   -0.0860 C   0  0  0  0  0  0  0  0  0  0  0  0
    6.1579    0.9605    0.2609 C   0  0  0  0  0  0  0  0  0  0  0  0
    7.2520    1.6579   -0.2281 C   0  0  0  0  0  0  0  0  0  0  0  0
    7.0078    2.7397   -1.0424 C   0  0  0  0  0  0  0  0  0  0  0  0
    5.7673    3.1438   -1.3796 N   0  0  0  0  0  0  0  0  0  0  0  0
    4.6934    2.4750   -0.9113 C   0  0  0  0  0  0  0  0  0  0  0  0
    4.1307   -1.3445   -0.9038 C   0  0  0  0  0  0  0  0  0  0  0  0
    5.2521   -1.0794   -1.6781 O   0  0  0  0  0  0  0  0  0  0  0  0
    4.0340   -2.5649   -0.5230 O   0  0  0  0  0  0  0  0  0  0  0  0
    1.1375   -2.9208   -1.2003 H   0  0  0  0  0  0  0  0  0  0  0  0
    0.9961   -3.5538    0.5433 H   0  0  0  0  0  0  0  0  0  0  0  0
    0.1950   -4.4180   -0.8016 H   0  0  0  0  0  0  0  0  0  0  0  0
   -1.1244   -2.4749   -1.3599 H   0  0  0  0  0  0  0  0  0  0  0  0
   -2.8216   -3.3444    0.1967 H   0  0  0  0  0  0  0  0  0  0  0  0
   -1.4625   -3.8876    1.3399 H   0  0  0  0  0  0  0  0  0  0  0  0
   -1.6415   -4.5539   -0.2758 H   0  0  0  0  0  0  0  0  0  0  0  0
   -0.1376   -1.5460    1.4084 H   0  0  0  0  0  0  0  0  0  0  0  0
   -2.2863   -0.1776    2.4969 H   0  0  0  0  0  0  0  0  0  0  0  0
   -2.3730   -1.8301    1.9868 H   0  0  0  0  0  0  0  0  0  0  0  0
   -4.4810   -1.7153    1.1885 H   0  0  0  0  0  0  0  0  0  0  0  0
   -4.5045   -0.2338    2.1484 H   0  0  0  0  0  0  0  0  0  0  0  0
   -3.5004   -0.0105   -0.6790 H   0  0  0  0  0  0  0  0  0  0  0  0
   -4.7578    1.5995    1.4766 H   0  0  0  0  0  0  0  0  0  0  0  0
   -5.5349    1.9233   -0.1344 H   0  0  0  0  0  0  0  0  0  0  0  0
   -3.0847    2.0564   -1.0040 H   0  0  0  0  0  0  0  0  0  0  0  0
   -3.9234    4.0642   -0.7375 H   0  0  0  0  0  0  0  0  0  0  0  0
   -2.7754    1.6544    2.0046 H   0  0  0  0  0  0  0  0  0  0  0  0
   -2.2476    3.8678    1.5081 H   0  0  0  0  0  0  0  0  0  0  0  0
   -1.2815    1.2332   -0.6110 H   0  0  0  0  0  0  0  0  0  0  0  0
   -0.1907    1.8529    1.9121 H   0  0  0  0  0  0  0  0  0  0  0  0
   -6.9536    0.4331   -1.8418 H   0  0  0  0  0  0  0  0  0  0  0  0
    2.1068   -1.5129    0.9952 H   0  0  0  0  0  0  0  0  0  0  0  0
    2.7610    0.1749   -1.4521 H   0  0  0  0  0  0  0  0  0  0  0  0
    2.9269    1.4425    0.6779 H   0  0  0  0  0  0  0  0  0  0  0  0
    3.9433    0.2027    1.4034 H   0  0  0  0  0  0  0  0  0  0  0  0
    6.2949    0.0900    0.9138 H   0  0  0  0  0  0  0  0  0  0  0  0
    8.2308    1.3201    0.0532 H   0  0  0  0  0  0  0  0  0  0  0  0
    7.8363    3.2959   -1.4341 H   0  0  0  0  0  0  0  0  0  0  0  0
    3.7002    2.8117   -1.1908 H   0  0  0  0  0  0  0  0  0  0  0  0
    5.5845   -1.7297   -2.3947 H   0  0  0  0  0  0  0  0  0  0  0  0
  1  2  1  0
  2  3  1  0
  2  4  1  0
  4  5  1  0
  5  6  1  0
  6  7  1  0
  7  8  1  0
  8  9  1  0
  9 10  1  0
 10 11  1  0
 10 12  1  0
 12 13  1  0
 12 14  1  0
 14 15  1  0
  8 16  1  0
 16 17  1  0
 16 18  2  0
  4 19  1  0
 19 20  2  0
 19 21  1  0
 21 22  1  0
 22 23  1  0
 23 24  1  0
 24 25  2  0
 25 26  1  0
 26 27  2  0
 27 28  1  0
 28 29  2  0
 22 30  1  0
 30 31  1  0
 30 32  2  0
 14  5  1  0
 29 24  1  0
  1 33  1  0
  1 34  1  0
  1 35  1  0
  2 36  1  0
  3 37  1  0
  3 38  1  0
  3 39  1  0
  4 40  1  1
  6 41  1  0
  6 42  1  0
  7 43  1  0
  7 44  1  0
  8 45  1  6
  9 46  1  0
  9 47  1  0
 10 48  1  6
 11 49  1  0
 12 50  1  1
 13 51  1  0
 14 52  1  6
 15 53  1  0
 17 54  1  0
 21 55  1  0
 22 56  1  6
 23 57  1  0
 23 58  1  0
 25 59  1  0
 26 60  1  0
 27 61  1  0
 29 62  1  0
 31 63  1  0
M  END
$$$$
[H]c1nn(C([H])([H])[H])c([H])c1-c1c([H])c([H])c(N([H])c2nc([H])c3c(n2)N(C([H])([H])[H])C(=O)N(C([H])([H])[H])C(C([H])([H])[H])(C([H])([H])[H])OC3([H])[H])c(OC([H])([H])[H])c1[H]
     RDKit          3D

 59 62  0  0  0  0  0  0  0  0999 V2000
    4.4071    2.4934    3.1909 C   0  0  0  0  0  0  0  0  0  0  0  0
    3.1659    2.1310    2.6228 O   0  0  0  0  0  0  0  0  0  0  0  0
    3.1640    1.2452    1.5625 C   0  0  0  0  0  0  0  0  0  0  0  0
    4.3316    0.7235    1.0651 C   0  0  0  0  0  0  0  0  0  0  0  0
    4.3501   -0.1577    0.0134 C   0  0  0  0  0  0  0  0  0  0  0  0
    3.1434   -0.5108   -0.5404 C   0  0  0  0  0  0  0  0  0  0  0  0
    1.9224   -0.0055   -0.0692 C   0  0  0  0  0  0  0  0  0  0  0  0
    1.9295    0.8783    0.9899 C   0  0  0  0  0  0  0  0  0  0  0  0
    0.7773    1.4749    1.5229 N   0  0  0  0  0  0  0  0  0  0  0  0
   -0.5845    1.1842    1.3192 C   0  0  0  0  0  0  0  0  0  0  0  0
   -1.5114    1.9753    1.9585 N   0  0  0  0  0  0  0  0  0  0  0  0
   -2.8255    1.7948    1.8749 C   0  0  0  0  0  0  0  0  0  0  0  0
   -3.2917    0.7586    1.1066 C   0  0  0  0  0  0  0  0  0  0  0  0
   -4.7924    0.8276    1.2110 C   0  0  0  0  0  0  0  0  0  0  0  0
   -5.3822   -0.2675    0.6064 O   0  0  0  0  0  0  0  0  0  0  0  0
   -5.7026   -0.1431   -0.7084 C   0  0  0  0  0  0  0  0  0  0  0  0
   -7.1699   -0.5490   -0.8730 C   0  0  0  0  0  0  0  0  0  0  0  0
   -5.5450    1.2079   -1.3038 C   0  0  0  0  0  0  0  0  0  0  0  0
   -4.8853   -1.0885   -1.4785 N   0  0  0  0  0  0  0  0  0  0  0  0
   -5.5341   -1.7038   -2.6015 C   0  0  0  0  0  0  0  0  0  0  0  0
   -3.5281   -1.5240   -1.3174 C   0  0  0  0  0  0  0  0  0  0  0  0
   -3.1287   -2.3760   -2.1352 O   0  0  0  0  0  0  0  0  0  0  0  0
   -2.4917   -1.1724   -0.3762 N   0  0  0  0  0  0  0  0  0  0  0  0
   -1.4255   -2.1064   -0.2416 C   0  0  0  0  0  0  0  0  0  0  0  0
   -2.3520   -0.0362    0.4651 C   0  0  0  0  0  0  0  0  0  0  0  0
   -1.0423    0.1830    0.5776 N   0  0  0  0  0  0  0  0  0  0  0  0
    5.6015   -0.6770   -0.4703 C   0  0  0  0  0  0  0  0  0  0  0  0
    5.8077   -1.9278   -1.0396 C   0  0  0  0  0  0  0  0  0  0  0  0
    7.0985   -2.0007   -1.3433 N   0  0  0  0  0  0  0  0  0  0  0  0
    7.7157   -0.8823   -1.0038 N   0  0  0  0  0  0  0  0  0  0  0  0
    9.1334   -0.6721   -1.2152 C   0  0  0  0  0  0  0  0  0  0  0  0
    6.8216   -0.0386   -0.4601 C   0  0  0  0  0  0  0  0  0  0  0  0
    4.9011    1.5595    3.5907 H   0  0  0  0  0  0  0  0  0  0  0  0
    5.0663    2.9519    2.4175 H   0  0  0  0  0  0  0  0  0  0  0  0
    4.2779    3.1517    4.0794 H   0  0  0  0  0  0  0  0  0  0  0  0
    5.2665    1.0287    1.5311 H   0  0  0  0  0  0  0  0  0  0  0  0
    3.0749   -1.1999   -1.3720 H   0  0  0  0  0  0  0  0  0  0  0  0
    1.0103   -0.3037   -0.5576 H   0  0  0  0  0  0  0  0  0  0  0  0
    0.9497    2.3077    2.2026 H   0  0  0  0  0  0  0  0  0  0  0  0
   -3.5297    2.4468    2.3990 H   0  0  0  0  0  0  0  0  0  0  0  0
   -5.0097    0.7534    2.3041 H   0  0  0  0  0  0  0  0  0  0  0  0
   -5.1849    1.7973    0.8828 H   0  0  0  0  0  0  0  0  0  0  0  0
   -7.7009   -0.1170    0.0108 H   0  0  0  0  0  0  0  0  0  0  0  0
   -7.6130   -0.0972   -1.7635 H   0  0  0  0  0  0  0  0  0  0  0  0
   -7.2945   -1.6473   -0.8107 H   0  0  0  0  0  0  0  0  0  0  0  0
   -5.8736    1.1290   -2.3823 H   0  0  0  0  0  0  0  0  0  0  0  0
   -6.2397    1.9477   -0.8556 H   0  0  0  0  0  0  0  0  0  0  0  0
   -4.4976    1.5639   -1.3547 H   0  0  0  0  0  0  0  0  0  0  0  0
   -6.2635   -0.9916   -3.0140 H   0  0  0  0  0  0  0  0  0  0  0  0
   -4.7513   -1.8887   -3.3819 H   0  0  0  0  0  0  0  0  0  0  0  0
   -5.9683   -2.6939   -2.3702 H   0  0  0  0  0  0  0  0  0  0  0  0
   -0.6945   -2.0813   -1.0869 H   0  0  0  0  0  0  0  0  0  0  0  0
   -1.8697   -3.1404   -0.2047 H   0  0  0  0  0  0  0  0  0  0  0  0
   -0.9159   -1.9886    0.7367 H   0  0  0  0  0  0  0  0  0  0  0  0
    5.0265   -2.6736   -1.1879 H   0  0  0  0  0  0  0  0  0  0  0  0
    9.7530   -1.4246   -0.7085 H   0  0  0  0  0  0  0  0  0  0  0  0
    9.3974   -0.7153   -2.2962 H   0  0  0  0  0  0  0  0  0  0  0  0
    9.4471    0.3313   -0.8357 H   0  0  0  0  0  0  0  0  0  0  0  0
    7.0597    0.9557   -0.0926 H   0  0  0  0  0  0  0  0  0  0  0  0
  1  2  1  0
  2  3  1  0
  3  4  2  0
  4  5  1  0
  5  6  2  0
  6  7  1  0
  7  8  2  0
  8  9  1  0
  9 10  1  0
 10 11  2  0
 11 12  1  0
 12 13  2  0
 13 14  1  0
 14 15  1  0
 15 16  1  0
 16 17  1  0
 16 18  1  0
 16 19  1  0
 19 20  1  0
 19 21  1  0
 21 22  2  0
 21 23  1  0
 23 24  1  0
 23 25  1  0
 25 26  2  0
  5 27  1  0
 27 28  1  0
 28 29  2  0
 29 30  1  0
 30 31  1  0
 30 32  1  0
  8  3  1  0
 26 10  1  0
 32 27  2  0
 25 13  1  0
  1 33  1  0
  1 34  1  0
  1 35  1  0
  4 36  1  0
  6 37  1  0
  7 38  1  0
  9 39  1  0
 12 40  1  0
 14 41  1  0
 14 42  1  0
 17 43  1  0
 17 44  1  0
 17 45  1  0
 18 46  1  0
 18 47  1  0
 18 48  1  0
 20 49  1  0
 20 50  1  0
 20 51  1  0
 24 52  1  0
 24 53  1  0
 24 54  1  0
 28 55  1  0
 31 56  1  0
 31 57  1  0
 31 58  1  0
 32 59  1  0
M  END
$$$$
[H]c1c([H])c2c([H])c([H])c1C(=O)N([H])N(C(=O)C([H])([H])[H])C([H])([H])C([H])([H])C21C([H])([H])C([H])([H])N(c2c([H])c([H])c(C([H])([H])[H])c([H])c2[H])C([H])([H])C1([H])[H]
     RDKit          2D

 55 58  0  0  0  0  0  0  0  0999 V2000
   -0.2007   -7.7459    0.0000 C   0  0  0  0  0  0  0  0  0  0  0  0
   -0.6642   -6.3193    0.0000 C   0  0  0  0  0  0  0  0  0  0  0  0
   -2.1314   -6.0074    0.0000 O   0  0  0  0  0  0  0  0  0  0  0  0
    0.3395   -5.2046    0.0000 N   0  0  0  0  0  0  0  0  0  0  0  0
   -0.4105   -3.9055    0.0000 C   0  0  0  0  0  0  0  0  0  0  0  0
   -0.2537   -2.4138    0.0000 C   0  0  0  0  0  0  0  0  0  0  0  0
    0.7500   -1.2990    0.0000 C   0  0  0  0  0  0  0  0  0  0  0  0
    1.5000    0.0000    0.0000 C   0  0  0  0  0  0  0  0  0  0  0  0
    0.7500    1.2990    0.0000 C   0  0  0  0  0  0  0  0  0  0  0  0
   -0.7500    1.2990    0.0000 N   0  0  0  0  0  0  0  0  0  0  0  0
   -1.5000    0.0000    0.0000 C   0  0  0  0  0  0  0  0  0  0  0  0
   -0.7500   -1.2990    0.0000 C   0  0  0  0  0  0  0  0  0  0  0  0
   -1.5000    2.5981    0.0000 C   0  0  0  0  0  0  0  0  0  0  0  0
   -0.7500    3.8971    0.0000 C   0  0  0  0  0  0  0  0  0  0  0  0
   -1.5000    5.1962    0.0000 C   0  0  0  0  0  0  0  0  0  0  0  0
   -3.0000    5.1962    0.0000 C   0  0  0  0  0  0  0  0  0  0  0  0
   -3.7500    6.4952    0.0000 C   0  0  0  0  0  0  0  0  0  0  0  0
   -3.7500    3.8971    0.0000 C   0  0  0  0  0  0  0  0  0  0  0  0
   -3.0000    2.5981    0.0000 C   0  0  0  0  0  0  0  0  0  0  0  0
    2.2172   -0.9872    0.0000 C   0  0  0  0  0  0  0  0  0  0  0  0
    3.5875   -1.5973    0.0000 C   0  0  0  0  0  0  0  0  0  0  0  0
    4.3375   -2.8963    0.0000 C   0  0  0  0  0  0  0  0  0  0  0  0
    4.1807   -4.3881    0.0000 C   0  0  0  0  0  0  0  0  0  0  0  0
    2.8104   -3.7780    0.0000 C   0  0  0  0  0  0  0  0  0  0  0  0
    2.0604   -2.4790    0.0000 C   0  0  0  0  0  0  0  0  0  0  0  0
    3.1771   -5.5028    0.0000 C   0  0  0  0  0  0  0  0  0  0  0  0
    3.9271   -6.8019    0.0000 O   0  0  0  0  0  0  0  0  0  0  0  0
    1.7098   -5.8147    0.0000 N   0  0  0  0  0  0  0  0  0  0  0  0
    0.2629   -9.1725    0.0000 H   0  0  0  0  0  0  0  0  0  0  0  0
   -1.6272   -8.2094    0.0000 H   0  0  0  0  0  0  0  0  0  0  0  0
    1.2718   -7.4597    0.0000 H   0  0  0  0  0  0  0  0  0  0  0  0
   -1.4142   -5.0203    0.0000 H   0  0  0  0  0  0  0  0  0  0  0  0
   -1.8450   -3.4670    0.0000 H   0  0  0  0  0  0  0  0  0  0  0  0
   -1.7480   -2.5444    0.0000 H   0  0  0  0  0  0  0  0  0  0  0  0
   -0.8075   -1.8404    0.0000 H   0  0  0  0  0  0  0  0  0  0  0  0
    2.6491    0.9642    0.0000 H   0  0  0  0  0  0  0  0  0  0  0  0
    2.8482   -0.6575    0.0000 H   0  0  0  0  0  0  0  0  0  0  0  0
    0.4895    2.7762    0.0000 H   0  0  0  0  0  0  0  0  0  0  0  0
    2.1595    1.8121    0.0000 H   0  0  0  0  0  0  0  0  0  0  0  0
   -2.6491   -0.9642    0.0000 H   0  0  0  0  0  0  0  0  0  0  0  0
   -2.6491    0.9642    0.0000 H   0  0  0  0  0  0  0  0  0  0  0  0
   -0.8547   -2.7954    0.0000 H   0  0  0  0  0  0  0  0  0  0  0  0
   -2.1595   -1.8121    0.0000 H   0  0  0  0  0  0  0  0  0  0  0  0
    0.7500    3.8971    0.0000 H   0  0  0  0  0  0  0  0  0  0  0  0
   -0.7500    6.4952    0.0000 H   0  0  0  0  0  0  0  0  0  0  0  0
   -4.5000    7.7942    0.0000 H   0  0  0  0  0  0  0  0  0  0  0  0
   -5.0490    5.7452    0.0000 H   0  0  0  0  0  0  0  0  0  0  0  0
   -2.4510    7.2452    0.0000 H   0  0  0  0  0  0  0  0  0  0  0  0
   -5.2500    3.8971    0.0000 H   0  0  0  0  0  0  0  0  0  0  0  0
   -3.7500    1.2990    0.0000 H   0  0  0  0  0  0  0  0  0  0  0  0
    4.5912   -0.4826    0.0000 H   0  0  0  0  0  0  0  0  0  0  0  0
    5.8048   -2.5844    0.0000 H   0  0  0  0  0  0  0  0  0  0  0  0
    1.8067   -4.8927    0.0000 H   0  0  0  0  0  0  0  0  0  0  0  0
    0.5932   -2.7908    0.0000 H   0  0  0  0  0  0  0  0  0  0  0  0
    1.7360   -7.3145    0.0000 H   0  0  0  0  0  0  0  0  0  0  0  0
  1  2  1  0
  2  3  2  0
  2  4  1  0
  4  5  1  0
  5  6  1  0
  6  7  1  0
  7  8  1  0
  8  9  1  0
  9 10  1  0
 10 11  1  0
 11 12  1  0
 10 13  1  0
 13 14  2  0
 14 15  1  0
 15 16  2  0
 16 17  1  0
 16 18  1  0
 18 19  2  0
  7 20  1  0
 20 21  2  0
 21 22  1  0
 22 23  2  0
 23 24  1  0
 24 25  2  0
 23 26  1  0
 26 27  2  0
 26 28  1  0
 28  4  1  0
 12  7  1  0
 19 13  1  0
 25 20  1  0
  1 29  1  0
  1 30  1  0
  1 31  1  0
  5 32  1  0
  5 33  1  0
  6 34  1  0
  6 35  1  0
  8 36  1  0
  8 37  1  0
  9 38  1  0
  9 39  1  0
 11 40  1  0
 11 41  1  0
 12 42  1  0
 12 43  1  0
 14 44  1  0
 15 45  1  0
 17 46  1  0
 17 47  1  0
 17 48  1  0
 18 49  1  0
 19 50  1  0
 21 51  1  0
 22 52  1  0
 24 53  1  0
 25 54  1  0
 28 55  1  0
M  END
$$$$
[H]OC([H])([H])[C@@]1(O[H])C([H])([H])[C@@]2([H])O[C@]1(C([H])([H])[H])n1c3c([H])c([H])c([H])c([H])c3c3c4c(c5c6c([H])c([H])c([H])c([H])c6n2c5c31)C([H])([H])N([H])C4=O
     RDKit          3D

 54 61  0  0  0  0  0  0  0  0999 V2000
   -3.1418    0.1931   -1.6977 C   0  0  0  0  0  0  0  0  0  0  0  0
   -2.0672   -0.2416   -0.7056 C   0  0  2  0  0  0  0  0  0  0  0  0
   -1.3646   -1.1997   -1.4964 O   0  0  0  0  0  0  0  0  0  0  0  0
   -0.7981   -2.1262   -0.6953 C   0  0  2  0  0  0  0  0  0  0  0  0
   -1.5276   -2.1485    0.6200 C   0  0  0  0  0  0  0  0  0  0  0  0
   -2.5695   -1.0630    0.4128 C   0  0  1  0  0  0  0  0  0  0  0  0
   -2.6570   -0.3884    1.6282 O   0  0  0  0  0  0  0  0  0  0  0  0
   -3.8528   -1.7770    0.0694 C   0  0  0  0  0  0  0  0  0  0  0  0
   -4.0858   -2.7043    1.1135 O   0  0  0  0  0  0  0  0  0  0  0  0
    0.5793   -1.7015   -0.4398 N   0  0  0  0  0  0  0  0  0  0  0  0
    1.6738   -2.4346   -0.3714 C   0  0  0  0  0  0  0  0  0  0  0  0
    1.8583   -3.7887   -0.5335 C   0  0  0  0  0  0  0  0  0  0  0  0
    3.1414   -4.3156   -0.4065 C   0  0  0  0  0  0  0  0  0  0  0  0
    4.2342   -3.4936   -0.1189 C   0  0  0  0  0  0  0  0  0  0  0  0
    4.0565   -2.1365    0.0448 C   0  0  0  0  0  0  0  0  0  0  0  0
    2.7810   -1.6383   -0.0852 C   0  0  0  0  0  0  0  0  0  0  0  0
    2.3012   -0.3773    0.0176 C   0  0  0  0  0  0  0  0  0  0  0  0
    2.8723    0.8606    0.3054 C   0  0  0  0  0  0  0  0  0  0  0  0
    4.2732    1.1913    0.5786 C   0  0  0  0  0  0  0  0  0  0  0  0
    4.3352    2.5993    0.8085 N   0  0  0  0  0  0  0  0  0  0  0  0
    2.9989    3.1293    0.6853 C   0  0  0  0  0  0  0  0  0  0  0  0
    2.8128    4.3449    0.8491 O   0  0  0  0  0  0  0  0  0  0  0  0
    2.1260    2.0179    0.3735 C   0  0  0  0  0  0  0  0  0  0  0  0
    0.7457    1.9615    0.1469 C   0  0  0  0  0  0  0  0  0  0  0  0
   -0.2780    2.8547    0.1442 C   0  0  0  0  0  0  0  0  0  0  0  0
   -0.3187    4.2083    0.3824 C   0  0  0  0  0  0  0  0  0  0  0  0
   -1.5450    4.8840    0.3328 C   0  0  0  0  0  0  0  0  0  0  0  0
   -2.6768    4.1782    0.0481 C   0  0  0  0  0  0  0  0  0  0  0  0
   -2.6202    2.7986   -0.1923 C   0  0  0  0  0  0  0  0  0  0  0  0
   -1.4312    2.1354   -0.1473 C   0  0  0  0  0  0  0  0  0  0  0  0
   -1.1606    0.8290   -0.3299 N   0  0  0  0  0  0  0  0  0  0  0  0
    0.1923    0.7267   -0.1399 C   0  0  0  0  0  0  0  0  0  0  0  0
    0.9525   -0.4140   -0.2008 C   0  0  0  0  0  0  0  0  0  0  0  0
   -2.7736    1.0854   -2.2392 H   0  0  0  0  0  0  0  0  0  0  0  0
   -4.1419    0.2639   -1.2813 H   0  0  0  0  0  0  0  0  0  0  0  0
   -3.2680   -0.5679   -2.5374 H   0  0  0  0  0  0  0  0  0  0  0  0
   -0.7545   -3.1251   -1.1405 H   0  0  0  0  0  0  0  0  0  0  0  0
   -0.8671   -1.9293    1.4852 H   0  0  0  0  0  0  0  0  0  0  0  0
   -1.9993   -3.1350    0.8358 H   0  0  0  0  0  0  0  0  0  0  0  0
   -3.6289   -0.2375    1.7982 H   0  0  0  0  0  0  0  0  0  0  0  0
   -4.7401   -1.1363    0.0603 H   0  0  0  0  0  0  0  0  0  0  0  0
   -3.6991   -2.3235   -0.8791 H   0  0  0  0  0  0  0  0  0  0  0  0
   -5.0082   -3.0956    0.9841 H   0  0  0  0  0  0  0  0  0  0  0  0
    1.0005   -4.4111   -0.7561 H   0  0  0  0  0  0  0  0  0  0  0  0
    3.2850   -5.3803   -0.5342 H   0  0  0  0  0  0  0  0  0  0  0  0
    5.1985   -3.9557   -0.0327 H   0  0  0  0  0  0  0  0  0  0  0  0
    4.9100   -1.5059    0.2678 H   0  0  0  0  0  0  0  0  0  0  0  0
    4.9522    0.9665   -0.2718 H   0  0  0  0  0  0  0  0  0  0  0  0
    4.6842    0.6522    1.4610 H   0  0  0  0  0  0  0  0  0  0  0  0
    5.2083    3.1735    1.0330 H   0  0  0  0  0  0  0  0  0  0  0  0
    0.5315    4.8155    0.6109 H   0  0  0  0  0  0  0  0  0  0  0  0
   -1.5422    5.9334    0.5217 H   0  0  0  0  0  0  0  0  0  0  0  0
   -3.6566    4.6541   -0.0027 H   0  0  0  0  0  0  0  0  0  0  0  0
   -3.5301    2.2946   -0.3838 H   0  0  0  0  0  0  0  0  0  0  0  0
  2  1  1  6
  2  3  1  0
  3  4  1  0
  4  5  1  0
  5  6  1  0
  6  7  1  1
  6  8  1  0
  8  9  1  0
  4 10  1  0
 10 11  1  0
 11 12  2  0
 12 13  1  0
 13 14  2  0
 14 15  1  0
 15 16  2  0
 16 17  1  0
 17 18  2  0
 18 19  1  0
 19 20  1  0
 20 21  1  0
 21 22  2  0
 21 23  1  0
 23 24  2  0
 24 25  1  0
 25 26  2  0
 26 27  1  0
 27 28  2  0
 28 29  1  0
 29 30  2  0
 30 31  1  0
 31 32  1  0
 32 33  2  0
  6  2  1  0
 33 10  1  0
 31  2  1  0
 16 11  1  0
 33 17  1  0
 23 18  1  0
 32 24  1  0
 30 25  1  0
  1 34  1  0
  1 35  1  0
  1 36  1  0
  4 37  1  6
  5 38  1  0
  5 39  1  0
  7 40  1  0
  8 41  1  0
  8 42  1  0
  9 43  1  0
 12 44  1  0
 13 45  1  0
 14 46  1  0
 15 47  1  0
 19 48  1  0
 19 49  1  0
 20 50  1  0
 26 51  1  0
 27 52  1  0
 28 53  1  0
 29 54  1  0
M  END
$$$$
[H]c1c([H])c(C(=O)N([H])c2c([H])c([H])c(N3C([H])([H])C([H])([H])N(S(=O)(=O)C([H])([H])[H])C([H])([H])C3([H])[H])c([H])c2[H])c(F)c([H])c1Br
     RDKit          3D

 46 48  0  0  0  0  0  0  0  0999 V2000
    6.9765    1.4175   -1.3667 C   0  0  0  0  0  0  0  0  0  0  0  0
    6.7295   -0.1066   -0.5138 S   0  0  0  0  0  0  0  0  0  0  0  0
    7.2832   -1.2389   -1.3672 O   0  0  0  0  0  0  0  0  0  0  0  0
    7.5031   -0.0931    0.7677 O   0  0  0  0  0  0  0  0  0  0  0  0
    5.1043   -0.4563   -0.1690 N   0  0  0  0  0  0  0  0  0  0  0  0
    4.2497   -0.5976   -1.3018 C   0  0  0  0  0  0  0  0  0  0  0  0
    2.9332   -1.1950   -0.7841 C   0  0  0  0  0  0  0  0  0  0  0  0
    2.3198   -0.1233   -0.0246 N   0  0  0  0  0  0  0  0  0  0  0  0
    3.2243    0.8417    0.5622 C   0  0  0  0  0  0  0  0  0  0  0  0
    4.5504    0.1836    0.9711 C   0  0  0  0  0  0  0  0  0  0  0  0
    0.9135   -0.0279    0.1391 C   0  0  0  0  0  0  0  0  0  0  0  0
    0.3027    1.0533    0.7330 C   0  0  0  0  0  0  0  0  0  0  0  0
   -1.0675    1.1033    0.8775 C   0  0  0  0  0  0  0  0  0  0  0  0
   -1.9057    0.0676    0.4325 C   0  0  0  0  0  0  0  0  0  0  0  0
   -3.3110    0.2010    0.6428 N   0  0  0  0  0  0  0  0  0  0  0  0
   -4.3368   -0.4889    0.0309 C   0  0  0  0  0  0  0  0  0  0  0  0
   -4.0622   -1.3816   -0.8461 O   0  0  0  0  0  0  0  0  0  0  0  0
   -5.7441   -0.2866    0.3063 C   0  0  0  0  0  0  0  0  0  0  0  0
   -6.6424   -1.3546    0.0598 C   0  0  0  0  0  0  0  0  0  0  0  0
   -7.9697   -1.2900    0.3128 C   0  0  0  0  0  0  0  0  0  0  0  0
   -8.5254   -0.1437    0.8395 C   0  0  0  0  0  0  0  0  0  0  0  0
  -10.3971   -0.1448    1.1630 Br  0  0  0  0  0  0  0  0  0  0  0  0
   -7.7071    0.9026    1.0909 C   0  0  0  0  0  0  0  0  0  0  0  0
   -6.3266    0.8364    0.8274 C   0  0  0  0  0  0  0  0  0  0  0  0
   -5.5704    1.9365    1.0733 F   0  0  0  0  0  0  0  0  0  0  0  0
   -1.2968   -1.0032   -0.1555 C   0  0  0  0  0  0  0  0  0  0  0  0
    0.1022   -1.0444   -0.2982 C   0  0  0  0  0  0  0  0  0  0  0  0
    7.0812    1.2395   -2.4772 H   0  0  0  0  0  0  0  0  0  0  0  0
    6.1708    2.1535   -1.1780 H   0  0  0  0  0  0  0  0  0  0  0  0
    7.9308    1.9209   -1.0503 H   0  0  0  0  0  0  0  0  0  0  0  0
    3.9690    0.3731   -1.7824 H   0  0  0  0  0  0  0  0  0  0  0  0
    4.7236   -1.2629   -2.0329 H   0  0  0  0  0  0  0  0  0  0  0  0
    3.2194   -1.9932   -0.0712 H   0  0  0  0  0  0  0  0  0  0  0  0
    2.3142   -1.5519   -1.6285 H   0  0  0  0  0  0  0  0  0  0  0  0
    2.7736    1.1829    1.5431 H   0  0  0  0  0  0  0  0  0  0  0  0
    3.4098    1.6898   -0.0944 H   0  0  0  0  0  0  0  0  0  0  0  0
    5.2210    0.9129    1.4404 H   0  0  0  0  0  0  0  0  0  0  0  0
    4.2812   -0.5988    1.7209 H   0  0  0  0  0  0  0  0  0  0  0  0
    0.9464    1.8629    1.0782 H   0  0  0  0  0  0  0  0  0  0  0  0
   -1.5254    1.9539    1.3419 H   0  0  0  0  0  0  0  0  0  0  0  0
   -3.5937    0.9151    1.3954 H   0  0  0  0  0  0  0  0  0  0  0  0
   -6.2046   -2.2659   -0.3574 H   0  0  0  0  0  0  0  0  0  0  0  0
   -8.5899   -2.1520    0.0957 H   0  0  0  0  0  0  0  0  0  0  0  0
   -8.1180    1.8069    1.5018 H   0  0  0  0  0  0  0  0  0  0  0  0
   -1.8649   -1.8355   -0.5089 H   0  0  0  0  0  0  0  0  0  0  0  0
    0.5257   -1.9184   -0.7701 H   0  0  0  0  0  0  0  0  0  0  0  0
  1  2  1  0
  2  3  2  0
  2  4  2  0
  2  5  1  0
  5  6  1  0
  6  7  1  0
  7  8  1  0
  8  9  1  0
  9 10  1  0
  8 11  1  0
 11 12  2  0
 12 13  1  0
 13 14  2  0
 14 15  1  0
 15 16  1  0
 16 17  2  0
 16 18  1  0
 18 19  2  0
 19 20  1  0
 20 21  2  0
 21 22  1  0
 21 23  1  0
 23 24  2  0
 24 25  1  0
 14 26  1  0
 26 27  2  0
 10  5  1  0
 27 11  1  0
 24 18  1  0
  1 28  1  0
  1 29  1  0
  1 30  1  0
  6 31  1  0
  6 32  1  0
  7 33  1  0
  7 34  1  0
  9 35  1  0
  9 36  1  0
 10 37  1  0
 10 38  1  0
 12 39  1  0
 13 40  1  0
 15 41  1  0
 19 42  1  0
 20 43  1  0
 23 44  1  0
 26 45  1  0
 27 46  1  0
M  END
$$$$
[H]OC(=O)[C@]1([H])O[C@@]([H])(n2c([H])nc3c(N([H])[H])nc([H])nc32)[C@@]([H])(O[H])[C@]1([H])O[H]
     RDKit          3D

 31 33  0  0  0  0  0  0  0  0999 V2000
    5.1244   -0.2438   -0.5529 N   0  0  0  0  0  0  0  0  0  0  0  0
    3.8498   -0.3569    0.0573 C   0  0  0  0  0  0  0  0  0  0  0  0
    3.7285   -1.0922    1.1772 N   0  0  0  0  0  0  0  0  0  0  0  0
    2.5442   -1.2373    1.8030 C   0  0  0  0  0  0  0  0  0  0  0  0
    1.4385   -0.6433    1.3182 N   0  0  0  0  0  0  0  0  0  0  0  0
    1.4792    0.1084    0.2024 C   0  0  0  0  0  0  0  0  0  0  0  0
    0.5394    0.7935   -0.4737 N   0  0  0  0  0  0  0  0  0  0  0  0
    1.1794    1.3529   -1.5168 C   0  0  0  0  0  0  0  0  0  0  0  0
    2.4977    1.0176   -1.4854 N   0  0  0  0  0  0  0  0  0  0  0  0
    2.7086    0.2465   -0.4289 C   0  0  0  0  0  0  0  0  0  0  0  0
   -0.8776    0.8899   -0.1207 C   0  0  2  0  0  0  0  0  0  0  0  0
   -1.0511    0.4706    1.1641 O   0  0  0  0  0  0  0  0  0  0  0  0
   -2.1007   -0.4176    1.2176 C   0  0  2  0  0  0  0  0  0  0  0  0
   -2.2891   -0.9933   -0.1481 C   0  0  1  0  0  0  0  0  0  0  0  0
   -3.6647   -1.1732   -0.4176 O   0  0  0  0  0  0  0  0  0  0  0  0
   -1.7048    0.0642   -1.0395 C   0  0  2  0  0  0  0  0  0  0  0  0
   -0.9670   -0.5261   -2.0713 O   0  0  0  0  0  0  0  0  0  0  0  0
   -3.3103    0.3130    1.6744 C   0  0  0  0  0  0  0  0  0  0  0  0
   -3.2731    1.6639    1.9699 O   0  0  0  0  0  0  0  0  0  0  0  0
   -4.3990   -0.3148    1.7959 O   0  0  0  0  0  0  0  0  0  0  0  0
    5.4484   -0.8529   -1.3283 H   0  0  0  0  0  0  0  0  0  0  0  0
    5.7792    0.4877   -0.2115 H   0  0  0  0  0  0  0  0  0  0  0  0
    2.4305   -1.8234    2.7017 H   0  0  0  0  0  0  0  0  0  0  0  0
    0.6675    1.9686   -2.2406 H   0  0  0  0  0  0  0  0  0  0  0  0
   -1.2230    1.9545   -0.1839 H   0  0  0  0  0  0  0  0  0  0  0  0
   -1.8079   -1.2120    1.9649 H   0  0  0  0  0  0  0  0  0  0  0  0
   -1.7224   -1.9292   -0.3182 H   0  0  0  0  0  0  0  0  0  0  0  0
   -3.7756   -1.1021   -1.3957 H   0  0  0  0  0  0  0  0  0  0  0  0
   -2.5630    0.6611   -1.4557 H   0  0  0  0  0  0  0  0  0  0  0  0
   -1.4188   -0.4610   -2.9439 H   0  0  0  0  0  0  0  0  0  0  0  0
   -3.2674    2.3865    1.2858 H   0  0  0  0  0  0  0  0  0  0  0  0
  1  2  1  0
  2  3  2  0
  3  4  1  0
  4  5  2  0
  5  6  1  0
  6  7  1  0
  7  8  1  0
  8  9  2  0
  9 10  1  0
  7 11  1  0
 11 12  1  0
 12 13  1  0
 13 14  1  0
 14 15  1  0
 14 16  1  0
 16 17  1  0
 13 18  1  0
 18 19  1  0
 18 20  2  0
 10  2  1  0
 16 11  1  0
 10  6  2  0
  1 21  1  0
  1 22  1  0
  4 23  1  0
  8 24  1  0
 11 25  1  1
 13 26  1  1
 14 27  1  1
 15 28  1  0
 16 29  1  6
 17 30  1  0
 19 31  1  0
M  END
$$$$
[H]Oc1c([H])c([H])c2c(c1[H])C([H])([H])C([H])([H])[C@]1([H])[C@]2([H])C([H])([H])C([H])([H])[C@]2(C([H])([H])[H])C([H])=C([H])C([H])([H])[C@]21[H]
     RDKit          3D

 41 44  0  0  0  0  0  0  0  0999 V2000
   -2.6346   -1.3601    0.6567 C   0  0  0  0  0  0  0  0  0  0  0  0
   -2.5091   -0.2584   -0.3665 C   0  0  2  0  0  0  0  0  0  0  0  0
   -1.9064   -0.8115   -1.6201 C   0  0  0  0  0  0  0  0  0  0  0  0
   -0.4562   -1.1766   -1.3984 C   0  0  0  0  0  0  0  0  0  0  0  0
    0.3173   -0.0675   -0.7572 C   0  0  1  0  0  0  0  0  0  0  0  0
   -0.3617    0.3683    0.5514 C   0  0  1  0  0  0  0  0  0  0  0  0
    0.4720    1.2755    1.3789 C   0  0  0  0  0  0  0  0  0  0  0  0
    1.7962    1.6582    0.8127 C   0  0  0  0  0  0  0  0  0  0  0  0
    2.4993    0.5155    0.1754 C   0  0  0  0  0  0  0  0  0  0  0  0
    3.8597    0.3020    0.3502 C   0  0  0  0  0  0  0  0  0  0  0  0
    4.4835   -0.7724   -0.2578 C   0  0  0  0  0  0  0  0  0  0  0  0
    5.8651   -0.9940   -0.0837 O   0  0  0  0  0  0  0  0  0  0  0  0
    3.7247   -1.6095   -1.0292 C   0  0  0  0  0  0  0  0  0  0  0  0
    2.3516   -1.3845   -1.1988 C   0  0  0  0  0  0  0  0  0  0  0  0
    1.7276   -0.3218   -0.5991 C   0  0  0  0  0  0  0  0  0  0  0  0
   -1.6630    0.8935    0.1275 C   0  0  2  0  0  0  0  0  0  0  0  0
   -2.5829    1.4806    1.1375 C   0  0  0  0  0  0  0  0  0  0  0  0
   -3.8713    1.3913    0.3506 C   0  0  0  0  0  0  0  0  0  0  0  0
   -3.8048    0.3873   -0.5058 C   0  0  0  0  0  0  0  0  0  0  0  0
   -3.5668   -1.9334    0.3735 H   0  0  0  0  0  0  0  0  0  0  0  0
   -1.8096   -2.0836    0.5410 H   0  0  0  0  0  0  0  0  0  0  0  0
   -2.7934   -1.0164    1.6769 H   0  0  0  0  0  0  0  0  0  0  0  0
   -2.4377   -1.7653   -1.8527 H   0  0  0  0  0  0  0  0  0  0  0  0
   -2.0312   -0.1612   -2.5070 H   0  0  0  0  0  0  0  0  0  0  0  0
   -0.3409   -2.1448   -0.8731 H   0  0  0  0  0  0  0  0  0  0  0  0
   -0.0252   -1.3182   -2.4273 H   0  0  0  0  0  0  0  0  0  0  0  0
    0.1991    0.8313   -1.4325 H   0  0  0  0  0  0  0  0  0  0  0  0
   -0.5427   -0.5931    1.1181 H   0  0  0  0  0  0  0  0  0  0  0  0
    0.6806    0.8050    2.3863 H   0  0  0  0  0  0  0  0  0  0  0  0
   -0.0556    2.2375    1.6362 H   0  0  0  0  0  0  0  0  0  0  0  0
    2.4491    2.0005    1.6570 H   0  0  0  0  0  0  0  0  0  0  0  0
    1.7485    2.5133    0.1105 H   0  0  0  0  0  0  0  0  0  0  0  0
    4.4424    0.9877    0.9728 H   0  0  0  0  0  0  0  0  0  0  0  0
    6.4938   -0.5499   -0.7599 H   0  0  0  0  0  0  0  0  0  0  0  0
    4.1952   -2.4555   -1.5129 H   0  0  0  0  0  0  0  0  0  0  0  0
    1.8381   -2.0910   -1.8195 H   0  0  0  0  0  0  0  0  0  0  0  0
   -1.5389    1.5968   -0.7072 H   0  0  0  0  0  0  0  0  0  0  0  0
   -2.6405    0.9720    2.0954 H   0  0  0  0  0  0  0  0  0  0  0  0
   -2.3025    2.5383    1.3144 H   0  0  0  0  0  0  0  0  0  0  0  0
   -4.7011    2.0580    0.4880 H   0  0  0  0  0  0  0  0  0  0  0  0
   -4.5677    0.0560   -1.2207 H   0  0  0  0  0  0  0  0  0  0  0  0
  2  1  1  1
  2  3  1  0
  3  4  1  0
  4  5  1  0
  5  6  1  0
  6  7  1  0
  7  8  1  0
  8  9  1  0
  9 10  2  0
 10 11  1  0
 11 12  1  0
 11 13  2  0
 13 14  1  0
 14 15  2  0
  6 16  1  0
 16 17  1  0
 17 18  1  0
 18 19  2  0
 16  2  1  0
 19  2  1  0
 15  5  1  0
 15  9  1  0
  1 20  1  0
  1 21  1  0
  1 22  1  0
  3 23  1  0
  3 24  1  0
  4 25  1  0
  4 26  1  0
  5 27  1  6
  6 28  1  1
  7 29  1  0
  7 30  1  0
  8 31  1  0
  8 32  1  0
 10 33  1  0
 12 34  1  0
 13 35  1  0
 14 36  1  0
 16 37  1  6
 17 38  1  0
 17 39  1  0
 18 40  1  0
 19 41  1  0
M  END
$$$$
[H]OC(=O)C([H])([H])c1c([H])c([H])c(OC([H])([H])C([H])([H])C([H])([H])C([H])([H])C([H])([H])c2c([H])c([H])c(Cl)c(Cl)c2[H])c([H])c1[H]
     RDKit          3D

 44 45  0  0  0  0  0  0  0  0999 V2000
   -8.6029    1.2722    0.5683 O   0  0  0  0  0  0  0  0  0  0  0  0
   -7.2280    1.2259    0.5193 C   0  0  0  0  0  0  0  0  0  0  0  0
   -6.5942    1.8550    1.4047 O   0  0  0  0  0  0  0  0  0  0  0  0
   -6.4945    0.4593   -0.5426 C   0  0  0  0  0  0  0  0  0  0  0  0
   -5.0265    0.5833   -0.3529 C   0  0  0  0  0  0  0  0  0  0  0  0
   -4.3094   -0.3002    0.4174 C   0  0  0  0  0  0  0  0  0  0  0  0
   -2.9309   -0.1804    0.5933 C   0  0  0  0  0  0  0  0  0  0  0  0
   -2.2071    0.8288    0.0049 C   0  0  0  0  0  0  0  0  0  0  0  0
   -0.8581    1.0244    0.1139 O   0  0  0  0  0  0  0  0  0  0  0  0
    0.0917    0.2902    0.7671 C   0  0  0  0  0  0  0  0  0  0  0  0
    0.2722   -1.0637    0.1723 C   0  0  0  0  0  0  0  0  0  0  0  0
    1.2991   -1.8976    0.8798 C   0  0  0  0  0  0  0  0  0  0  0  0
    2.6555   -1.2991    0.8993 C   0  0  0  0  0  0  0  0  0  0  0  0
    3.1719   -1.0991   -0.4943 C   0  0  0  0  0  0  0  0  0  0  0  0
    4.5279   -0.5129   -0.3854 C   0  0  0  0  0  0  0  0  0  0  0  0
    5.6531   -1.3076   -0.3150 C   0  0  0  0  0  0  0  0  0  0  0  0
    6.9033   -0.7348   -0.2141 C   0  0  0  0  0  0  0  0  0  0  0  0
    7.0616    0.6273   -0.1812 C   0  0  0  0  0  0  0  0  0  0  0  0
    8.6186    1.4065   -0.0545 Cl  0  0  0  0  0  0  0  0  0  0  0  0
    5.9376    1.4392   -0.2513 C   0  0  0  0  0  0  0  0  0  0  0  0
    6.0887    3.1715   -0.2131 Cl  0  0  0  0  0  0  0  0  0  0  0  0
    4.6821    0.8482   -0.3529 C   0  0  0  0  0  0  0  0  0  0  0  0
   -2.9637    1.7245   -0.7808 C   0  0  0  0  0  0  0  0  0  0  0  0
   -4.3164    1.6023   -0.9494 C   0  0  0  0  0  0  0  0  0  0  0  0
   -9.1925    0.5977    0.1075 H   0  0  0  0  0  0  0  0  0  0  0  0
   -6.8320   -0.6045   -0.4143 H   0  0  0  0  0  0  0  0  0  0  0  0
   -6.8227    0.7519   -1.5592 H   0  0  0  0  0  0  0  0  0  0  0  0
   -4.8669   -1.1084    0.8915 H   0  0  0  0  0  0  0  0  0  0  0  0
   -2.4471   -0.9095    1.2445 H   0  0  0  0  0  0  0  0  0  0  0  0
   -0.2107    0.1794    1.8464 H   0  0  0  0  0  0  0  0  0  0  0  0
    1.0579    0.8508    0.8147 H   0  0  0  0  0  0  0  0  0  0  0  0
   -0.6725   -1.6106    0.1281 H   0  0  0  0  0  0  0  0  0  0  0  0
    0.6608   -0.8836   -0.8780 H   0  0  0  0  0  0  0  0  0  0  0  0
    1.3538   -2.8740    0.3234 H   0  0  0  0  0  0  0  0  0  0  0  0
    0.9260   -2.1061    1.9136 H   0  0  0  0  0  0  0  0  0  0  0  0
    2.6367   -0.2977    1.3967 H   0  0  0  0  0  0  0  0  0  0  0  0
    3.3458   -1.9940    1.4483 H   0  0  0  0  0  0  0  0  0  0  0  0
    3.2331   -2.0682   -1.0425 H   0  0  0  0  0  0  0  0  0  0  0  0
    2.5835   -0.4207   -1.1158 H   0  0  0  0  0  0  0  0  0  0  0  0
    5.5643   -2.3844   -0.3384 H   0  0  0  0  0  0  0  0  0  0  0  0
    7.7664   -1.3673   -0.1605 H   0  0  0  0  0  0  0  0  0  0  0  0
    3.7927    1.4572   -0.4088 H   0  0  0  0  0  0  0  0  0  0  0  0
   -2.4218    2.5234   -1.2512 H   0  0  0  0  0  0  0  0  0  0  0  0
   -4.8864    2.3053   -1.5616 H   0  0  0  0  0  0  0  0  0  0  0  0
  1  2  1  0
  2  3  2  0
  2  4  1  0
  4  5  1  0
  5  6  2  0
  6  7  1  0
  7  8  2  0
  8  9  1  0
  9 10  1  0
 10 11  1  0
 11 12  1  0
 12 13  1  0
 13 14  1  0
 14 15  1  0
 15 16  2  0
 16 17  1  0
 17 18  2  0
 18 19  1  0
 18 20  1  0
 20 21  1  0
 20 22  2  0
  8 23  1  0
 23 24  2  0
 24  5  1  0
 22 15  1  0
  1 25  1  0
  4 26  1  0
  4 27  1  0
  6 28  1  0
  7 29  1  0
 10 30  1  0
 10 31  1  0
 11 32  1  0
 11 33  1  0
 12 34  1  0
 12 35  1  0
 13 36  1  0
 13 37  1  0
 14 38  1  0
 14 39  1  0
 16 40  1  0
 17 41  1  0
 22 42  1  0
 23 43  1  0
 24 44  1  0
M  END
$$$$
[H]OC(=O)c1c([H])c(-c2c([H])c([H])c3c(c2[H])C([H])([H])C([H])([H])S3)c([H])c([H])c1C([H])([H])OC([H])([H])c1c([H])c([H])c([H])c(F)c1[H]
     RDKit          3D

 47 50  0  0  0  0  0  0  0  0999 V2000
   -1.6736   -3.9552   -0.9983 O   0  0  0  0  0  0  0  0  0  0  0  0
   -0.3613   -3.5787   -0.9125 C   0  0  0  0  0  0  0  0  0  0  0  0
    0.5176   -4.4276   -1.1756 O   0  0  0  0  0  0  0  0  0  0  0  0
    0.0277   -2.2422   -0.5300 C   0  0  0  0  0  0  0  0  0  0  0  0
    1.3788   -1.9347   -0.4342 C   0  0  0  0  0  0  0  0  0  0  0  0
    1.8715   -0.7075   -0.0777 C   0  0  0  0  0  0  0  0  0  0  0  0
    0.9740    0.2897    0.2050 C   0  0  0  0  0  0  0  0  0  0  0  0
   -0.3755    0.0255    0.1215 C   0  0  0  0  0  0  0  0  0  0  0  0
   -0.8556   -1.2309   -0.2434 C   0  0  0  0  0  0  0  0  0  0  0  0
   -2.3116   -1.4858   -0.3304 C   0  0  0  0  0  0  0  0  0  0  0  0
   -2.9747   -0.2785    0.0167 O   0  0  0  0  0  0  0  0  0  0  0  0
   -4.3359   -0.5534   -0.0785 C   0  0  0  0  0  0  0  0  0  0  0  0
   -5.1606    0.6314    0.2578 C   0  0  0  0  0  0  0  0  0  0  0  0
   -5.5845    0.8409    1.5437 C   0  0  0  0  0  0  0  0  0  0  0  0
   -6.3485    1.9405    1.8592 C   0  0  0  0  0  0  0  0  0  0  0  0
   -6.6855    2.8325    0.8699 C   0  0  0  0  0  0  0  0  0  0  0  0
   -6.2570    2.6162   -0.4176 C   0  0  0  0  0  0  0  0  0  0  0  0
   -6.5957    3.5077   -1.3987 F   0  0  0  0  0  0  0  0  0  0  0  0
   -5.4941    1.5147   -0.7230 C   0  0  0  0  0  0  0  0  0  0  0  0
    3.3400   -0.4855   -0.0074 C   0  0  0  0  0  0  0  0  0  0  0  0
    4.1217   -1.5540    0.3583 C   0  0  0  0  0  0  0  0  0  0  0  0
    5.4933   -1.3745    0.4321 C   0  0  0  0  0  0  0  0  0  0  0  0
    6.0308   -0.1516    0.1422 C   0  0  0  0  0  0  0  0  0  0  0  0
    7.7220    0.4133    0.1620 S   0  0  0  0  0  0  0  0  0  0  0  0
    7.2990    2.2125    0.2194 C   0  0  0  0  0  0  0  0  0  0  0  0
    5.9978    2.1531   -0.5123 C   0  0  0  0  0  0  0  0  0  0  0  0
    5.2746    0.9306   -0.2258 C   0  0  0  0  0  0  0  0  0  0  0  0
    3.8962    0.7131   -0.2892 C   0  0  0  0  0  0  0  0  0  0  0  0
   -2.1323   -4.5870   -0.3363 H   0  0  0  0  0  0  0  0  0  0  0  0
    2.0783   -2.7462   -0.6641 H   0  0  0  0  0  0  0  0  0  0  0  0
    1.3231    1.2778    0.4917 H   0  0  0  0  0  0  0  0  0  0  0  0
   -1.1139    0.7947    0.3396 H   0  0  0  0  0  0  0  0  0  0  0  0
   -2.5967   -1.7833   -1.3575 H   0  0  0  0  0  0  0  0  0  0  0  0
   -2.6628   -2.2578    0.3699 H   0  0  0  0  0  0  0  0  0  0  0  0
   -4.5213   -0.9027   -1.1208 H   0  0  0  0  0  0  0  0  0  0  0  0
   -4.5272   -1.3869    0.6566 H   0  0  0  0  0  0  0  0  0  0  0  0
   -5.3357    0.1550    2.3473 H   0  0  0  0  0  0  0  0  0  0  0  0
   -6.7023    2.1414    2.8615 H   0  0  0  0  0  0  0  0  0  0  0  0
   -7.2896    3.7308    1.0391 H   0  0  0  0  0  0  0  0  0  0  0  0
   -5.1815    1.3942   -1.7666 H   0  0  0  0  0  0  0  0  0  0  0  0
    3.6756   -2.5231    0.5862 H   0  0  0  0  0  0  0  0  0  0  0  0
    6.0746   -2.2360    0.7225 H   0  0  0  0  0  0  0  0  0  0  0  0
    7.2265    2.5559    1.2613 H   0  0  0  0  0  0  0  0  0  0  0  0
    8.0257    2.7918   -0.3869 H   0  0  0  0  0  0  0  0  0  0  0  0
    5.3958    3.0251   -0.1140 H   0  0  0  0  0  0  0  0  0  0  0  0
    6.1183    2.3703   -1.5970 H   0  0  0  0  0  0  0  0  0  0  0  0
    3.2143    1.5245   -0.5743 H   0  0  0  0  0  0  0  0  0  0  0  0
  1  2  1  0
  2  3  2  0
  2  4  1  0
  4  5  2  0
  5  6  1  0
  6  7  2  0
  7  8  1  0
  8  9  2  0
  9 10  1  0
 10 11  1  0
 11 12  1  0
 12 13  1  0
 13 14  2  0
 14 15  1  0
 15 16  2  0
 16 17  1  0
 17 18  1  0
 17 19  2  0
  6 20  1  0
 20 21  2  0
 21 22  1  0
 22 23  2  0
 23 24  1  0
 24 25  1  0
 25 26  1  0
 26 27  1  0
 27 28  2  0
  9  4  1  0
 19 13  1  0
 28 20  1  0
 27 23  1  0
  1 29  1  0
  5 30  1  0
  7 31  1  0
  8 32  1  0
 10 33  1  0
 10 34  1  0
 12 35  1  0
 12 36  1  0
 14 37  1  0
 15 38  1  0
 16 39  1  0
 19 40  1  0
 21 41  1  0
 22 42  1  0
 25 43  1  0
 25 44  1  0
 26 45  1  0
 26 46  1  0
 28 47  1  0
M  END
$$$$
[H]N([H])[C@]([H])(N(C([H])([H])[H])C([H])([H])[H])C([H])([H])N1C(=O)C2([H])C([H])([H])C([H])(C1([H])[H])C2([H])[H]
     RDKit          3D

 33 34  0  0  0  0  0  0  0  0999 V2000
   -2.7082    0.5194    1.2375 C   0  0  0  0  0  0  0  0  0  0  0  0
   -2.1909   -0.4460    0.2816 N   0  0  0  0  0  0  0  0  0  0  0  0
   -3.2548   -1.3574   -0.0214 C   0  0  0  0  0  0  0  0  0  0  0  0
   -1.6063    0.1510   -0.8623 C   0  0  1  0  0  0  0  0  0  0  0  0
   -2.5801    1.0878   -1.4629 N   0  0  0  0  0  0  0  0  0  0  0  0
   -0.3777    0.9222   -0.6115 C   0  0  0  0  0  0  0  0  0  0  0  0
    0.7670    0.2496   -0.0998 N   0  0  0  0  0  0  0  0  0  0  0  0
    1.6527   -0.3319   -1.1549 C   0  0  0  0  0  0  0  0  0  0  0  0
    3.0349   -0.4953   -0.6290 C   0  0  0  0  0  0  0  0  0  0  0  0
    3.1442   -1.2777    0.6508 C   0  0  0  0  0  0  0  0  0  0  0  0
    2.7267    0.0122    1.3638 C   0  0  0  0  0  0  0  0  0  0  0  0
    3.3635    0.7501    0.2051 C   0  0  0  0  0  0  0  0  0  0  0  0
    1.2186    0.0321    1.2024 C   0  0  0  0  0  0  0  0  0  0  0  0
    0.5895   -0.1469    2.2441 O   0  0  0  0  0  0  0  0  0  0  0  0
   -3.2781   -0.0578    1.9956 H   0  0  0  0  0  0  0  0  0  0  0  0
   -1.9526    1.1046    1.7554 H   0  0  0  0  0  0  0  0  0  0  0  0
   -3.4472    1.2014    0.7340 H   0  0  0  0  0  0  0  0  0  0  0  0
   -3.1834   -2.2266    0.6976 H   0  0  0  0  0  0  0  0  0  0  0  0
   -3.1589   -1.7962   -1.0306 H   0  0  0  0  0  0  0  0  0  0  0  0
   -4.2627   -0.9051    0.0788 H   0  0  0  0  0  0  0  0  0  0  0  0
   -1.4874   -0.6239   -1.6588 H   0  0  0  0  0  0  0  0  0  0  0  0
   -2.3408    2.0463   -1.1957 H   0  0  0  0  0  0  0  0  0  0  0  0
   -3.5490    0.8202   -1.2653 H   0  0  0  0  0  0  0  0  0  0  0  0
   -0.0764    1.4169   -1.5908 H   0  0  0  0  0  0  0  0  0  0  0  0
   -0.5776    1.7727    0.0939 H   0  0  0  0  0  0  0  0  0  0  0  0
    1.6903    0.4305   -1.9564 H   0  0  0  0  0  0  0  0  0  0  0  0
    1.1764   -1.2349   -1.5250 H   0  0  0  0  0  0  0  0  0  0  0  0
    3.7608   -0.7122   -1.4167 H   0  0  0  0  0  0  0  0  0  0  0  0
    2.4191   -2.1040    0.7874 H   0  0  0  0  0  0  0  0  0  0  0  0
    4.1935   -1.5244    0.8701 H   0  0  0  0  0  0  0  0  0  0  0  0
    3.1064    0.1741    2.3563 H   0  0  0  0  0  0  0  0  0  0  0  0
    4.4296    0.9091    0.3571 H   0  0  0  0  0  0  0  0  0  0  0  0
    2.7589    1.6401   -0.1029 H   0  0  0  0  0  0  0  0  0  0  0  0
  1  2  1  0
  2  3  1  0
  2  4  1  0
  4  5  1  0
  4  6  1  0
  6  7  1  0
  7  8  1  0
  8  9  1  0
  9 10  1  0
 10 11  1  0
 11 12  1  0
 11 13  1  0
 13 14  2  0
 13  7  1  0
 12  9  1  0
  1 15  1  0
  1 16  1  0
  1 17  1  0
  3 18  1  0
  3 19  1  0
  3 20  1  0
  4 21  1  6
  5 22  1  0
  5 23  1  0
  6 24  1  0
  6 25  1  0
  8 26  1  0
  8 27  1  0
  9 28  1  0
 10 29  1  0
 10 30  1  0
 11 31  1  0
 12 32  1  0
 12 33  1  0
M  END
$$$$
[H]OC(C([H])([H])[H])(C([H])([H])[H])[C@@]([H])(N([H])S(=O)(=O)c1c([H])c([H])c(N([H])C(=O)c2c([H])c([H])c(C(F)(F)F)c([H])c2[H])c([H])c1[H])C([H])(C([H])([H])[H])C([H])([H])[H]
     RDKit          3D

 56 57  0  0  0  0  0  0  0  0999 V2000
   -5.6246   -2.2489    0.6358 C   0  0  0  0  0  0  0  0  0  0  0  0
   -4.9987   -0.9762    1.1002 C   0  0  0  0  0  0  0  0  0  0  0  0
   -5.8732   -0.0764    1.8845 C   0  0  0  0  0  0  0  0  0  0  0  0
   -4.1052   -0.3044    0.0627 C   0  0  2  0  0  0  0  0  0  0  0  0
   -3.6266    0.9087    0.6414 N   0  0  0  0  0  0  0  0  0  0  0  0
   -2.1570    0.9867    1.3883 S   0  0  0  0  0  0  0  0  0  0  0  0
   -2.2131    0.1281    2.6986 O   0  0  0  0  0  0  0  0  0  0  0  0
   -1.9882    2.4136    2.0002 O   0  0  0  0  0  0  0  0  0  0  0  0
   -0.6863    0.6401    0.5624 C   0  0  0  0  0  0  0  0  0  0  0  0
    0.0522   -0.4738    0.8781 C   0  0  0  0  0  0  0  0  0  0  0  0
    1.3274   -0.7017    0.3358 C   0  0  0  0  0  0  0  0  0  0  0  0
    1.8312    0.2086   -0.5139 C   0  0  0  0  0  0  0  0  0  0  0  0
    3.2183    0.1379   -0.9081 N   0  0  0  0  0  0  0  0  0  0  0  0
    4.1454   -0.1590    0.1375 C   0  0  0  0  0  0  0  0  0  0  0  0
    3.7395   -0.3965    1.3046 O   0  0  0  0  0  0  0  0  0  0  0  0
    5.6023   -0.1837   -0.0976 C   0  0  0  0  0  0  0  0  0  0  0  0
    6.1434    0.3830   -1.2215 C   0  0  0  0  0  0  0  0  0  0  0  0
    7.5204    0.4495   -1.3366 C   0  0  0  0  0  0  0  0  0  0  0  0
    8.3378   -0.0485   -0.3401 C   0  0  0  0  0  0  0  0  0  0  0  0
    7.7972   -0.6176    0.7857 C   0  0  0  0  0  0  0  0  0  0  0  0
    6.4104   -0.6870    0.9079 C   0  0  0  0  0  0  0  0  0  0  0  0
    9.8422    0.0717   -0.4068 C   0  0  0  0  0  0  0  0  0  0  0  0
   10.2658    0.3966    0.8767 F   0  0  0  0  0  0  0  0  0  0  0  0
   10.1588    1.1684   -1.2106 F   0  0  0  0  0  0  0  0  0  0  0  0
   10.4083   -1.0659   -0.8605 F   0  0  0  0  0  0  0  0  0  0  0  0
    1.1051    1.3357   -0.8576 C   0  0  0  0  0  0  0  0  0  0  0  0
   -0.1556    1.5450   -0.3151 C   0  0  0  0  0  0  0  0  0  0  0  0
   -4.6526   -0.1633   -1.2964 C   0  0  0  0  0  0  0  0  0  0  0  0
   -5.8437    0.7738   -1.3457 C   0  0  0  0  0  0  0  0  0  0  0  0
   -3.6136    0.5028   -2.2192 C   0  0  0  0  0  0  0  0  0  0  0  0
   -5.0477   -1.3252   -1.9161 O   0  0  0  0  0  0  0  0  0  0  0  0
   -6.6206   -2.0913    0.1783 H   0  0  0  0  0  0  0  0  0  0  0  0
   -4.9434   -2.7808   -0.0404 H   0  0  0  0  0  0  0  0  0  0  0  0
   -5.7442   -2.9199    1.5318 H   0  0  0  0  0  0  0  0  0  0  0  0
   -4.2170   -1.3339    1.8737 H   0  0  0  0  0  0  0  0  0  0  0  0
   -5.8575   -0.3690    2.9620 H   0  0  0  0  0  0  0  0  0  0  0  0
   -6.9485   -0.0917    1.6250 H   0  0  0  0  0  0  0  0  0  0  0  0
   -5.4585    0.9494    1.8699 H   0  0  0  0  0  0  0  0  0  0  0  0
   -3.2136   -0.9988    0.0509 H   0  0  0  0  0  0  0  0  0  0  0  0
   -3.8087    1.6935   -0.0006 H   0  0  0  0  0  0  0  0  0  0  0  0
   -0.3623   -1.1942    1.5700 H   0  0  0  0  0  0  0  0  0  0  0  0
    1.8135   -1.6169    0.6380 H   0  0  0  0  0  0  0  0  0  0  0  0
    3.4687    0.2910   -1.8702 H   0  0  0  0  0  0  0  0  0  0  0  0
    5.5357    0.7733   -2.0179 H   0  0  0  0  0  0  0  0  0  0  0  0
    7.9717    0.8787   -2.1859 H   0  0  0  0  0  0  0  0  0  0  0  0
    8.3953   -1.0109    1.5892 H   0  0  0  0  0  0  0  0  0  0  0  0
    5.9252   -1.1275    1.7564 H   0  0  0  0  0  0  0  0  0  0  0  0
    1.5695    2.0322   -1.5461 H   0  0  0  0  0  0  0  0  0  0  0  0
   -0.6607    2.4281   -0.6220 H   0  0  0  0  0  0  0  0  0  0  0  0
   -5.5994    1.7092   -1.9406 H   0  0  0  0  0  0  0  0  0  0  0  0
   -6.2787    1.0310   -0.3827 H   0  0  0  0  0  0  0  0  0  0  0  0
   -6.6698    0.3066   -1.9713 H   0  0  0  0  0  0  0  0  0  0  0  0
   -2.6146    0.0246   -2.0085 H   0  0  0  0  0  0  0  0  0  0  0  0
   -3.5527    1.5801   -2.0061 H   0  0  0  0  0  0  0  0  0  0  0  0
   -3.9273    0.3795   -3.2564 H   0  0  0  0  0  0  0  0  0  0  0  0
   -5.5216   -1.1642   -2.7496 H   0  0  0  0  0  0  0  0  0  0  0  0
  1  2  1  0
  2  3  1  0
  2  4  1  0
  4  5  1  0
  5  6  1  0
  6  7  2  0
  6  8  2  0
  6  9  1  0
  9 10  2  0
 10 11  1  0
 11 12  2  0
 12 13  1  0
 13 14  1  0
 14 15  2  0
 14 16  1  0
 16 17  2  0
 17 18  1  0
 18 19  2  0
 19 20  1  0
 20 21  2  0
 19 22  1  0
 22 23  1  0
 22 24  1  0
 22 25  1  0
 12 26  1  0
 26 27  2  0
  4 28  1  0
 28 29  1  0
 28 30  1  0
 28 31  1  0
 27  9  1  0
 21 16  1  0
  1 32  1  0
  1 33  1  0
  1 34  1  0
  2 35  1  0
  3 36  1  0
  3 37  1  0
  3 38  1  0
  4 39  1  6
  5 40  1  0
 10 41  1  0
 11 42  1  0
 13 43  1  0
 17 44  1  0
 18 45  1  0
 20 46  1  0
 21 47  1  0
 26 48  1  0
 27 49  1  0
 29 50  1  0
 29 51  1  0
 29 52  1  0
 30 53  1  0
 30 54  1  0
 30 55  1  0
 31 56  1  0
M  END
$$$$
[H]c1nc(N([H])C(=O)c2c([H])c([H])c([H])c(C(F)(F)F)c2[H])c([H])c(-c2c([H])c([H])c([H])c([H])c2[H])c1[H]
     RDKit          3D

 38 40  0  0  0  0  0  0  0  0999 V2000
    6.8463    2.1683    0.1808 F   0  0  0  0  0  0  0  0  0  0  0  0
    6.8480    0.8747   -0.2455 C   0  0  0  0  0  0  0  0  0  0  0  0
    8.0040    0.2182   -0.0067 F   0  0  0  0  0  0  0  0  0  0  0  0
    6.6898    0.9316   -1.6534 F   0  0  0  0  0  0  0  0  0  0  0  0
    5.6737    0.1402    0.3362 C   0  0  0  0  0  0  0  0  0  0  0  0
    5.8085   -0.7710    1.3707 C   0  0  0  0  0  0  0  0  0  0  0  0
    4.6463   -1.4043    1.7948 C   0  0  0  0  0  0  0  0  0  0  0  0
    3.4231   -1.1540    1.2491 C   0  0  0  0  0  0  0  0  0  0  0  0
    3.2976   -0.2492    0.2382 C   0  0  0  0  0  0  0  0  0  0  0  0
    4.4505    0.3982   -0.2188 C   0  0  0  0  0  0  0  0  0  0  0  0
    2.0081    0.1149   -0.3331 C   0  0  0  0  0  0  0  0  0  0  0  0
    1.9851    0.8789   -1.3189 O   0  0  0  0  0  0  0  0  0  0  0  0
    0.7758   -0.3495    0.2313 N   0  0  0  0  0  0  0  0  0  0  0  0
   -0.4388    0.1528   -0.3022 C   0  0  0  0  0  0  0  0  0  0  0  0
   -1.7164   -0.2621    0.1759 C   0  0  0  0  0  0  0  0  0  0  0  0
   -2.8495    0.2926   -0.2712 C   0  0  0  0  0  0  0  0  0  0  0  0
   -2.7195    1.3274   -1.2541 C   0  0  0  0  0  0  0  0  0  0  0  0
   -1.4864    1.6896   -1.6980 C   0  0  0  0  0  0  0  0  0  0  0  0
   -0.3822    1.1043   -1.2225 N   0  0  0  0  0  0  0  0  0  0  0  0
   -4.1879   -0.1163    0.0576 C   0  0  0  0  0  0  0  0  0  0  0  0
   -4.6748   -1.3775    0.2076 C   0  0  0  0  0  0  0  0  0  0  0  0
   -5.9676   -1.6947    0.6009 C   0  0  0  0  0  0  0  0  0  0  0  0
   -6.8369   -0.6563    0.8735 C   0  0  0  0  0  0  0  0  0  0  0  0
   -6.4027    0.6128    0.7577 C   0  0  0  0  0  0  0  0  0  0  0  0
   -5.0908    0.9316    0.3450 C   0  0  0  0  0  0  0  0  0  0  0  0
    6.7973   -0.9604    1.7796 H   0  0  0  0  0  0  0  0  0  0  0  0
    4.7607   -2.1203    2.6086 H   0  0  0  0  0  0  0  0  0  0  0  0
    2.5444   -1.6966    1.6099 H   0  0  0  0  0  0  0  0  0  0  0  0
    4.3238    1.1130   -1.0456 H   0  0  0  0  0  0  0  0  0  0  0  0
    0.7226   -0.9673    1.0342 H   0  0  0  0  0  0  0  0  0  0  0  0
   -1.7694   -1.0418    0.9333 H   0  0  0  0  0  0  0  0  0  0  0  0
   -3.6394    1.7533   -1.6338 H   0  0  0  0  0  0  0  0  0  0  0  0
   -1.3928    2.4991   -2.4610 H   0  0  0  0  0  0  0  0  0  0  0  0
   -4.0159   -2.2195   -0.0277 H   0  0  0  0  0  0  0  0  0  0  0  0
   -6.3384   -2.7184    0.6873 H   0  0  0  0  0  0  0  0  0  0  0  0
   -7.8425   -0.8505    1.1673 H   0  0  0  0  0  0  0  0  0  0  0  0
   -7.0593    1.4634    0.9745 H   0  0  0  0  0  0  0  0  0  0  0  0
   -4.7945    1.9447    0.2771 H   0  0  0  0  0  0  0  0  0  0  0  0
  1  2  1  0
  2  3  1  0
  2  4  1  0
  2  5  1  0
  5  6  2  0
  6  7  1  0
  7  8  2  0
  8  9  1  0
  9 10  2  0
  9 11  1  0
 11 12  2  0
 11 13  1  0
 13 14  1  0
 14 15  2  0
 15 16  1  0
 16 17  2  0
 17 18  1  0
 18 19  2  0
 16 20  1  0
 20 21  2  0
 21 22  1  0
 22 23  2  0
 23 24  1  0
 24 25  2  0
 10  5  1  0
 19 14  1  0
 25 20  1  0
  6 26  1  0
  7 27  1  0
  8 28  1  0
 10 29  1  0
 13 30  1  0
 15 31  1  0
 17 32  1  0
 18 33  1  0
 21 34  1  0
 22 35  1  0
 23 36  1  0
 24 37  1  0
 25 38  1  0
M  END
$$$$
[H]OC([H])([H])C([H])(n1c([H])c(-c2c([H])c([H])nc(-c3nc([H])c(C([H])([H])[H])c([H])c3[H])c2[H])c([H])c1N([H])C(=O)c1sc([H])c([H])c1[H])C([H])([H])[H]
     RDKit          3D

 52 55  0  0  0  0  0  0  0  0999 V2000
    5.1978    5.4089    3.6268 C   0  0  0  0  0  0  0  0  0  0  0  0
    4.7559    4.1986    2.9047 C   0  0  0  0  0  0  0  0  0  0  0  0
    3.4265    4.0038    2.5952 C   0  0  0  0  0  0  0  0  0  0  0  0
    3.0263    2.8545    1.9128 C   0  0  0  0  0  0  0  0  0  0  0  0
    3.9274    1.8934    1.5320 C   0  0  0  0  0  0  0  0  0  0  0  0
    5.2180    2.1051    1.8447 N   0  0  0  0  0  0  0  0  0  0  0  0
    5.6353    3.2038    2.5023 C   0  0  0  0  0  0  0  0  0  0  0  0
    3.5698    0.6768    0.8197 C   0  0  0  0  0  0  0  0  0  0  0  0
    2.2776    0.3674    0.4537 C   0  0  0  0  0  0  0  0  0  0  0  0
    1.9258   -0.7803   -0.2211 C   0  0  0  0  0  0  0  0  0  0  0  0
    2.9606   -1.6590   -0.5372 C   0  0  0  0  0  0  0  0  0  0  0  0
    4.2581   -1.3625   -0.1772 C   0  0  0  0  0  0  0  0  0  0  0  0
    4.5216   -0.2338    0.4737 N   0  0  0  0  0  0  0  0  0  0  0  0
    0.5573   -1.0956   -0.6022 C   0  0  0  0  0  0  0  0  0  0  0  0
   -0.4893   -0.2379   -0.9516 C   0  0  0  0  0  0  0  0  0  0  0  0
   -1.6042   -0.9734   -1.2389 C   0  0  0  0  0  0  0  0  0  0  0  0
   -2.8680   -0.4912   -1.6325 N   0  0  0  0  0  0  0  0  0  0  0  0
   -3.2200    0.8695   -1.8056 C   0  0  0  0  0  0  0  0  0  0  0  0
   -2.4191    1.8237   -1.6209 O   0  0  0  0  0  0  0  0  0  0  0  0
   -4.6026    1.2174   -2.2276 C   0  0  0  0  0  0  0  0  0  0  0  0
   -5.6440    0.3650   -2.4882 C   0  0  0  0  0  0  0  0  0  0  0  0
   -6.8101    0.9167   -2.8574 C   0  0  0  0  0  0  0  0  0  0  0  0
   -6.8640    2.2794   -2.9433 C   0  0  0  0  0  0  0  0  0  0  0  0
   -5.2871    2.7537   -2.5066 S   0  0  0  0  0  0  0  0  0  0  0  0
   -1.2730   -2.2851   -1.0748 N   0  0  0  0  0  0  0  0  0  0  0  0
    0.0140   -2.3603   -0.6955 C   0  0  0  0  0  0  0  0  0  0  0  0
   -2.1334   -3.4351   -1.2684 C   0  0  0  0  0  0  0  0  0  0  0  0
   -2.9623   -3.6617   -0.0253 C   0  0  0  0  0  0  0  0  0  0  0  0
   -1.3335   -4.6912   -1.5416 C   0  0  0  0  0  0  0  0  0  0  0  0
   -0.5560   -4.5358   -2.6956 O   0  0  0  0  0  0  0  0  0  0  0  0
    5.0620    5.2056    4.7271 H   0  0  0  0  0  0  0  0  0  0  0  0
    4.6705    6.3301    3.3098 H   0  0  0  0  0  0  0  0  0  0  0  0
    6.3042    5.5367    3.4977 H   0  0  0  0  0  0  0  0  0  0  0  0
    2.7130    4.7503    2.8885 H   0  0  0  0  0  0  0  0  0  0  0  0
    1.9955    2.7172    1.6799 H   0  0  0  0  0  0  0  0  0  0  0  0
    6.6737    3.3470    2.7391 H   0  0  0  0  0  0  0  0  0  0  0  0
    1.4594    1.0436    0.6941 H   0  0  0  0  0  0  0  0  0  0  0  0
    2.6919   -2.5691   -1.0708 H   0  0  0  0  0  0  0  0  0  0  0  0
    5.0715   -2.0468   -0.4221 H   0  0  0  0  0  0  0  0  0  0  0  0
   -0.3394    0.8166   -0.9622 H   0  0  0  0  0  0  0  0  0  0  0  0
   -3.6434   -1.2091   -1.8219 H   0  0  0  0  0  0  0  0  0  0  0  0
   -5.5208   -0.7427   -2.3960 H   0  0  0  0  0  0  0  0  0  0  0  0
   -7.7263    0.3291   -3.0949 H   0  0  0  0  0  0  0  0  0  0  0  0
   -7.7332    2.8992   -3.2293 H   0  0  0  0  0  0  0  0  0  0  0  0
    0.5542   -3.2910   -0.4900 H   0  0  0  0  0  0  0  0  0  0  0  0
   -2.8141   -3.3021   -2.1349 H   0  0  0  0  0  0  0  0  0  0  0  0
   -3.8736   -4.2510   -0.2287 H   0  0  0  0  0  0  0  0  0  0  0  0
   -2.3438   -4.1807    0.7490 H   0  0  0  0  0  0  0  0  0  0  0  0
   -3.2443   -2.6589    0.3716 H   0  0  0  0  0  0  0  0  0  0  0  0
   -0.6567   -4.8973   -0.6997 H   0  0  0  0  0  0  0  0  0  0  0  0
   -2.0230   -5.5664   -1.6489 H   0  0  0  0  0  0  0  0  0  0  0  0
   -0.4827   -5.3951   -3.2070 H   0  0  0  0  0  0  0  0  0  0  0  0
  1  2  1  0
  2  3  2  0
  3  4  1  0
  4  5  2  0
  5  6  1  0
  6  7  2  0
  5  8  1  0
  8  9  2  0
  9 10  1  0
 10 11  2  0
 11 12  1  0
 12 13  2  0
 10 14  1  0
 14 15  1  0
 15 16  2  0
 16 17  1  0
 17 18  1  0
 18 19  2  0
 18 20  1  0
 20 21  2  0
 21 22  1  0
 22 23  2  0
 23 24  1  0
 16 25  1  0
 25 26  1  0
 25 27  1  0
 27 28  1  0
 27 29  1  0
 29 30  1  0
  7  2  1  0
 13  8  1  0
 26 14  2  0
 24 20  1  0
  1 31  1  0
  1 32  1  0
  1 33  1  0
  3 34  1  0
  4 35  1  0
  7 36  1  0
  9 37  1  0
 11 38  1  0
 12 39  1  0
 15 40  1  0
 17 41  1  0
 21 42  1  0
 22 43  1  0
 23 44  1  0
 26 45  1  0
 27 46  1  0
 28 47  1  0
 28 48  1  0
 28 49  1  0
 29 50  1  0
 29 51  1  0
 30 52  1  0
M  END
$$$$
[H]c1nc(Oc2c([H])c([H])c(N([H])C(=O)N([H])c3c([H])c([H])c(C([H])([H])N4C([H])([H])C([H])([H])N(C([H])([H])C([H])([H])[H])C([H])([H])C4([H])[H])c(C(F)(F)F)c3[H])c(F)c2[H])c([H])c(N([H])C([H])([H])[H])n1
     RDKit          3D

 68 71  0  0  0  0  0  0  0  0999 V2000
  -10.6739    1.7866    0.5707 C   0  0  0  0  0  0  0  0  0  0  0  0
   -9.2828    1.8834    0.0342 C   0  0  0  0  0  0  0  0  0  0  0  0
   -8.2543    1.9903    1.0419 N   0  0  0  0  0  0  0  0  0  0  0  0
   -8.1009    0.7799    1.8216 C   0  0  0  0  0  0  0  0  0  0  0  0
   -7.1181   -0.1734    1.1964 C   0  0  0  0  0  0  0  0  0  0  0  0
   -5.7586    0.3647    1.4299 N   0  0  0  0  0  0  0  0  0  0  0  0
   -4.8826   -0.3113    0.4937 C   0  0  0  0  0  0  0  0  0  0  0  0
   -3.4575   -0.0421    0.6313 C   0  0  0  0  0  0  0  0  0  0  0  0
   -2.8969    0.7564    1.6155 C   0  0  0  0  0  0  0  0  0  0  0  0
   -1.5569    0.9876    1.7475 C   0  0  0  0  0  0  0  0  0  0  0  0
   -0.6697    0.3901    0.8419 C   0  0  0  0  0  0  0  0  0  0  0  0
    0.6904    0.6643    1.0407 N   0  0  0  0  0  0  0  0  0  0  0  0
    1.7257    0.3446    0.1274 C   0  0  0  0  0  0  0  0  0  0  0  0
    1.4871   -0.2118   -0.9452 O   0  0  0  0  0  0  0  0  0  0  0  0
    3.0544    0.6857    0.4836 N   0  0  0  0  0  0  0  0  0  0  0  0
    4.1849    0.4381   -0.3068 C   0  0  0  0  0  0  0  0  0  0  0  0
    4.2215   -0.1845   -1.5198 C   0  0  0  0  0  0  0  0  0  0  0  0
    5.4159   -0.3911   -2.2468 C   0  0  0  0  0  0  0  0  0  0  0  0
    6.5946    0.0591   -1.7000 C   0  0  0  0  0  0  0  0  0  0  0  0
    7.7711   -0.1391   -2.4065 O   0  0  0  0  0  0  0  0  0  0  0  0
    8.4912   -1.3059   -2.1706 C   0  0  0  0  0  0  0  0  0  0  0  0
    9.3758   -1.3447   -1.1121 C   0  0  0  0  0  0  0  0  0  0  0  0
   10.1201   -2.4752   -0.8272 C   0  0  0  0  0  0  0  0  0  0  0  0
   11.0253   -2.4993    0.2627 N   0  0  0  0  0  0  0  0  0  0  0  0
   11.1802   -1.3320    1.0880 C   0  0  0  0  0  0  0  0  0  0  0  0
    9.9374   -3.5374   -1.6362 N   0  0  0  0  0  0  0  0  0  0  0  0
    9.0849   -3.5298   -2.6728 C   0  0  0  0  0  0  0  0  0  0  0  0
    8.3668   -2.4069   -2.9300 N   0  0  0  0  0  0  0  0  0  0  0  0
    6.6140    0.6977   -0.4707 C   0  0  0  0  0  0  0  0  0  0  0  0
    5.4350    0.8735    0.1924 C   0  0  0  0  0  0  0  0  0  0  0  0
    5.4598    1.5011    1.3962 F   0  0  0  0  0  0  0  0  0  0  0  0
   -1.2327   -0.3934   -0.1198 C   0  0  0  0  0  0  0  0  0  0  0  0
   -2.6018   -0.6377   -0.2668 C   0  0  0  0  0  0  0  0  0  0  0  0
   -3.0907   -1.4925   -1.3514 C   0  0  0  0  0  0  0  0  0  0  0  0
   -3.7930   -2.6001   -0.9719 F   0  0  0  0  0  0  0  0  0  0  0  0
   -1.9620   -2.0196   -2.0076 F   0  0  0  0  0  0  0  0  0  0  0  0
   -3.7257   -0.7725   -2.3768 F   0  0  0  0  0  0  0  0  0  0  0  0
   -5.7865    1.7962    1.1140 C   0  0  0  0  0  0  0  0  0  0  0  0
   -7.0051    2.1911    0.3393 C   0  0  0  0  0  0  0  0  0  0  0  0
  -10.9639    2.7584    1.0480 H   0  0  0  0  0  0  0  0  0  0  0  0
  -10.8744    0.9228    1.2005 H   0  0  0  0  0  0  0  0  0  0  0  0
  -11.3479    1.6981   -0.3304 H   0  0  0  0  0  0  0  0  0  0  0  0
   -9.0492    1.0440   -0.6539 H   0  0  0  0  0  0  0  0  0  0  0  0
   -9.2265    2.8075   -0.5786 H   0  0  0  0  0  0  0  0  0  0  0  0
   -7.6592    1.1001    2.8018 H   0  0  0  0  0  0  0  0  0  0  0  0
   -9.0642    0.3040    2.0800 H   0  0  0  0  0  0  0  0  0  0  0  0
   -7.1989   -1.1412    1.7270 H   0  0  0  0  0  0  0  0  0  0  0  0
   -7.2070   -0.2369    0.1073 H   0  0  0  0  0  0  0  0  0  0  0  0
   -5.0314   -1.4068    0.7527 H   0  0  0  0  0  0  0  0  0  0  0  0
   -5.2805   -0.2354   -0.5531 H   0  0  0  0  0  0  0  0  0  0  0  0
   -3.5754    1.2306    2.3484 H   0  0  0  0  0  0  0  0  0  0  0  0
   -1.1657    1.6348    2.5524 H   0  0  0  0  0  0  0  0  0  0  0  0
    1.0253    1.1456    1.9297 H   0  0  0  0  0  0  0  0  0  0  0  0
    3.1911    1.1723    1.4385 H   0  0  0  0  0  0  0  0  0  0  0  0
    3.3316   -0.5573   -1.9920 H   0  0  0  0  0  0  0  0  0  0  0  0
    5.4027   -0.8884   -3.2039 H   0  0  0  0  0  0  0  0  0  0  0  0
    9.5127   -0.4814   -0.4678 H   0  0  0  0  0  0  0  0  0  0  0  0
   11.5716   -3.3547    0.4626 H   0  0  0  0  0  0  0  0  0  0  0  0
   10.2003   -0.9323    1.4089 H   0  0  0  0  0  0  0  0  0  0  0  0
   11.8529   -1.5187    1.9507 H   0  0  0  0  0  0  0  0  0  0  0  0
   11.6799   -0.5541    0.4633 H   0  0  0  0  0  0  0  0  0  0  0  0
    8.9384   -4.3861   -3.3232 H   0  0  0  0  0  0  0  0  0  0  0  0
    7.5733    1.0317   -0.0894 H   0  0  0  0  0  0  0  0  0  0  0  0
   -0.5866   -0.9010   -0.8491 H   0  0  0  0  0  0  0  0  0  0  0  0
   -5.6345    2.4085    2.0271 H   0  0  0  0  0  0  0  0  0  0  0  0
   -4.9188    1.9898    0.4543 H   0  0  0  0  0  0  0  0  0  0  0  0
   -6.9047    3.2885    0.1337 H   0  0  0  0  0  0  0  0  0  0  0  0
   -6.9771    1.6679   -0.6360 H   0  0  0  0  0  0  0  0  0  0  0  0
  1  2  1  0
  2  3  1  0
  3  4  1  0
  4  5  1  0
  5  6  1  0
  6  7  1  0
  7  8  1  0
  8  9  2  0
  9 10  1  0
 10 11  2  0
 11 12  1  0
 12 13  1  0
 13 14  2  0
 13 15  1  0
 15 16  1  0
 16 17  2  0
 17 18  1  0
 18 19  2  0
 19 20  1  0
 20 21  1  0
 21 22  2  0
 22 23  1  0
 23 24  1  0
 24 25  1  0
 23 26  2  0
 26 27  1  0
 27 28  2  0
 19 29  1  0
 29 30  2  0
 30 31  1  0
 11 32  1  0
 32 33  2  0
 33 34  1  0
 34 35  1  0
 34 36  1  0
 34 37  1  0
  6 38  1  0
 38 39  1  0
 39  3  1  0
 33  8  1  0
 30 16  1  0
 28 21  1  0
  1 40  1  0
  1 41  1  0
  1 42  1  0
  2 43  1  0
  2 44  1  0
  4 45  1  0
  4 46  1  0
  5 47  1  0
  5 48  1  0
  7 49  1  0
  7 50  1  0
  9 51  1  0
 10 52  1  0
 12 53  1  0
 15 54  1  0
 17 55  1  0
 18 56  1  0
 22 57  1  0
 24 58  1  0
 25 59  1  0
 25 60  1  0
 25 61  1  0
 27 62  1  0
 29 63  1  0
 32 64  1  0
 38 65  1  0
 38 66  1  0
 39 67  1  0
 39 68  1  0
M  END
$$$$
[H]c1nc(N([H])c2c([H])c([H])c(N3C([H])([H])C([H])([H])N([H])C([H])([H])C3([H])[H])c([H])c2OC([H])([H])[H])nc(N([H])c2c([H])c([H])c([H])c([H])c2S(=O)(=O)C([H])(C([H])([H])[H])C([H])([H])[H])c1Cl
     RDKit          3D

 64 67  0  0  0  0  0  0  0  0999 V2000
    3.4000    2.5741    2.2741 C   0  0  0  0  0  0  0  0  0  0  0  0
    2.5260    1.8198    1.4525 O   0  0  0  0  0  0  0  0  0  0  0  0
    3.0420    0.8437    0.6226 C   0  0  0  0  0  0  0  0  0  0  0  0
    4.3864    0.5746    0.5642 C   0  0  0  0  0  0  0  0  0  0  0  0
    4.8983   -0.3971   -0.2619 C   0  0  0  0  0  0  0  0  0  0  0  0
    4.0267   -1.1005   -1.0361 C   0  0  0  0  0  0  0  0  0  0  0  0
    2.6470   -0.8429   -0.9934 C   0  0  0  0  0  0  0  0  0  0  0  0
    2.1200    0.1210   -0.1764 C   0  0  0  0  0  0  0  0  0  0  0  0
    0.7585    0.4223   -0.0843 N   0  0  0  0  0  0  0  0  0  0  0  0
   -0.3100   -0.1621   -0.7912 C   0  0  0  0  0  0  0  0  0  0  0  0
   -0.2215   -1.1229   -1.6949 N   0  0  0  0  0  0  0  0  0  0  0  0
   -1.2666   -1.6290   -2.3199 C   0  0  0  0  0  0  0  0  0  0  0  0
   -2.5195   -1.1457   -2.0304 C   0  0  0  0  0  0  0  0  0  0  0  0
   -3.8953   -1.7924   -2.8345 Cl  0  0  0  0  0  0  0  0  0  0  0  0
   -2.6997   -0.1224   -1.0796 C   0  0  0  0  0  0  0  0  0  0  0  0
   -3.9731    0.3272   -0.8046 N   0  0  0  0  0  0  0  0  0  0  0  0
   -4.3730    1.3356    0.0891 C   0  0  0  0  0  0  0  0  0  0  0  0
   -3.5127    2.1711    0.7293 C   0  0  0  0  0  0  0  0  0  0  0  0
   -3.9733    3.1729    1.5700 C   0  0  0  0  0  0  0  0  0  0  0  0
   -5.3150    3.3630    1.7906 C   0  0  0  0  0  0  0  0  0  0  0  0
   -6.1659    2.5073    1.1338 C   0  0  0  0  0  0  0  0  0  0  0  0
   -5.7576    1.5121    0.3019 C   0  0  0  0  0  0  0  0  0  0  0  0
   -6.9364    0.4904   -0.4305 S   0  0  0  0  0  0  0  0  0  0  0  0
   -6.9756    0.6653   -1.9475 O   0  0  0  0  0  0  0  0  0  0  0  0
   -8.3166    0.9775    0.0062 O   0  0  0  0  0  0  0  0  0  0  0  0
   -6.8701   -1.1972    0.0378 C   0  0  0  0  0  0  0  0  0  0  0  0
   -7.9638   -1.9158   -0.7684 C   0  0  0  0  0  0  0  0  0  0  0  0
   -7.3102   -1.2877    1.4861 C   0  0  0  0  0  0  0  0  0  0  0  0
   -1.5829    0.2993   -0.5253 N   0  0  0  0  0  0  0  0  0  0  0  0
    6.2823   -0.6621   -0.3126 N   0  0  0  0  0  0  0  0  0  0  0  0
    7.1840    0.1814    0.4678 C   0  0  0  0  0  0  0  0  0  0  0  0
    8.6199   -0.1080    0.1125 C   0  0  0  0  0  0  0  0  0  0  0  0
    8.8980   -1.5090    0.3728 N   0  0  0  0  0  0  0  0  0  0  0  0
    8.0173   -2.4043   -0.3111 C   0  0  0  0  0  0  0  0  0  0  0  0
    6.9028   -1.7119   -1.0756 C   0  0  0  0  0  0  0  0  0  0  0  0
    2.8806    3.3892    2.7905 H   0  0  0  0  0  0  0  0  0  0  0  0
    3.8520    1.8963    3.0284 H   0  0  0  0  0  0  0  0  0  0  0  0
    4.1857    2.9972    1.5859 H   0  0  0  0  0  0  0  0  0  0  0  0
    5.0443    1.1744    1.2120 H   0  0  0  0  0  0  0  0  0  0  0  0
    4.3367   -1.8957   -1.7303 H   0  0  0  0  0  0  0  0  0  0  0  0
    2.0309   -1.4490   -1.6396 H   0  0  0  0  0  0  0  0  0  0  0  0
    0.5182    1.2060    0.6263 H   0  0  0  0  0  0  0  0  0  0  0  0
   -1.1676   -2.4256   -3.0656 H   0  0  0  0  0  0  0  0  0  0  0  0
   -4.7607   -0.1400   -1.3507 H   0  0  0  0  0  0  0  0  0  0  0  0
   -2.4167    2.1088    0.6130 H   0  0  0  0  0  0  0  0  0  0  0  0
   -3.2275    3.8210    2.0631 H   0  0  0  0  0  0  0  0  0  0  0  0
   -5.6749    4.1499    2.4498 H   0  0  0  0  0  0  0  0  0  0  0  0
   -7.2367    2.6811    1.3287 H   0  0  0  0  0  0  0  0  0  0  0  0
   -5.9563   -1.7377   -0.1674 H   0  0  0  0  0  0  0  0  0  0  0  0
   -8.7590   -1.2265   -1.0631 H   0  0  0  0  0  0  0  0  0  0  0  0
   -7.5431   -2.3737   -1.6940 H   0  0  0  0  0  0  0  0  0  0  0  0
   -8.3753   -2.7698   -0.1686 H   0  0  0  0  0  0  0  0  0  0  0  0
   -8.1568   -1.9841    1.6389 H   0  0  0  0  0  0  0  0  0  0  0  0
   -6.4623   -1.7005    2.1081 H   0  0  0  0  0  0  0  0  0  0  0  0
   -7.5987   -0.3019    1.9044 H   0  0  0  0  0  0  0  0  0  0  0  0
    7.0047    1.2506    0.2083 H   0  0  0  0  0  0  0  0  0  0  0  0
    7.0296   -0.0248    1.5402 H   0  0  0  0  0  0  0  0  0  0  0  0
    8.8478    0.1358   -0.9351 H   0  0  0  0  0  0  0  0  0  0  0  0
    9.2583    0.4723    0.8264 H   0  0  0  0  0  0  0  0  0  0  0  0
    8.7867   -1.6472    1.4156 H   0  0  0  0  0  0  0  0  0  0  0  0
    7.6208   -3.1807    0.3739 H   0  0  0  0  0  0  0  0  0  0  0  0
    8.6169   -2.9490   -1.0870 H   0  0  0  0  0  0  0  0  0  0  0  0
    6.2055   -2.5067   -1.4039 H   0  0  0  0  0  0  0  0  0  0  0  0
    7.3465   -1.2172   -1.9887 H   0  0  0  0  0  0  0  0  0  0  0  0
  1  2  1  0
  2  3  1  0
  3  4  2  0
  4  5  1  0
  5  6  2  0
  6  7  1  0
  7  8  2  0
  8  9  1  0
  9 10  1  0
 10 11  2  0
 11 12  1  0
 12 13  2  0
 13 14  1  0
 13 15  1  0
 15 16  1  0
 16 17  1  0
 17 18  2  0
 18 19  1  0
 19 20  2  0
 20 21  1  0
 21 22  2  0
 22 23  1  0
 23 24  2  0
 23 25  2  0
 23 26  1  0
 26 27  1  0
 26 28  1  0
 15 29  2  0
  5 30  1  0
 30 31  1  0
 31 32  1  0
 32 33  1  0
 33 34  1  0
 34 35  1  0
  8  3  1  0
 29 10  1  0
 35 30  1  0
 22 17  1  0
  1 36  1  0
  1 37  1  0
  1 38  1  0
  4 39  1  0
  6 40  1  0
  7 41  1  0
  9 42  1  0
 12 43  1  0
 16 44  1  0
 18 45  1  0
 19 46  1  0
 20 47  1  0
 21 48  1  0
 26 49  1  0
 27 50  1  0
 27 51  1  0
 27 52  1  0
 28 53  1  0
 28 54  1  0
 28 55  1  0
 31 56  1  0
 31 57  1  0
 32 58  1  0
 32 59  1  0
 33 60  1  0
 34 61  1  0
 34 62  1  0
 35 63  1  0
 35 64  1  0
M  END
$$$$
[H]c1sc2c(c1[H])C([H])(C([H])([H])N(C([H])([H])[H])C([H])([H])C([H])([H])C([H])([H])[H])c1c([H])c([H])c([H])c([H])c1C([H])([H])C([H])([H])C2([H])[H]
     RDKit          3D

 46 48  0  0  0  0  0  0  0  0999 V2000
    3.3338   -0.3011    0.9072 C   0  0  0  0  0  0  0  0  0  0  0  0
    2.8558   -0.7719   -0.4277 C   0  0  0  0  0  0  0  0  0  0  0  0
    2.1613    0.1890   -1.2199 N   0  0  0  0  0  0  0  0  0  0  0  0
    3.1522    1.2088   -1.6092 C   0  0  0  0  0  0  0  0  0  0  0  0
    1.1117    0.9084   -0.4825 C   0  0  0  0  0  0  0  0  0  0  0  0
   -0.0156    0.0654   -0.0972 C   0  0  0  0  0  0  0  0  0  0  0  0
   -1.0711    0.7617    0.6832 C   0  0  0  0  0  0  0  0  0  0  0  0
   -0.4332    1.5186    1.6216 C   0  0  0  0  0  0  0  0  0  0  0  0
   -1.2187    2.2797    2.5007 C   0  0  0  0  0  0  0  0  0  0  0  0
   -2.5943    2.2540    2.4090 C   0  0  0  0  0  0  0  0  0  0  0  0
   -3.2177    1.4805    1.4540 C   0  0  0  0  0  0  0  0  0  0  0  0
   -2.4773    0.7357    0.5927 C   0  0  0  0  0  0  0  0  0  0  0  0
   -3.4629   -0.0091   -0.2694 C   0  0  0  0  0  0  0  0  0  0  0  0
   -3.6122   -1.4121    0.3044 C   0  0  0  0  0  0  0  0  0  0  0  0
   -2.4400   -2.2901   -0.1236 C   0  0  0  0  0  0  0  0  0  0  0  0
   -1.6749   -1.5561   -1.2011 C   0  0  0  0  0  0  0  0  0  0  0  0
   -0.7019   -0.5755   -1.2944 C   0  0  0  0  0  0  0  0  0  0  0  0
   -0.3736   -0.2048   -2.5119 C   0  0  0  0  0  0  0  0  0  0  0  0
   -0.9976   -0.8009   -3.5853 C   0  0  0  0  0  0  0  0  0  0  0  0
   -2.0737   -1.9088   -2.8262 S   0  0  0  0  0  0  0  0  0  0  0  0
    4.0725   -1.4178    1.6470 C   0  0  0  0  0  0  0  0  0  0  0  0
    3.9309    0.6057    0.8834 H   0  0  0  0  0  0  0  0  0  0  0  0
    2.4422   -0.0991    1.5461 H   0  0  0  0  0  0  0  0  0  0  0  0
    3.7882   -1.0361   -1.0126 H   0  0  0  0  0  0  0  0  0  0  0  0
    2.3099   -1.7354   -0.3597 H   0  0  0  0  0  0  0  0  0  0  0  0
    2.8409    2.2241   -1.2750 H   0  0  0  0  0  0  0  0  0  0  0  0
    3.1485    1.2322   -2.7154 H   0  0  0  0  0  0  0  0  0  0  0  0
    4.1360    1.0195   -1.1774 H   0  0  0  0  0  0  0  0  0  0  0  0
    0.8376    1.8110   -1.0876 H   0  0  0  0  0  0  0  0  0  0  0  0
    1.6554    1.3105    0.3723 H   0  0  0  0  0  0  0  0  0  0  0  0
    0.3800   -0.7661    0.5526 H   0  0  0  0  0  0  0  0  0  0  0  0
    0.6370    1.5361    1.7314 H   0  0  0  0  0  0  0  0  0  0  0  0
   -0.7461    2.8786    3.2402 H   0  0  0  0  0  0  0  0  0  0  0  0
   -3.2438    2.8239    3.0630 H   0  0  0  0  0  0  0  0  0  0  0  0
   -4.2949    1.4383    1.3577 H   0  0  0  0  0  0  0  0  0  0  0  0
   -4.4627    0.4790   -0.0614 H   0  0  0  0  0  0  0  0  0  0  0  0
   -3.2545    0.0323   -1.3250 H   0  0  0  0  0  0  0  0  0  0  0  0
   -3.5462   -1.3223    1.4039 H   0  0  0  0  0  0  0  0  0  0  0  0
   -4.5916   -1.8635    0.0663 H   0  0  0  0  0  0  0  0  0  0  0  0
   -2.8553   -3.2102   -0.5693 H   0  0  0  0  0  0  0  0  0  0  0  0
   -1.7411   -2.5140    0.6960 H   0  0  0  0  0  0  0  0  0  0  0  0
    0.3579    0.5831   -2.7707 H   0  0  0  0  0  0  0  0  0  0  0  0
   -0.8375   -0.6074   -4.6523 H   0  0  0  0  0  0  0  0  0  0  0  0
    3.3809   -2.1758    2.0500 H   0  0  0  0  0  0  0  0  0  0  0  0
    4.5503   -0.9173    2.5213 H   0  0  0  0  0  0  0  0  0  0  0  0
    4.8551   -1.8803    1.0511 H   0  0  0  0  0  0  0  0  0  0  0  0
  1  2  1  0
  2  3  1  0
  3  4  1  0
  3  5  1  0
  5  6  1  0
  6  7  1  0
  7  8  2  0
  8  9  1  0
  9 10  2  0
 10 11  1  0
 11 12  2  0
 12 13  1  0
 13 14  1  0
 14 15  1  0
 15 16  1  0
 16 17  2  0
 17 18  1  0
 18 19  2  0
 19 20  1  0
  1 21  1  0
 17  6  1  0
 12  7  1  0
 20 16  1  0
  1 22  1  0
  1 23  1  0
  2 24  1  0
  2 25  1  0
  4 26  1  0
  4 27  1  0
  4 28  1  0
  5 29  1  0
  5 30  1  0
  6 31  1  0
  8 32  1  0
  9 33  1  0
 10 34  1  0
 11 35  1  0
 13 36  1  0
 13 37  1  0
 14 38  1  0
 14 39  1  0
 15 40  1  0
 15 41  1  0
 18 42  1  0
 19 43  1  0
 21 44  1  0
 21 45  1  0
 21 46  1  0
M  END
$$$$
[H]c1nc(N([H])c2c([H])c([H])c([H])c([H])c2OC([H])([H])[H])nc(-c2c([H])c(Cl)c(N([H])C([H])([H])[C@]3([H])N(C([H])([H])[H])C([H])([H])C3([H])[H])c([H])c2F)c1[H]
     RDKit          3D

 53 56  0  0  0  0  0  0  0  0999 V2000
   -5.5523    0.9493    1.6134 C   0  0  0  0  0  0  0  0  0  0  0  0
   -6.2873   -0.2735    1.3609 N   0  0  0  0  0  0  0  0  0  0  0  0
   -7.5979    0.0749    0.7905 C   0  0  0  0  0  0  0  0  0  0  0  0
   -7.4901   -1.2467    0.0219 C   0  0  0  0  0  0  0  0  0  0  0  0
   -5.9900   -0.9102    0.0891 C   0  0  2  0  0  0  0  0  0  0  0  0
   -5.2112   -2.1754    0.1714 C   0  0  0  0  0  0  0  0  0  0  0  0
   -3.9225   -2.0887    0.7763 N   0  0  0  0  0  0  0  0  0  0  0  0
   -2.8094   -1.3902    0.2061 C   0  0  0  0  0  0  0  0  0  0  0  0
   -2.8412   -0.8161   -1.0156 C   0  0  0  0  0  0  0  0  0  0  0  0
   -1.7179   -0.1547   -1.5361 C   0  0  0  0  0  0  0  0  0  0  0  0
   -1.8377    0.3677   -2.7990 F   0  0  0  0  0  0  0  0  0  0  0  0
   -0.5742   -0.0895   -0.7956 C   0  0  0  0  0  0  0  0  0  0  0  0
   -0.5351   -0.6852    0.4744 C   0  0  0  0  0  0  0  0  0  0  0  0
   -1.6521   -1.3180    0.9392 C   0  0  0  0  0  0  0  0  0  0  0  0
   -1.5572   -2.0590    2.5551 Cl  0  0  0  0  0  0  0  0  0  0  0  0
    0.6640    0.5414   -1.2481 C   0  0  0  0  0  0  0  0  0  0  0  0
    0.6894    1.4294   -2.2871 C   0  0  0  0  0  0  0  0  0  0  0  0
    1.9414    1.9947   -2.6055 C   0  0  0  0  0  0  0  0  0  0  0  0
    3.0112    1.6440   -1.8941 N   0  0  0  0  0  0  0  0  0  0  0  0
    3.0039    0.7868   -0.8848 C   0  0  0  0  0  0  0  0  0  0  0  0
    4.1415    0.4115   -0.1281 N   0  0  0  0  0  0  0  0  0  0  0  0
    5.4612    0.8326   -0.2614 C   0  0  0  0  0  0  0  0  0  0  0  0
    5.9233    1.7273   -1.1897 C   0  0  0  0  0  0  0  0  0  0  0  0
    7.2724    2.0971   -1.2546 C   0  0  0  0  0  0  0  0  0  0  0  0
    8.1947    1.5815   -0.3925 C   0  0  0  0  0  0  0  0  0  0  0  0
    7.7451    0.6822    0.5446 C   0  0  0  0  0  0  0  0  0  0  0  0
    6.4187    0.3146    0.6131 C   0  0  0  0  0  0  0  0  0  0  0  0
    5.9928   -0.5943    1.5681 O   0  0  0  0  0  0  0  0  0  0  0  0
    6.9505   -1.1264    2.4594 C   0  0  0  0  0  0  0  0  0  0  0  0
    1.8020    0.2454   -0.5814 N   0  0  0  0  0  0  0  0  0  0  0  0
   -6.2953    1.7363    1.9124 H   0  0  0  0  0  0  0  0  0  0  0  0
   -4.8501    0.8539    2.4652 H   0  0  0  0  0  0  0  0  0  0  0  0
   -5.0592    1.2434    0.6727 H   0  0  0  0  0  0  0  0  0  0  0  0
   -7.4843    0.9081    0.0744 H   0  0  0  0  0  0  0  0  0  0  0  0
   -8.4146    0.1284    1.5094 H   0  0  0  0  0  0  0  0  0  0  0  0
   -7.9181   -1.2150   -0.9804 H   0  0  0  0  0  0  0  0  0  0  0  0
   -7.7421   -2.1015    0.6625 H   0  0  0  0  0  0  0  0  0  0  0  0
   -5.7342   -0.1524   -0.6448 H   0  0  0  0  0  0  0  0  0  0  0  0
   -5.8186   -2.9513    0.6683 H   0  0  0  0  0  0  0  0  0  0  0  0
   -5.0603   -2.5322   -0.8840 H   0  0  0  0  0  0  0  0  0  0  0  0
   -3.7627   -2.5609    1.6960 H   0  0  0  0  0  0  0  0  0  0  0  0
   -3.7457   -0.8610   -1.6376 H   0  0  0  0  0  0  0  0  0  0  0  0
    0.3907   -0.6343    1.0784 H   0  0  0  0  0  0  0  0  0  0  0  0
   -0.1646    1.7435   -2.8634 H   0  0  0  0  0  0  0  0  0  0  0  0
    1.9379    2.6921   -3.4292 H   0  0  0  0  0  0  0  0  0  0  0  0
    3.9366   -0.2952    0.6499 H   0  0  0  0  0  0  0  0  0  0  0  0
    5.2776    2.1857   -1.9081 H   0  0  0  0  0  0  0  0  0  0  0  0
    7.5699    2.7985   -2.0001 H   0  0  0  0  0  0  0  0  0  0  0  0
    9.2503    1.8492   -0.4177 H   0  0  0  0  0  0  0  0  0  0  0  0
    8.4724    0.2672    1.2344 H   0  0  0  0  0  0  0  0  0  0  0  0
    7.2981   -0.3805    3.1948 H   0  0  0  0  0  0  0  0  0  0  0  0
    7.8410   -1.5413    1.9361 H   0  0  0  0  0  0  0  0  0  0  0  0
    6.4392   -1.9330    3.0267 H   0  0  0  0  0  0  0  0  0  0  0  0
  1  2  1  0
  2  3  1  0
  3  4  1  0
  4  5  1  0
  5  6  1  0
  6  7  1  0
  7  8  1  0
  8  9  2  0
  9 10  1  0
 10 11  1  0
 10 12  2  0
 12 13  1  0
 13 14  2  0
 14 15  1  0
 12 16  1  0
 16 17  2  0
 17 18  1  0
 18 19  2  0
 19 20  1  0
 20 21  1  0
 21 22  1  0
 22 23  2  0
 23 24  1  0
 24 25  2  0
 25 26  1  0
 26 27  2  0
 27 28  1  0
 28 29  1  0
 20 30  2  0
  5  2  1  0
 14  8  1  0
 30 16  1  0
 27 22  1  0
  1 31  1  0
  1 32  1  0
  1 33  1  0
  3 34  1  0
  3 35  1  0
  4 36  1  0
  4 37  1  0
  5 38  1  6
  6 39  1  0
  6 40  1  0
  7 41  1  0
  9 42  1  0
 13 43  1  0
 17 44  1  0
 18 45  1  0
 21 46  1  0
 23 47  1  0
 24 48  1  0
 25 49  1  0
 26 50  1  0
 29 51  1  0
 29 52  1  0
 29 53  1  0
M  END
$$$$
[H]c1c([H])c([H])c2c(c1[H])c(C([H])([H])[C@@]1([H])C(=O)N([H])[C@@]([H])([C@@]([H])(C([H])([H])[H])C([H])([H])C([H])([H])[H])C(=O)N([H])[C@@]([H])(C([H])([H])C([H])([H])C(=O)N([H])[H])C(=O)N([H])[C@@]([H])(C([H])([H])C(=O)N([H])[H])C(=O)N([H])[C@]([H])(C(=O)N([H])[H])C(=O)N1[H])c([H])n2[H]
     RDKit          3D

 85 87  0  0  0  0  0  0  0  0999 V2000
    0.8922    4.6003    0.7851 C   0  0  0  0  0  0  0  0  0  0  0  0
    0.1556    5.1432   -0.4223 C   0  0  0  0  0  0  0  0  0  0  0  0
    0.3102    4.1594   -1.5395 C   0  0  2  0  0  0  0  0  0  0  0  0
   -0.4045    4.6961   -2.7863 C   0  0  0  0  0  0  0  0  0  0  0  0
   -0.2587    2.7632   -1.2243 C   0  0  2  0  0  0  0  0  0  0  0  0
    0.1471    1.9199   -2.3351 N   0  0  0  0  0  0  0  0  0  0  0  0
    0.6812    0.6060   -2.2359 C   0  0  0  0  0  0  0  0  0  0  0  0
    0.4454   -0.2019   -3.1519 O   0  0  0  0  0  0  0  0  0  0  0  0
    1.5134    0.1197   -1.0858 C   0  0  2  0  0  0  0  0  0  0  0  0
    2.5403    1.1326   -0.7242 C   0  0  0  0  0  0  0  0  0  0  0  0
    3.3644    0.8583    0.4709 C   0  0  0  0  0  0  0  0  0  0  0  0
    2.8933    1.2271    1.7439 C   0  0  0  0  0  0  0  0  0  0  0  0
    3.8128    0.8182    2.6062 N   0  0  0  0  0  0  0  0  0  0  0  0
    4.8309    0.2212    1.9852 C   0  0  0  0  0  0  0  0  0  0  0  0
    5.9943   -0.3033    2.5080 C   0  0  0  0  0  0  0  0  0  0  0  0
    6.8918   -0.8223    1.6103 C   0  0  0  0  0  0  0  0  0  0  0  0
    6.6519   -0.8294    0.2236 C   0  0  0  0  0  0  0  0  0  0  0  0
    5.4825   -0.2948   -0.2514 C   0  0  0  0  0  0  0  0  0  0  0  0
    4.5645    0.2346    0.6205 C   0  0  0  0  0  0  0  0  0  0  0  0
    2.2336   -1.0792   -1.4713 N   0  0  0  0  0  0  0  0  0  0  0  0
    2.0800   -2.3946   -0.9602 C   0  0  0  0  0  0  0  0  0  0  0  0
    3.1687   -2.9488   -0.5700 O   0  0  0  0  0  0  0  0  0  0  0  0
    0.8609   -3.1666   -0.8380 C   0  0  2  0  0  0  0  0  0  0  0  0
    0.1997   -3.0399    0.4394 N   0  0  0  0  0  0  0  0  0  0  0  0
   -1.1179   -3.2344    0.8355 C   0  0  0  0  0  0  0  0  0  0  0  0
   -1.2876   -4.1853    1.7210 O   0  0  0  0  0  0  0  0  0  0  0  0
   -2.3579   -2.5841    0.4666 C   0  0  2  0  0  0  0  0  0  0  0  0
   -3.5404   -3.5093    0.7653 C   0  0  0  0  0  0  0  0  0  0  0  0
   -3.4999   -4.8171    0.1467 C   0  0  0  0  0  0  0  0  0  0  0  0
   -3.0982   -5.1705   -1.1374 N   0  0  0  0  0  0  0  0  0  0  0  0
   -3.8888   -5.8027    0.8871 O   0  0  0  0  0  0  0  0  0  0  0  0
   -2.4879   -1.8791   -0.7489 N   0  0  0  0  0  0  0  0  0  0  0  0
   -3.0260   -0.5695   -0.9095 C   0  0  0  0  0  0  0  0  0  0  0  0
   -4.0136   -0.4768   -1.8103 O   0  0  0  0  0  0  0  0  0  0  0  0
   -2.7437    0.6846   -0.2939 C   0  0  2  0  0  0  0  0  0  0  0  0
   -3.7500    1.1860    0.6846 C   0  0  0  0  0  0  0  0  0  0  0  0
   -4.0022    0.5049    1.9645 C   0  0  0  0  0  0  0  0  0  0  0  0
   -4.9928    1.2347    2.8116 C   0  0  0  0  0  0  0  0  0  0  0  0
   -5.4295    0.6853    4.0139 N   0  0  0  0  0  0  0  0  0  0  0  0
   -5.4136    2.3537    2.4139 O   0  0  0  0  0  0  0  0  0  0  0  0
   -2.6630    1.7827   -1.2924 N   0  0  0  0  0  0  0  0  0  0  0  0
   -1.7774    2.8634   -1.2387 C   0  0  0  0  0  0  0  0  0  0  0  0
   -2.2609    4.0410   -1.1973 O   0  0  0  0  0  0  0  0  0  0  0  0
    0.9427   -4.6156   -1.2119 C   0  0  0  0  0  0  0  0  0  0  0  0
    1.8953   -5.4330   -0.4730 N   0  0  0  0  0  0  0  0  0  0  0  0
    0.2939   -5.1934   -2.0799 O   0  0  0  0  0  0  0  0  0  0  0  0
    1.7594    3.9810    0.5030 H   0  0  0  0  0  0  0  0  0  0  0  0
    1.3466    5.4678    1.3367 H   0  0  0  0  0  0  0  0  0  0  0  0
    0.1672    4.1039    1.4415 H   0  0  0  0  0  0  0  0  0  0  0  0
    0.7964    6.0347   -0.7410 H   0  0  0  0  0  0  0  0  0  0  0  0
   -0.8181    5.5009   -0.1626 H   0  0  0  0  0  0  0  0  0  0  0  0
    1.3574    4.0418   -1.7878 H   0  0  0  0  0  0  0  0  0  0  0  0
   -1.0535    3.9583   -3.2770 H   0  0  0  0  0  0  0  0  0  0  0  0
    0.3178    5.0614   -3.5347 H   0  0  0  0  0  0  0  0  0  0  0  0
   -0.9784    5.6258   -2.4830 H   0  0  0  0  0  0  0  0  0  0  0  0
    0.0659    2.4573   -0.2614 H   0  0  0  0  0  0  0  0  0  0  0  0
    0.0360    2.3057   -3.2927 H   0  0  0  0  0  0  0  0  0  0  0  0
    0.8227   -0.0257   -0.2379 H   0  0  0  0  0  0  0  0  0  0  0  0
    2.3040    2.1656   -0.7356 H   0  0  0  0  0  0  0  0  0  0  0  0
    3.2985    1.0473   -1.6316 H   0  0  0  0  0  0  0  0  0  0  0  0
    1.9718    1.7365    1.9370 H   0  0  0  0  0  0  0  0  0  0  0  0
    3.7402    0.9537    3.6529 H   0  0  0  0  0  0  0  0  0  0  0  0
    6.2140   -0.3267    3.5608 H   0  0  0  0  0  0  0  0  0  0  0  0
    7.8171   -1.2413    1.9825 H   0  0  0  0  0  0  0  0  0  0  0  0
    7.3757   -1.2344   -0.4424 H   0  0  0  0  0  0  0  0  0  0  0  0
    5.2643   -0.2622   -1.2867 H   0  0  0  0  0  0  0  0  0  0  0  0
    2.9670   -0.9195   -2.2399 H   0  0  0  0  0  0  0  0  0  0  0  0
    0.0967   -2.7933   -1.6230 H   0  0  0  0  0  0  0  0  0  0  0  0
    0.9290   -2.7459    1.2055 H   0  0  0  0  0  0  0  0  0  0  0  0
   -2.4682   -1.8244    1.3436 H   0  0  0  0  0  0  0  0  0  0  0  0
   -4.4235   -2.9736    0.2325 H   0  0  0  0  0  0  0  0  0  0  0  0
   -3.8570   -3.4840    1.8162 H   0  0  0  0  0  0  0  0  0  0  0  0
   -2.3979   -4.6324   -1.6679 H   0  0  0  0  0  0  0  0  0  0  0  0
   -3.4689   -6.0157   -1.6604 H   0  0  0  0  0  0  0  0  0  0  0  0
   -2.1769   -2.3169   -1.6411 H   0  0  0  0  0  0  0  0  0  0  0  0
   -1.7082    0.6735    0.2192 H   0  0  0  0  0  0  0  0  0  0  0  0
   -4.8066    1.0793    0.1232 H   0  0  0  0  0  0  0  0  0  0  0  0
   -3.7666    2.3010    0.8269 H   0  0  0  0  0  0  0  0  0  0  0  0
   -3.0215    0.4193    2.5288 H   0  0  0  0  0  0  0  0  0  0  0  0
   -4.3562   -0.5195    1.8087 H   0  0  0  0  0  0  0  0  0  0  0  0
   -4.8651    0.7771    4.8810 H   0  0  0  0  0  0  0  0  0  0  0  0
   -6.3306    0.1838    4.0772 H   0  0  0  0  0  0  0  0  0  0  0  0
   -3.3581    1.7013   -2.0569 H   0  0  0  0  0  0  0  0  0  0  0  0
    2.6684   -5.0661    0.0674 H   0  0  0  0  0  0  0  0  0  0  0  0
    1.7069   -6.4797   -0.4956 H   0  0  0  0  0  0  0  0  0  0  0  0
  1  2  1  0
  2  3  1  0
  3  4  1  0
  3  5  1  0
  5  6  1  0
  6  7  1  0
  7  8  2  0
  7  9  1  0
  9 10  1  0
 10 11  1  0
 11 12  2  0
 12 13  1  0
 13 14  1  0
 14 15  2  0
 15 16  1  0
 16 17  2  0
 17 18  1  0
 18 19  2  0
  9 20  1  0
 20 21  1  0
 21 22  2  0
 21 23  1  0
 23 24  1  0
 24 25  1  0
 25 26  2  0
 25 27  1  0
 27 28  1  0
 28 29  1  0
 29 30  1  0
 29 31  2  0
 27 32  1  0
 32 33  1  0
 33 34  2  0
 33 35  1  0
 35 36  1  0
 36 37  1  0
 37 38  1  0
 38 39  1  0
 38 40  2  0
 35 41  1  0
 41 42  1  0
 42 43  2  0
 23 44  1  0
 44 45  1  0
 44 46  2  0
 42  5  1  0
 19 11  1  0
 19 14  1  0
  1 47  1  0
  1 48  1  0
  1 49  1  0
  2 50  1  0
  2 51  1  0
  3 52  1  6
  4 53  1  0
  4 54  1  0
  4 55  1  0
  5 56  1  1
  6 57  1  0
  9 58  1  1
 10 59  1  0
 10 60  1  0
 12 61  1  0
 13 62  1  0
 15 63  1  0
 16 64  1  0
 17 65  1  0
 18 66  1  0
 20 67  1  0
 23 68  1  6
 24 69  1  0
 27 70  1  1
 28 71  1  0
 28 72  1  0
 30 73  1  0
 30 74  1  0
 32 75  1  0
 35 76  1  1
 36 77  1  0
 36 78  1  0
 37 79  1  0
 37 80  1  0
 39 81  1  0
 39 82  1  0
 41 83  1  0
 45 84  1  0
 45 85  1  0
M  END
$$$$
[H]N=C(c1c([H])c([H])c(C(=N[H])C([H])([H])[H])c(O[H])c1[H])N([H])[H]
     RDKit          3D

 24 24  0  0  0  0  0  0  0  0999 V2000
   -3.5471   -0.1222   -0.2163 C   0  0  0  0  0  0  0  0  0  0  0  0
   -2.5193    0.0182    0.8487 C   0  0  0  0  0  0  0  0  0  0  0  0
   -2.9390    0.1341    2.0478 N   0  0  0  0  0  0  0  0  0  0  0  0
   -1.1000    0.0277    0.5801 C   0  0  0  0  0  0  0  0  0  0  0  0
   -0.1490    0.1583    1.5632 C   0  0  0  0  0  0  0  0  0  0  0  0
    1.2107    0.1685    1.3140 C   0  0  0  0  0  0  0  0  0  0  0  0
    1.6448    0.0429    0.0261 C   0  0  0  0  0  0  0  0  0  0  0  0
    0.7072   -0.0891   -0.9740 C   0  0  0  0  0  0  0  0  0  0  0  0
   -0.6431   -0.0983   -0.7171 C   0  0  0  0  0  0  0  0  0  0  0  0
   -1.4876   -0.2366   -1.7992 O   0  0  0  0  0  0  0  0  0  0  0  0
    3.0520    0.0445   -0.3162 C   0  0  0  0  0  0  0  0  0  0  0  0
    3.4533   -0.0901   -1.6806 N   0  0  0  0  0  0  0  0  0  0  0  0
    3.9351    0.1647    0.5859 N   0  0  0  0  0  0  0  0  0  0  0  0
   -3.4869    0.7793   -0.8484 H   0  0  0  0  0  0  0  0  0  0  0  0
   -3.5168   -1.0815   -0.7488 H   0  0  0  0  0  0  0  0  0  0  0  0
   -4.5580   -0.0482    0.2677 H   0  0  0  0  0  0  0  0  0  0  0  0
   -2.4027    0.2378    2.8910 H   0  0  0  0  0  0  0  0  0  0  0  0
   -0.4758    0.2586    2.5862 H   0  0  0  0  0  0  0  0  0  0  0  0
    1.8724    0.2750    2.1445 H   0  0  0  0  0  0  0  0  0  0  0  0
    1.0652   -0.1890   -2.0010 H   0  0  0  0  0  0  0  0  0  0  0  0
   -1.1580   -0.3289   -2.7486 H   0  0  0  0  0  0  0  0  0  0  0  0
    4.2652   -0.6917   -1.9480 H   0  0  0  0  0  0  0  0  0  0  0  0
    2.9648    0.3961   -2.4606 H   0  0  0  0  0  0  0  0  0  0  0  0
    3.8125    0.2699    1.6037 H   0  0  0  0  0  0  0  0  0  0  0  0
  1  2  1  0
  2  3  2  3
  2  4  1  0
  4  5  2  0
  5  6  1  0
  6  7  2  0
  7  8  1  0
  8  9  2  0
  9 10  1  0
  7 11  1  0
 11 12  1  0
 11 13  2  3
  9  4  1  0
  1 14  1  0
  1 15  1  0
  1 16  1  0
  3 17  1  0
  5 18  1  0
  6 19  1  0
  8 20  1  0
 10 21  1  0
 12 22  1  0
 12 23  1  0
 13 24  1  0
M  END
$$$$
[H]OC([H])([H])[C@@]1([H])O[C@@]([H])(n2c([H])nc3c(N([H])[C@]4([H])C([H])([H])C([H])([H])C([H])([H])C([H])([H])[C@@]4([H])C([H])([H])O[H])nc([H])nc32)[C@]([H])(O[H])[C@]1([H])O[H]
     RDKit          3D

 52 55  0  0  0  0  0  0  0  0999 V2000
    7.0595    2.3415   -0.8732 O   0  0  0  0  0  0  0  0  0  0  0  0
    6.9971    0.9705   -0.7192 C   0  0  0  0  0  0  0  0  0  0  0  0
    5.7565    0.5540    0.0467 C   0  0  1  0  0  0  0  0  0  0  0  0
    4.5938    0.9541   -0.6105 O   0  0  0  0  0  0  0  0  0  0  0  0
    3.6150    0.3203    0.1715 C   0  0  2  0  0  0  0  0  0  0  0  0
    4.0825   -1.0980    0.1793 C   0  0  2  0  0  0  0  0  0  0  0  0
    3.8075   -1.6283    1.4460 O   0  0  0  0  0  0  0  0  0  0  0  0
    5.5928   -0.9491    0.0559 C   0  0  2  0  0  0  0  0  0  0  0  0
    6.2330   -1.5388    1.1399 O   0  0  0  0  0  0  0  0  0  0  0  0
    2.2981    0.5043   -0.3699 N   0  0  0  0  0  0  0  0  0  0  0  0
    1.9331    0.9235   -1.5941 C   0  0  0  0  0  0  0  0  0  0  0  0
    0.6064    0.9450   -1.6615 N   0  0  0  0  0  0  0  0  0  0  0  0
    0.0723    0.5369   -0.4733 C   0  0  0  0  0  0  0  0  0  0  0  0
   -1.2287    0.3866   -0.0399 C   0  0  0  0  0  0  0  0  0  0  0  0
   -2.3320    0.6747   -0.8852 N   0  0  0  0  0  0  0  0  0  0  0  0
   -3.6992    0.5394   -0.4946 C   0  0  2  0  0  0  0  0  0  0  0  0
   -4.0918    1.3997    0.6831 C   0  0  0  0  0  0  0  0  0  0  0  0
   -5.6010    1.4176    0.7360 C   0  0  0  0  0  0  0  0  0  0  0  0
   -6.1954    0.0359    0.7956 C   0  0  0  0  0  0  0  0  0  0  0  0
   -5.6090   -0.9245   -0.1769 C   0  0  0  0  0  0  0  0  0  0  0  0
   -4.0759   -0.8921   -0.1277 C   0  0  1  0  0  0  0  0  0  0  0  0
   -3.4985   -1.8860   -1.0823 C   0  0  0  0  0  0  0  0  0  0  0  0
   -3.9762   -1.6261   -2.3748 O   0  0  0  0  0  0  0  0  0  0  0  0
   -1.3864   -0.0490    1.2298 N   0  0  0  0  0  0  0  0  0  0  0  0
   -0.3409   -0.3225    2.0315 C   0  0  0  0  0  0  0  0  0  0  0  0
    0.9250   -0.1674    1.5839 N   0  0  0  0  0  0  0  0  0  0  0  0
    1.1679    0.2658    0.3213 C   0  0  0  0  0  0  0  0  0  0  0  0
    6.5719    2.7584   -0.0967 H   0  0  0  0  0  0  0  0  0  0  0  0
    7.8939    0.5997   -0.1825 H   0  0  0  0  0  0  0  0  0  0  0  0
    7.0281    0.5138   -1.7255 H   0  0  0  0  0  0  0  0  0  0  0  0
    5.7331    0.9517    1.0597 H   0  0  0  0  0  0  0  0  0  0  0  0
    3.7283    0.7505    1.1992 H   0  0  0  0  0  0  0  0  0  0  0  0
    3.6688   -1.7147   -0.6386 H   0  0  0  0  0  0  0  0  0  0  0  0
    4.0991   -2.5549    1.5481 H   0  0  0  0  0  0  0  0  0  0  0  0
    5.9597   -1.3265   -0.9152 H   0  0  0  0  0  0  0  0  0  0  0  0
    6.4586   -0.8033    1.7727 H   0  0  0  0  0  0  0  0  0  0  0  0
    2.6271    1.2000   -2.3979 H   0  0  0  0  0  0  0  0  0  0  0  0
   -2.1101    1.0078   -1.8575 H   0  0  0  0  0  0  0  0  0  0  0  0
   -4.3741    0.8200   -1.3282 H   0  0  0  0  0  0  0  0  0  0  0  0
   -3.6857    1.0702    1.6378 H   0  0  0  0  0  0  0  0  0  0  0  0
   -3.7677    2.4382    0.4562 H   0  0  0  0  0  0  0  0  0  0  0  0
   -5.8721    1.9259    1.7024 H   0  0  0  0  0  0  0  0  0  0  0  0
   -6.0361    2.0466   -0.0663 H   0  0  0  0  0  0  0  0  0  0  0  0
   -6.1857   -0.3852    1.8109 H   0  0  0  0  0  0  0  0  0  0  0  0
   -7.2855    0.1558    0.5267 H   0  0  0  0  0  0  0  0  0  0  0  0
   -5.8880   -0.7247   -1.2314 H   0  0  0  0  0  0  0  0  0  0  0  0
   -5.9331   -1.9490    0.1151 H   0  0  0  0  0  0  0  0  0  0  0  0
   -3.7468   -1.0669    0.9006 H   0  0  0  0  0  0  0  0  0  0  0  0
   -2.4030   -1.7850   -1.0757 H   0  0  0  0  0  0  0  0  0  0  0  0
   -3.8203   -2.8856   -0.7852 H   0  0  0  0  0  0  0  0  0  0  0  0
   -4.8681   -2.0555   -2.4260 H   0  0  0  0  0  0  0  0  0  0  0  0
   -0.4973   -0.6754    3.0600 H   0  0  0  0  0  0  0  0  0  0  0  0
  1  2  1  0
  2  3  1  0
  3  4  1  0
  4  5  1  0
  5  6  1  0
  6  7  1  0
  6  8  1  0
  8  9  1  0
  5 10  1  0
 10 11  1  0
 11 12  2  0
 12 13  1  0
 13 14  2  0
 14 15  1  0
 15 16  1  0
 16 17  1  0
 17 18  1  0
 18 19  1  0
 19 20  1  0
 20 21  1  0
 21 22  1  0
 22 23  1  0
 14 24  1  0
 24 25  2  0
 25 26  1  0
 26 27  2  0
  8  3  1  0
 27 10  1  0
 27 13  1  0
 21 16  1  0
  1 28  1  0
  2 29  1  0
  2 30  1  0
  3 31  1  1
  5 32  1  1
  6 33  1  6
  7 34  1  0
  8 35  1  6
  9 36  1  0
 11 37  1  0
 15 38  1  0
 16 39  1  6
 17 40  1  0
 17 41  1  0
 18 42  1  0
 18 43  1  0
 19 44  1  0
 19 45  1  0
 20 46  1  0
 20 47  1  0
 21 48  1  1
 22 49  1  0
 22 50  1  0
 23 51  1  0
 25 52  1  0
M  END
$$$$
[H]N([H])C(=NC([H])([H])C([H])([H])C([H])([H])N([H])C(=O)C([H])(N([H])C(=O)C([H])([H])[H])C([H])([H])C([H])([H])C([H])([H])N=C(N([H])[H])N([H])[H])N([H])[H]
     RDKit          3D

 48 47  0  0  0  0  0  0  0  0999 V2000
    1.0303   -0.3965    0.4050 N   0  0  0  0  0  0  0  0  0  0  0  0
    0.1613   -0.4447   -0.7201 C   0  0  0  0  0  0  0  0  0  0  0  0
    0.6354   -0.0820   -1.8582 O   0  0  0  0  0  0  0  0  0  0  0  0
   -1.1975   -0.9160   -0.5281 C   0  0  0  0  0  0  0  0  0  0  0  0
   -2.2075   -0.1481    0.1769 C   0  0  0  0  0  0  0  0  0  0  0  0
   -2.1518    0.3016    1.5662 C   0  0  0  0  0  0  0  0  0  0  0  0
   -3.5408    1.0382    1.7469 C   0  0  0  0  0  0  0  0  0  0  0  0
   -3.6943    2.0767    0.7449 N   0  0  0  0  0  0  0  0  0  0  0  0
   -4.6937    2.1425    0.0072 C   0  0  0  0  0  0  0  0  0  0  0  0
   -5.8302    1.2293    0.0232 N   0  0  0  0  0  0  0  0  0  0  0  0
   -4.8219    3.1101   -1.0350 N   0  0  0  0  0  0  0  0  0  0  0  0
   -1.2770   -2.3516   -0.5520 N   0  0  0  0  0  0  0  0  0  0  0  0
   -2.2433   -3.2072   -1.1012 C   0  0  0  0  0  0  0  0  0  0  0  0
   -3.2998   -2.8138   -1.7142 O   0  0  0  0  0  0  0  0  0  0  0  0
   -2.0842   -4.6966   -1.0005 C   0  0  0  0  0  0  0  0  0  0  0  0
    2.3774    0.0661    0.4339 C   0  0  0  0  0  0  0  0  0  0  0  0
    3.2285   -0.5453   -0.6457 C   0  0  0  0  0  0  0  0  0  0  0  0
    4.7073   -0.1308   -0.4727 C   0  0  0  0  0  0  0  0  0  0  0  0
    4.8385    1.2860   -0.4014 N   0  0  0  0  0  0  0  0  0  0  0  0
    5.8834    1.8356    0.1941 C   0  0  0  0  0  0  0  0  0  0  0  0
    5.9989    3.2468    0.2512 N   0  0  0  0  0  0  0  0  0  0  0  0
    6.8883    0.9737    0.7034 N   0  0  0  0  0  0  0  0  0  0  0  0
    0.6529   -0.7695    1.3502 H   0  0  0  0  0  0  0  0  0  0  0  0
   -1.6463   -0.7457   -1.6842 H   0  0  0  0  0  0  0  0  0  0  0  0
   -3.1835   -0.7724    0.0933 H   0  0  0  0  0  0  0  0  0  0  0  0
   -2.5360    0.7552   -0.4557 H   0  0  0  0  0  0  0  0  0  0  0  0
   -1.4277    1.0348    1.8836 H   0  0  0  0  0  0  0  0  0  0  0  0
   -2.2597   -0.5033    2.3371 H   0  0  0  0  0  0  0  0  0  0  0  0
   -3.5301    1.5074    2.7206 H   0  0  0  0  0  0  0  0  0  0  0  0
   -4.3590    0.2949    1.6566 H   0  0  0  0  0  0  0  0  0  0  0  0
   -5.8576    0.4883   -0.6815 H   0  0  0  0  0  0  0  0  0  0  0  0
   -6.5460    1.3832    0.7247 H   0  0  0  0  0  0  0  0  0  0  0  0
   -4.7626    4.1059   -0.8267 H   0  0  0  0  0  0  0  0  0  0  0  0
   -4.9975    2.8100   -2.0299 H   0  0  0  0  0  0  0  0  0  0  0  0
   -0.4658   -2.8926   -0.0387 H   0  0  0  0  0  0  0  0  0  0  0  0
   -1.0559   -4.8865   -0.6119 H   0  0  0  0  0  0  0  0  0  0  0  0
   -2.3125   -5.2607   -1.8899 H   0  0  0  0  0  0  0  0  0  0  0  0
   -2.7973   -5.0265   -0.1905 H   0  0  0  0  0  0  0  0  0  0  0  0
    2.8558   -0.1626    1.4368 H   0  0  0  0  0  0  0  0  0  0  0  0
    2.4060    1.2119    0.3653 H   0  0  0  0  0  0  0  0  0  0  0  0
    2.9647   -0.1850   -1.6378 H   0  0  0  0  0  0  0  0  0  0  0  0
    3.1885   -1.6282   -0.6073 H   0  0  0  0  0  0  0  0  0  0  0  0
    5.1851   -0.5279   -1.4213 H   0  0  0  0  0  0  0  0  0  0  0  0
    5.1577   -0.6626    0.3615 H   0  0  0  0  0  0  0  0  0  0  0  0
    5.1953    3.8554    0.5329 H   0  0  0  0  0  0  0  0  0  0  0  0
    6.9024    3.7145    0.0433 H   0  0  0  0  0  0  0  0  0  0  0  0
    7.3827    0.2781    0.0726 H   0  0  0  0  0  0  0  0  0  0  0  0
    7.1392    1.0096    1.6855 H   0  0  0  0  0  0  0  0  0  0  0  0
  1  2  1  0
  2  3  2  0
  2  4  1  0
  4  5  1  0
  5  6  1  0
  6  7  1  0
  7  8  1  0
  8  9  2  3
  9 10  1  0
  9 11  1  0
  4 12  1  0
 12 13  1  0
 13 14  2  0
 13 15  1  0
  1 16  1  0
 16 17  1  0
 17 18  1  0
 18 19  1  0
 19 20  2  3
 20 21  1  0
 20 22  1  0
  1 23  1  0
  4 24  1  0
  5 25  1  0
  5 26  1  0
  6 27  1  0
  6 28  1  0
  7 29  1  0
  7 30  1  0
 10 31  1  0
 10 32  1  0
 11 33  1  0
 11 34  1  0
 12 35  1  0
 15 36  1  0
 15 37  1  0
 15 38  1  0
 16 39  1  0
 16 40  1  0
 17 41  1  0
 17 42  1  0
 18 43  1  0
 18 44  1  0
 21 45  1  0
 21 46  1  0
 22 47  1  0
 22 48  1  0
M  END
$$$$
[H]c1nc(N([H])c2c([H])c([H])c(C(F)(F)F)c([H])c2[H])c(C(F)(F)F)c([H])c1C(=O)N(C([H])([H])[H])C([H])([H])[H]
     RDKit          3D

 39 40  0  0  0  0  0  0  0  0999 V2000
   -5.5247    2.1745    0.4386 C   0  0  0  0  0  0  0  0  0  0  0  0
   -4.5326    1.0682    0.3406 N   0  0  0  0  0  0  0  0  0  0  0  0
   -5.1477   -0.2048    0.0874 C   0  0  0  0  0  0  0  0  0  0  0  0
   -3.2077    1.3235    0.5774 C   0  0  0  0  0  0  0  0  0  0  0  0
   -2.9656    2.5260    1.0268 O   0  0  0  0  0  0  0  0  0  0  0  0
   -2.0488    0.4596    0.3860 C   0  0  0  0  0  0  0  0  0  0  0  0
   -0.8846    0.8182    0.9770 C   0  0  0  0  0  0  0  0  0  0  0  0
    0.2541    0.1646    0.6713 N   0  0  0  0  0  0  0  0  0  0  0  0
    0.1984   -0.8666   -0.2455 C   0  0  0  0  0  0  0  0  0  0  0  0
    1.4410   -1.4940   -0.6218 N   0  0  0  0  0  0  0  0  0  0  0  0
    2.6736   -0.9674   -0.1372 C   0  0  0  0  0  0  0  0  0  0  0  0
    2.9741   -0.6929    1.1596 C   0  0  0  0  0  0  0  0  0  0  0  0
    4.1604   -0.0423    1.5271 C   0  0  0  0  0  0  0  0  0  0  0  0
    5.0692    0.3477    0.5691 C   0  0  0  0  0  0  0  0  0  0  0  0
    4.7835    0.0754   -0.7630 C   0  0  0  0  0  0  0  0  0  0  0  0
    3.6283   -0.5611   -1.0980 C   0  0  0  0  0  0  0  0  0  0  0  0
    6.3272    1.0778    0.8492 C   0  0  0  0  0  0  0  0  0  0  0  0
    7.4017    0.5234    0.2009 F   0  0  0  0  0  0  0  0  0  0  0  0
    6.5945    1.1938    2.1903 F   0  0  0  0  0  0  0  0  0  0  0  0
    6.2172    2.3894    0.3516 F   0  0  0  0  0  0  0  0  0  0  0  0
   -0.9324   -1.2693   -0.8640 C   0  0  0  0  0  0  0  0  0  0  0  0
   -2.1321   -0.5925   -0.5501 C   0  0  0  0  0  0  0  0  0  0  0  0
   -0.9785   -2.3482   -1.8985 C   0  0  0  0  0  0  0  0  0  0  0  0
   -0.1746   -2.0279   -3.0045 F   0  0  0  0  0  0  0  0  0  0  0  0
   -2.2634   -2.3691   -2.4812 F   0  0  0  0  0  0  0  0  0  0  0  0
   -0.7595   -3.5887   -1.4102 F   0  0  0  0  0  0  0  0  0  0  0  0
   -6.3714    1.9879   -0.2829 H   0  0  0  0  0  0  0  0  0  0  0  0
   -4.9708    3.0589    0.0285 H   0  0  0  0  0  0  0  0  0  0  0  0
   -5.8833    2.3019    1.4513 H   0  0  0  0  0  0  0  0  0  0  0  0
   -6.2094   -0.2537    0.5006 H   0  0  0  0  0  0  0  0  0  0  0  0
   -4.5939   -0.9873    0.6567 H   0  0  0  0  0  0  0  0  0  0  0  0
   -5.2556   -0.3997   -0.9687 H   0  0  0  0  0  0  0  0  0  0  0  0
   -0.8872    1.6365    1.7308 H   0  0  0  0  0  0  0  0  0  0  0  0
    1.4194   -2.2958   -1.2186 H   0  0  0  0  0  0  0  0  0  0  0  0
    2.2749   -1.0047    1.9459 H   0  0  0  0  0  0  0  0  0  0  0  0
    4.4290    0.1842    2.5531 H   0  0  0  0  0  0  0  0  0  0  0  0
    5.4951    0.3768   -1.5188 H   0  0  0  0  0  0  0  0  0  0  0  0
    3.3809   -0.7932   -2.1513 H   0  0  0  0  0  0  0  0  0  0  0  0
   -2.9986   -0.9292   -1.0311 H   0  0  0  0  0  0  0  0  0  0  0  0
  1  2  1  0
  2  3  1  0
  2  4  1  0
  4  5  2  0
  4  6  1  0
  6  7  2  0
  7  8  1  0
  8  9  2  0
  9 10  1  0
 10 11  1  0
 11 12  2  0
 12 13  1  0
 13 14  2  0
 14 15  1  0
 15 16  2  0
 14 17  1  0
 17 18  1  0
 17 19  1  0
 17 20  1  0
  9 21  1  0
 21 22  2  0
 21 23  1  0
 23 24  1  0
 23 25  1  0
 23 26  1  0
 22  6  1  0
 16 11  1  0
  1 27  1  0
  1 28  1  0
  1 29  1  0
  3 30  1  0
  3 31  1  0
  3 32  1  0
  7 33  1  0
 10 34  1  0
 12 35  1  0
 13 36  1  0
 15 37  1  0
 16 38  1  0
 22 39  1  0
M  END
$$$$
[H]c1nc(N([H])c2c([H])c([H])c(N3C([H])([H])C([H])([H])N(C([H])([H])[H])C([H])([H])C3([H])[H])c(C([H])([H])[H])c2[H])nc(N([H])c2c([H])c([H])c([H])c(C(F)(F)F)c2[H])c1C#N
     RDKit          3D

 58 61  0  0  0  0  0  0  0  0999 V2000
   -8.1846    1.3587    0.0177 C   0  0  0  0  0  0  0  0  0  0  0  0
   -7.0645    0.6648   -0.5245 N   0  0  0  0  0  0  0  0  0  0  0  0
   -6.5824   -0.3413    0.3752 C   0  0  0  0  0  0  0  0  0  0  0  0
   -5.3362   -1.0263   -0.0529 C   0  0  0  0  0  0  0  0  0  0  0  0
   -4.4106   -0.1463   -0.6872 N   0  0  0  0  0  0  0  0  0  0  0  0
   -4.9357    0.9228   -1.5475 C   0  0  0  0  0  0  0  0  0  0  0  0
   -5.9947    1.6399   -0.7630 C   0  0  0  0  0  0  0  0  0  0  0  0
   -2.9939   -0.1974   -0.6098 C   0  0  0  0  0  0  0  0  0  0  0  0
   -2.2837   -0.5453   -1.7654 C   0  0  0  0  0  0  0  0  0  0  0  0
   -0.9112   -0.6221   -1.7728 C   0  0  0  0  0  0  0  0  0  0  0  0
   -0.1538   -0.3590   -0.6231 C   0  0  0  0  0  0  0  0  0  0  0  0
    1.2563   -0.3540   -0.6920 N   0  0  0  0  0  0  0  0  0  0  0  0
    2.0864   -1.1815    0.1074 C   0  0  0  0  0  0  0  0  0  0  0  0
    1.6850   -2.0838    0.9901 N   0  0  0  0  0  0  0  0  0  0  0  0
    2.4512   -2.8695    1.7576 C   0  0  0  0  0  0  0  0  0  0  0  0
    3.8389   -2.6896    1.5831 C   0  0  0  0  0  0  0  0  0  0  0  0
    4.7390   -3.5023    2.3638 C   0  0  0  0  0  0  0  0  0  0  0  0
    5.4784   -4.1750    2.9897 N   0  0  0  0  0  0  0  0  0  0  0  0
    4.3024   -1.7662    0.6832 C   0  0  0  0  0  0  0  0  0  0  0  0
    5.7271   -1.6191    0.5390 N   0  0  0  0  0  0  0  0  0  0  0  0
    6.1293   -0.6001   -0.3456 C   0  0  0  0  0  0  0  0  0  0  0  0
    6.2227   -0.7811   -1.6830 C   0  0  0  0  0  0  0  0  0  0  0  0
    6.5928    0.2786   -2.5234 C   0  0  0  0  0  0  0  0  0  0  0  0
    6.8630    1.5161   -1.9590 C   0  0  0  0  0  0  0  0  0  0  0  0
    6.7730    1.7131   -0.6022 C   0  0  0  0  0  0  0  0  0  0  0  0
    6.4068    0.6487    0.1911 C   0  0  0  0  0  0  0  0  0  0  0  0
    7.0448    3.0287    0.0210 C   0  0  0  0  0  0  0  0  0  0  0  0
    7.2163    4.0469   -0.8721 F   0  0  0  0  0  0  0  0  0  0  0  0
    5.9734    3.3727    0.8463 F   0  0  0  0  0  0  0  0  0  0  0  0
    8.1457    2.8735    0.8435 F   0  0  0  0  0  0  0  0  0  0  0  0
    3.4583   -1.0396   -0.0293 N   0  0  0  0  0  0  0  0  0  0  0  0
   -0.8536   -0.0200    0.5009 C   0  0  0  0  0  0  0  0  0  0  0  0
   -2.2516    0.0608    0.5074 C   0  0  0  0  0  0  0  0  0  0  0  0
   -2.8770    0.4889    1.7579 C   0  0  0  0  0  0  0  0  0  0  0  0
   -8.3177    2.2826   -0.6069 H   0  0  0  0  0  0  0  0  0  0  0  0
   -7.9492    1.6797    1.0588 H   0  0  0  0  0  0  0  0  0  0  0  0
   -9.1418    0.7896   -0.0326 H   0  0  0  0  0  0  0  0  0  0  0  0
   -7.3956   -1.1305    0.4386 H   0  0  0  0  0  0  0  0  0  0  0  0
   -6.4787    0.0738    1.4132 H   0  0  0  0  0  0  0  0  0  0  0  0
   -4.9381   -1.6179    0.7909 H   0  0  0  0  0  0  0  0  0  0  0  0
   -5.6591   -1.7487   -0.8766 H   0  0  0  0  0  0  0  0  0  0  0  0
   -4.1489    1.6351   -1.8181 H   0  0  0  0  0  0  0  0  0  0  0  0
   -5.3571    0.3991   -2.4439 H   0  0  0  0  0  0  0  0  0  0  0  0
   -5.5556    1.9986    0.1773 H   0  0  0  0  0  0  0  0  0  0  0  0
   -6.3886    2.5002   -1.3473 H   0  0  0  0  0  0  0  0  0  0  0  0
   -2.8851   -0.7467   -2.6515 H   0  0  0  0  0  0  0  0  0  0  0  0
   -0.3985   -0.8961   -2.6643 H   0  0  0  0  0  0  0  0  0  0  0  0
    1.7336    0.3016   -1.3724 H   0  0  0  0  0  0  0  0  0  0  0  0
    2.0646   -3.5921    2.4660 H   0  0  0  0  0  0  0  0  0  0  0  0
    6.3566   -2.2335    1.0667 H   0  0  0  0  0  0  0  0  0  0  0  0
    6.0264   -1.7229   -2.1710 H   0  0  0  0  0  0  0  0  0  0  0  0
    6.6652    0.1269   -3.5900 H   0  0  0  0  0  0  0  0  0  0  0  0
    7.1471    2.3397   -2.5910 H   0  0  0  0  0  0  0  0  0  0  0  0
    6.3276    0.7765    1.2747 H   0  0  0  0  0  0  0  0  0  0  0  0
   -0.2823    0.1854    1.4207 H   0  0  0  0  0  0  0  0  0  0  0  0
   -2.1369    0.3469    2.5987 H   0  0  0  0  0  0  0  0  0  0  0  0
   -3.0552    1.6022    1.7764 H   0  0  0  0  0  0  0  0  0  0  0  0
   -3.7903   -0.0444    2.0204 H   0  0  0  0  0  0  0  0  0  0  0  0
  1  2  1  0
  2  3  1  0
  3  4  1  0
  4  5  1  0
  5  6  1  0
  6  7  1  0
  5  8  1  0
  8  9  2  0
  9 10  1  0
 10 11  2  0
 11 12  1  0
 12 13  1  0
 13 14  2  0
 14 15  1  0
 15 16  2  0
 16 17  1  0
 17 18  3  0
 16 19  1  0
 19 20  1  0
 20 21  1  0
 21 22  2  0
 22 23  1  0
 23 24  2  0
 24 25  1  0
 25 26  2  0
 25 27  1  0
 27 28  1  0
 27 29  1  0
 27 30  1  0
 19 31  2  0
 11 32  1  0
 32 33  2  0
 33 34  1  0
  7  2  1  0
 33  8  1  0
 31 13  1  0
 26 21  1  0
  1 35  1  0
  1 36  1  0
  1 37  1  0
  3 38  1  0
  3 39  1  0
  4 40  1  0
  4 41  1  0
  6 42  1  0
  6 43  1  0
  7 44  1  0
  7 45  1  0
  9 46  1  0
 10 47  1  0
 12 48  1  0
 15 49  1  0
 20 50  1  0
 22 51  1  0
 23 52  1  0
 24 53  1  0
 26 54  1  0
 32 55  1  0
 34 56  1  0
 34 57  1  0
 34 58  1  0
M  END
$$$$
[H]O[C@@]1([H])C([H])([H])C([H])([H])[C@]2([H])[C@]1(C([H])([H])[H])C([H])([H])C([H])([H])[C@]1([H])[C@@]3(C([H])([H])[H])C([H])([H])C([H])([H])[C@@]([H])(O[H])C([H])([H])[C@@]3([H])C([H])([H])C([H])([H])[C@@]21[H]
     RDKit          3D

 53 56  0  0  0  0  0  0  0  0999 V2000
   -2.8834   -0.6297    1.2666 C   0  0  0  0  0  0  0  0  0  0  0  0
   -2.6831   -0.2709   -0.1873 C   0  0  2  0  0  0  0  0  0  0  0  0
   -2.0682   -1.3606   -0.9496 C   0  0  0  0  0  0  0  0  0  0  0  0
   -0.7670   -1.0810   -1.6094 C   0  0  0  0  0  0  0  0  0  0  0  0
    0.1729   -0.1951   -0.8916 C   0  0  1  0  0  0  0  0  0  0  0  0
   -0.4851    0.5842    0.2507 C   0  0  1  0  0  0  0  0  0  0  0  0
    0.4290    1.7282    0.5450 C   0  0  0  0  0  0  0  0  0  0  0  0
    1.7564    1.2293    0.9831 C   0  0  0  0  0  0  0  0  0  0  0  0
    2.0333   -0.2005    0.7784 C   0  0  2  0  0  0  0  0  0  0  0  0
    3.5526   -0.4043    0.8485 C   0  0  0  0  0  0  0  0  0  0  0  0
    4.2537    0.1637   -0.3440 C   0  0  2  0  0  0  0  0  0  0  0  0
    4.8723    1.3992   -0.0449 O   0  0  0  0  0  0  0  0  0  0  0  0
    3.4090    0.2634   -1.5703 C   0  0  0  0  0  0  0  0  0  0  0  0
    2.4087   -0.8406   -1.6247 C   0  0  0  0  0  0  0  0  0  0  0  0
    1.4587   -0.8343   -0.4413 C   0  0  2  0  0  0  0  0  0  0  0  0
    1.2306   -2.3183   -0.1150 C   0  0  0  0  0  0  0  0  0  0  0  0
   -1.7972    0.9745   -0.3295 C   0  0  2  0  0  0  0  0  0  0  0  0
   -2.5814    2.0016    0.3363 C   0  0  0  0  0  0  0  0  0  0  0  0
   -4.0231    1.6389    0.0006 C   0  0  0  0  0  0  0  0  0  0  0  0
   -3.9585    0.2918   -0.7088 C   0  0  2  0  0  0  0  0  0  0  0  0
   -5.0632   -0.4968   -0.3992 O   0  0  0  0  0  0  0  0  0  0  0  0
   -3.8636   -1.1623    1.3243 H   0  0  0  0  0  0  0  0  0  0  0  0
   -2.1268   -1.3588    1.6362 H   0  0  0  0  0  0  0  0  0  0  0  0
   -2.9648    0.2458    1.9259 H   0  0  0  0  0  0  0  0  0  0  0  0
   -1.9895   -2.2649   -0.2759 H   0  0  0  0  0  0  0  0  0  0  0  0
   -2.8027   -1.6981   -1.7382 H   0  0  0  0  0  0  0  0  0  0  0  0
   -0.2832   -2.0825   -1.8134 H   0  0  0  0  0  0  0  0  0  0  0  0
   -1.0018   -0.7033   -2.6507 H   0  0  0  0  0  0  0  0  0  0  0  0
    0.4825    0.6257   -1.6087 H   0  0  0  0  0  0  0  0  0  0  0  0
   -0.6011   -0.0683    1.1300 H   0  0  0  0  0  0  0  0  0  0  0  0
    0.5197    2.3279   -0.4073 H   0  0  0  0  0  0  0  0  0  0  0  0
   -0.0447    2.3958    1.3001 H   0  0  0  0  0  0  0  0  0  0  0  0
    1.8400    1.4451    2.0911 H   0  0  0  0  0  0  0  0  0  0  0  0
    2.5340    1.9173    0.5356 H   0  0  0  0  0  0  0  0  0  0  0  0
    1.6420   -0.7603    1.6790 H   0  0  0  0  0  0  0  0  0  0  0  0
    3.9235    0.1170    1.7538 H   0  0  0  0  0  0  0  0  0  0  0  0
    3.7791   -1.4921    0.9934 H   0  0  0  0  0  0  0  0  0  0  0  0
    5.1218   -0.5269   -0.5616 H   0  0  0  0  0  0  0  0  0  0  0  0
    5.5340    1.1929    0.6709 H   0  0  0  0  0  0  0  0  0  0  0  0
    4.0899    0.1169   -2.4580 H   0  0  0  0  0  0  0  0  0  0  0  0
    2.9497    1.2592   -1.7322 H   0  0  0  0  0  0  0  0  0  0  0  0
    1.8217   -0.7303   -2.5801 H   0  0  0  0  0  0  0  0  0  0  0  0
    2.9542   -1.7956   -1.7301 H   0  0  0  0  0  0  0  0  0  0  0  0
    2.0855   -2.6084    0.5654 H   0  0  0  0  0  0  0  0  0  0  0  0
    1.3782   -2.9523   -1.0184 H   0  0  0  0  0  0  0  0  0  0  0  0
    0.2949   -2.4896    0.4133 H   0  0  0  0  0  0  0  0  0  0  0  0
   -1.7573    1.1780   -1.4310 H   0  0  0  0  0  0  0  0  0  0  0  0
   -2.3784    3.0017   -0.1475 H   0  0  0  0  0  0  0  0  0  0  0  0
   -2.4258    2.1497    1.4087 H   0  0  0  0  0  0  0  0  0  0  0  0
   -4.6248    1.5965    0.9210 H   0  0  0  0  0  0  0  0  0  0  0  0
   -4.4544    2.3508   -0.7467 H   0  0  0  0  0  0  0  0  0  0  0  0
   -3.8607    0.4158   -1.8069 H   0  0  0  0  0  0  0  0  0  0  0  0
   -5.0378   -1.2849   -0.9651 H   0  0  0  0  0  0  0  0  0  0  0  0
  2  1  1  1
  2  3  1  0
  3  4  1  0
  4  5  1  0
  5  6  1  0
  6  7  1  0
  7  8  1  0
  8  9  1  0
  9 10  1  0
 10 11  1  0
 11 12  1  0
 11 13  1  0
 13 14  1  0
 14 15  1  0
 15 16  1  1
  6 17  1  0
 17 18  1  0
 18 19  1  0
 19 20  1  0
 20 21  1  0
 17  2  1  0
 20  2  1  0
 15  5  1  0
 15  9  1  0
  1 22  1  0
  1 23  1  0
  1 24  1  0
  3 25  1  0
  3 26  1  0
  4 27  1  0
  4 28  1  0
  5 29  1  6
  6 30  1  1
  7 31  1  0
  7 32  1  0
  8 33  1  0
  8 34  1  0
  9 35  1  1
 10 36  1  0
 10 37  1  0
 11 38  1  6
 12 39  1  0
 13 40  1  0
 13 41  1  0
 14 42  1  0
 14 43  1  0
 16 44  1  0
 16 45  1  0
 16 46  1  0
 17 47  1  6
 18 48  1  0
 18 49  1  0
 19 50  1  0
 19 51  1  0
 20 52  1  6
 21 53  1  0
M  END
$$$$
[H]c1nc(N([H])[H])c2c(-c3c([H])c([H])c([H])c(C(F)(F)F)c3[H])nc([C@]3([H])C([H])([H])[C@@]4(C([H])([H])N(C(=O)C#CC([H])([H])[H])C([H])([H])C4([H])[H])C3([H])[H])n2c1[H]
     RDKit          3D

 55 59  0  0  0  0  0  0  0  0999 V2000
    8.5365   -1.7359   -0.3938 C   0  0  0  0  0  0  0  0  0  0  0  0
    7.5388   -0.6793   -0.1385 C   0  0  0  0  0  0  0  0  0  0  0  0
    6.7257    0.2101    0.0888 C   0  0  0  0  0  0  0  0  0  0  0  0
    5.8066    1.2741    0.3541 C   0  0  0  0  0  0  0  0  0  0  0  0
    6.2394    2.2349    1.0369 O   0  0  0  0  0  0  0  0  0  0  0  0
    4.4901    1.2241   -0.1371 N   0  0  0  0  0  0  0  0  0  0  0  0
    3.4850    2.2894    0.0874 C   0  0  0  0  0  0  0  0  0  0  0  0
    2.5364    2.0430   -1.1036 C   0  0  0  0  0  0  0  0  0  0  0  0
    2.4499    0.5444   -0.9417 C   0  0  2  0  0  0  0  0  0  0  0  0
    1.4872   -0.2250   -1.7271 C   0  0  0  0  0  0  0  0  0  0  0  0
    1.0027   -0.8685   -0.4634 C   0  0  1  0  0  0  0  0  0  0  0  0
    1.7566    0.2030    0.3544 C   0  0  0  0  0  0  0  0  0  0  0  0
   -0.4430   -0.7113   -0.1446 C   0  0  0  0  0  0  0  0  0  0  0  0
   -1.4252   -0.1068   -0.8015 N   0  0  0  0  0  0  0  0  0  0  0  0
   -2.5970   -0.2209   -0.0962 C   0  0  0  0  0  0  0  0  0  0  0  0
   -3.8788    0.3487   -0.4726 C   0  0  0  0  0  0  0  0  0  0  0  0
   -3.9380    1.7420   -0.6292 C   0  0  0  0  0  0  0  0  0  0  0  0
   -5.0630    2.3851   -1.0401 C   0  0  0  0  0  0  0  0  0  0  0  0
   -6.1830    1.6611   -1.3142 C   0  0  0  0  0  0  0  0  0  0  0  0
   -6.1646    0.2804   -1.1740 C   0  0  0  0  0  0  0  0  0  0  0  0
   -5.0180   -0.3476   -0.7569 C   0  0  0  0  0  0  0  0  0  0  0  0
   -7.4056   -0.4596   -1.4984 C   0  0  0  0  0  0  0  0  0  0  0  0
   -8.1623    0.3106   -2.3645 F   0  0  0  0  0  0  0  0  0  0  0  0
   -7.1571   -1.7170   -2.0184 F   0  0  0  0  0  0  0  0  0  0  0  0
   -8.1400   -0.5949   -0.3276 F   0  0  0  0  0  0  0  0  0  0  0  0
   -2.2652   -0.9295    1.0268 C   0  0  0  0  0  0  0  0  0  0  0  0
   -2.9861   -1.3546    2.1445 C   0  0  0  0  0  0  0  0  0  0  0  0
   -4.3633   -1.0283    2.2097 N   0  0  0  0  0  0  0  0  0  0  0  0
   -2.4075   -2.0478    3.1687 N   0  0  0  0  0  0  0  0  0  0  0  0
   -1.1091   -2.3245    3.0943 C   0  0  0  0  0  0  0  0  0  0  0  0
   -0.3643   -1.9257    2.0160 C   0  0  0  0  0  0  0  0  0  0  0  0
   -0.9420   -1.2381    1.0072 N   0  0  0  0  0  0  0  0  0  0  0  0
    3.9045    0.1625   -0.9216 C   0  0  0  0  0  0  0  0  0  0  0  0
    8.6127   -1.9594   -1.4846 H   0  0  0  0  0  0  0  0  0  0  0  0
    9.5457   -1.4160   -0.0862 H   0  0  0  0  0  0  0  0  0  0  0  0
    8.1841   -2.6582    0.1315 H   0  0  0  0  0  0  0  0  0  0  0  0
    3.9149    3.2737    0.1067 H   0  0  0  0  0  0  0  0  0  0  0  0
    2.9295    1.9581    0.9851 H   0  0  0  0  0  0  0  0  0  0  0  0
    3.1163    2.3181   -2.0052 H   0  0  0  0  0  0  0  0  0  0  0  0
    1.5865    2.5520   -0.9833 H   0  0  0  0  0  0  0  0  0  0  0  0
    0.7186    0.3312   -2.3064 H   0  0  0  0  0  0  0  0  0  0  0  0
    1.9271   -1.0041   -2.4067 H   0  0  0  0  0  0  0  0  0  0  0  0
    1.4070   -1.8559   -0.1861 H   0  0  0  0  0  0  0  0  0  0  0  0
    1.1173    1.0392    0.7075 H   0  0  0  0  0  0  0  0  0  0  0  0
    2.4198   -0.2000    1.1166 H   0  0  0  0  0  0  0  0  0  0  0  0
   -3.0421    2.3435   -0.4155 H   0  0  0  0  0  0  0  0  0  0  0  0
   -5.0189    3.4849   -1.1343 H   0  0  0  0  0  0  0  0  0  0  0  0
   -7.0750    2.2169   -1.6399 H   0  0  0  0  0  0  0  0  0  0  0  0
   -5.0009   -1.4280   -0.6598 H   0  0  0  0  0  0  0  0  0  0  0  0
   -4.6495   -0.0671    2.4459 H   0  0  0  0  0  0  0  0  0  0  0  0
   -5.0657   -1.7529    2.0185 H   0  0  0  0  0  0  0  0  0  0  0  0
   -0.6164   -2.8941    3.9078 H   0  0  0  0  0  0  0  0  0  0  0  0
    0.6708   -2.1565    1.9982 H   0  0  0  0  0  0  0  0  0  0  0  0
    4.2806    0.3202   -1.9639 H   0  0  0  0  0  0  0  0  0  0  0  0
    4.0915   -0.8437   -0.5372 H   0  0  0  0  0  0  0  0  0  0  0  0
  1  2  1  0
  2  3  3  0
  3  4  1  0
  4  5  2  0
  4  6  1  0
  6  7  1  0
  7  8  1  0
  9  8  1  6
  9 10  1  0
 10 11  1  0
 11 12  1  0
 11 13  1  0
 13 14  2  0
 14 15  1  0
 15 16  1  0
 16 17  2  0
 17 18  1  0
 18 19  2  0
 19 20  1  0
 20 21  2  0
 20 22  1  0
 22 23  1  0
 22 24  1  0
 22 25  1  0
 15 26  2  0
 26 27  1  0
 27 28  1  0
 27 29  2  0
 29 30  1  0
 30 31  2  0
 31 32  1  0
  9 33  1  0
 33  6  1  0
 12  9  1  0
 32 13  1  0
 21 16  1  0
 32 26  1  0
  1 34  1  0
  1 35  1  0
  1 36  1  0
  7 37  1  0
  7 38  1  0
  8 39  1  0
  8 40  1  0
 10 41  1  0
 10 42  1  0
 11 43  1  1
 12 44  1  0
 12 45  1  0
 17 46  1  0
 18 47  1  0
 19 48  1  0
 21 49  1  0
 28 50  1  0
 28 51  1  0
 30 52  1  0
 31 53  1  0
 33 54  1  0
 33 55  1  0
M  END
$$$$
[H]c1c([H])c(F)c([H])c(C2(c3c([H])c([H])c([H])c(F)c3[H])C([H])([H])C([H])([H])N(C(=O)OC(C([H])([H])[H])(C([H])([H])[H])C([H])([H])[H])C([H])([H])C2([H])[H])c1[H]
     RDKit          3D

 52 54  0  0  0  0  0  0  0  0999 V2000
    5.0653   -1.5416    0.0883 C   0  0  0  0  0  0  0  0  0  0  0  0
    4.7616   -0.1786   -0.4474 C   0  0  0  0  0  0  0  0  0  0  0  0
    5.5371    0.8303    0.3842 C   0  0  0  0  0  0  0  0  0  0  0  0
    5.3266   -0.1343   -1.8747 C   0  0  0  0  0  0  0  0  0  0  0  0
    3.3975    0.1174   -0.5377 O   0  0  0  0  0  0  0  0  0  0  0  0
    2.4975    0.1433    0.4876 C   0  0  0  0  0  0  0  0  0  0  0  0
    2.9266   -0.1268    1.6437 O   0  0  0  0  0  0  0  0  0  0  0  0
    1.1235    0.4482    0.3595 N   0  0  0  0  0  0  0  0  0  0  0  0
    0.5031    0.7793   -0.9186 C   0  0  0  0  0  0  0  0  0  0  0  0
   -0.6384   -0.1615   -1.1747 C   0  0  0  0  0  0  0  0  0  0  0  0
   -1.6571   -0.1634   -0.0610 C   0  0  0  0  0  0  0  0  0  0  0  0
   -0.8859   -0.5287    1.1957 C   0  0  0  0  0  0  0  0  0  0  0  0
    0.2262    0.4531    1.4995 C   0  0  0  0  0  0  0  0  0  0  0  0
   -2.3460    1.1344    0.1165 C   0  0  0  0  0  0  0  0  0  0  0  0
   -2.7855    1.6118    1.3355 C   0  0  0  0  0  0  0  0  0  0  0  0
   -3.4288    2.8153    1.4929 C   0  0  0  0  0  0  0  0  0  0  0  0
   -3.6599    3.6027    0.4065 C   0  0  0  0  0  0  0  0  0  0  0  0
   -3.2417    3.1728   -0.8304 C   0  0  0  0  0  0  0  0  0  0  0  0
   -3.4847    3.9761   -1.8909 F   0  0  0  0  0  0  0  0  0  0  0  0
   -2.5878    1.9423   -0.9689 C   0  0  0  0  0  0  0  0  0  0  0  0
   -2.6599   -1.2121   -0.2697 C   0  0  0  0  0  0  0  0  0  0  0  0
   -3.5239   -1.5922    0.7369 C   0  0  0  0  0  0  0  0  0  0  0  0
   -4.4766   -2.5838    0.5468 C   0  0  0  0  0  0  0  0  0  0  0  0
   -4.5995   -3.2296   -0.6541 C   0  0  0  0  0  0  0  0  0  0  0  0
   -3.7550   -2.8763   -1.6796 C   0  0  0  0  0  0  0  0  0  0  0  0
   -3.8132   -3.4685   -2.8980 F   0  0  0  0  0  0  0  0  0  0  0  0
   -2.8224   -1.8969   -1.4734 C   0  0  0  0  0  0  0  0  0  0  0  0
    5.0181   -1.5551    1.2148 H   0  0  0  0  0  0  0  0  0  0  0  0
    4.5174   -2.3600   -0.3744 H   0  0  0  0  0  0  0  0  0  0  0  0
    6.1579   -1.7327   -0.1284 H   0  0  0  0  0  0  0  0  0  0  0  0
    4.8041    1.3508    1.0423 H   0  0  0  0  0  0  0  0  0  0  0  0
    6.3132    0.3281    0.9837 H   0  0  0  0  0  0  0  0  0  0  0  0
    5.9797    1.5879   -0.3020 H   0  0  0  0  0  0  0  0  0  0  0  0
    5.0869    0.8550   -2.3073 H   0  0  0  0  0  0  0  0  0  0  0  0
    4.7875   -0.9060   -2.4340 H   0  0  0  0  0  0  0  0  0  0  0  0
    6.4039   -0.3635   -1.8921 H   0  0  0  0  0  0  0  0  0  0  0  0
    1.2743    0.5927   -1.6959 H   0  0  0  0  0  0  0  0  0  0  0  0
    0.1892    1.8493   -0.9485 H   0  0  0  0  0  0  0  0  0  0  0  0
   -1.0854    0.0740   -2.1356 H   0  0  0  0  0  0  0  0  0  0  0  0
   -0.1876   -1.1967   -1.1493 H   0  0  0  0  0  0  0  0  0  0  0  0
   -0.3630   -1.4980    0.9473 H   0  0  0  0  0  0  0  0  0  0  0  0
   -1.5178   -0.7410    2.0559 H   0  0  0  0  0  0  0  0  0  0  0  0
   -0.1314    1.5000    1.5997 H   0  0  0  0  0  0  0  0  0  0  0  0
    0.7266    0.1041    2.4246 H   0  0  0  0  0  0  0  0  0  0  0  0
   -2.6232    1.0245    2.2344 H   0  0  0  0  0  0  0  0  0  0  0  0
   -3.7520    3.1420    2.4704 H   0  0  0  0  0  0  0  0  0  0  0  0
   -4.1735    4.5717    0.5092 H   0  0  0  0  0  0  0  0  0  0  0  0
   -2.2956    1.6772   -1.9515 H   0  0  0  0  0  0  0  0  0  0  0  0
   -3.4867   -1.1297    1.7090 H   0  0  0  0  0  0  0  0  0  0  0  0
   -5.1411   -2.8654    1.3467 H   0  0  0  0  0  0  0  0  0  0  0  0
   -5.3288   -4.0090   -0.8458 H   0  0  0  0  0  0  0  0  0  0  0  0
   -2.1712   -1.6333   -2.2831 H   0  0  0  0  0  0  0  0  0  0  0  0
  1  2  1  0
  2  3  1  0
  2  4  1  0
  2  5  1  0
  5  6  1  0
  6  7  2  0
  6  8  1  0
  8  9  1  0
  9 10  1  0
 10 11  1  0
 11 12  1  0
 12 13  1  0
 11 14  1  0
 14 15  2  0
 15 16  1  0
 16 17  2  0
 17 18  1  0
 18 19  1  0
 18 20  2  0
 11 21  1  0
 21 22  2  0
 22 23  1  0
 23 24  2  0
 24 25  1  0
 25 26  1  0
 25 27  2  0
 13  8  1  0
 20 14  1  0
 27 21  1  0
  1 28  1  0
  1 29  1  0
  1 30  1  0
  3 31  1  0
  3 32  1  0
  3 33  1  0
  4 34  1  0
  4 35  1  0
  4 36  1  0
  9 37  1  0
  9 38  1  0
 10 39  1  0
 10 40  1  0
 12 41  1  0
 12 42  1  0
 13 43  1  0
 13 44  1  0
 15 45  1  0
 16 46  1  0
 17 47  1  0
 20 48  1  0
 22 49  1  0
 23 50  1  0
 24 51  1  0
 27 52  1  0
M  END
$$$$
[H]C#CC([H])([H])[N+]([H])(C([H])([H])[H])C([H])([H])C(=C([H])[H])c1c([H])c([H])c(F)c(Br)c1[H].[H]OC(=O)C(=O)[O-]
     RDKit          3D

 37 36  0  0  0  0  0  0  0  0999 V2000
   -1.2939   -0.1486   -0.7352 O   0  0  0  0  0  0  0  0  0  0  0  0
   -0.3604   -0.0204    0.2763 C   0  0  0  0  0  0  0  0  0  0  0  0
   -0.7565   -0.2395    1.4424 O   0  0  0  0  0  0  0  0  0  0  0  0
    0.9988    0.3539   -0.0683 C   0  0  0  0  0  0  0  0  0  0  0  0
    1.8975    0.4665    1.0104 O   0  0  0  0  0  0  0  0  0  0  0  0
    1.3963    0.5719   -1.2205 O   0  0  0  0  0  0  0  0  0  0  0  0
   -2.8164   -0.3962    1.4288 C   0  0  0  0  0  0  0  0  0  0  0  0
   -1.9968   -0.5802    0.2168 N   0  0  0  0  0  0  0  0  0  0  0  0
   -2.6150    0.1054   -0.9004 C   0  0  0  0  0  0  0  0  0  0  0  0
   -3.4106    1.2295   -0.3997 C   0  0  0  0  0  0  0  0  0  0  0  0
   -4.0812    2.1433    0.0185 C   0  0  0  0  0  0  0  0  0  0  0  0
   -0.6700   -0.1173    0.4781 C   0  0  0  0  0  0  0  0  0  0  0  0
    0.3497   -0.6529   -0.4265 C   0  0  0  0  0  0  0  0  0  0  0  0
    0.0513   -1.4765   -1.3795 C   0  0  0  0  0  0  0  0  0  0  0  0
    1.7622   -0.2454   -0.2498 C   0  0  0  0  0  0  0  0  0  0  0  0
    2.0655    0.6579    0.7801 C   0  0  0  0  0  0  0  0  0  0  0  0
    3.3572    1.0760    0.9981 C   0  0  0  0  0  0  0  0  0  0  0  0
    4.4036    0.6296    0.2203 C   0  0  0  0  0  0  0  0  0  0  0  0
    5.6778    1.0682    0.4672 F   0  0  0  0  0  0  0  0  0  0  0  0
    4.1184   -0.2519   -0.7872 C   0  0  0  0  0  0  0  0  0  0  0  0
    5.5335   -0.8907   -1.8816 Br  0  0  0  0  0  0  0  0  0  0  0  0
    2.8038   -0.6775   -1.0091 C   0  0  0  0  0  0  0  0  0  0  0  0
   -1.8818   -0.9838   -0.7051 H   0  0  0  0  0  0  0  0  0  0  0  0
   -2.5869    0.5556    1.9251 H   0  0  0  0  0  0  0  0  0  0  0  0
   -2.5011   -1.2033    2.1217 H   0  0  0  0  0  0  0  0  0  0  0  0
   -3.8626   -0.5531    1.1681 H   0  0  0  0  0  0  0  0  0  0  0  0
   -2.0311   -1.5980    0.0394 H   0  0  0  0  0  0  0  0  0  0  0  0
   -3.2979   -0.5444   -1.4669 H   0  0  0  0  0  0  0  0  0  0  0  0
   -1.8128    0.4606   -1.5704 H   0  0  0  0  0  0  0  0  0  0  0  0
   -4.6703    2.9532    0.4061 H   0  0  0  0  0  0  0  0  0  0  0  0
   -0.6344    1.0010    0.5457 H   0  0  0  0  0  0  0  0  0  0  0  0
   -0.4480   -0.4262    1.5530 H   0  0  0  0  0  0  0  0  0  0  0  0
   -0.9793   -1.7899   -1.5270 H   0  0  0  0  0  0  0  0  0  0  0  0
    0.8090   -1.8869   -2.0677 H   0  0  0  0  0  0  0  0  0  0  0  0
    1.2556    1.0144    1.3955 H   0  0  0  0  0  0  0  0  0  0  0  0
    3.5924    1.7759    1.7961 H   0  0  0  0  0  0  0  0  0  0  0  0
    2.6341   -1.3799   -1.8240 H   0  0  0  0  0  0  0  0  0  0  0  0
  1  2  1  0
  2  3  2  0
  2  4  1  0
  4  5  1  0
  4  6  2  0
  7  8  1  0
  8  9  1  0
  9 10  1  0
 10 11  3  0
  8 12  1  0
 12 13  1  0
 13 14  2  3
 13 15  1  0
 15 16  2  0
 16 17  1  0
 17 18  2  0
 18 19  1  0
 18 20  1  0
 20 21  1  0
 20 22  2  0
 22 15  1  0
  1 23  1  0
  7 24  1  0
  7 25  1  0
  7 26  1  0
  8 27  1  0
  9 28  1  0
  9 29  1  0
 11 30  1  0
 12 31  1  0
 12 32  1  0
 14 33  1  0
 14 34  1  0
 16 35  1  0
 17 36  1  0
 22 37  1  0
M  CHG  2   5  -1   8   1
M  END
$$$$
[H]c1nc(N([H])c2c([H])c([H])c3c(c2[H])C(=O)N(C([H])([H])[H])C3=O)c2c([H])c(OC([H])([H])[H])c(OC([H])([H])[H])c([H])c2n1
     RDKit          3D

 43 46  0  0  0  0  0  0  0  0999 V2000
    1.6252   -0.2145    0.5402 C   0  0  0  0  0  0  0  0  0  0  0  0
    0.1976   -0.1560    0.5537 N   0  0  0  0  0  0  0  0  0  0  0  0
   -0.5739    0.4495   -0.4483 C   0  0  0  0  0  0  0  0  0  0  0  0
   -1.9709    0.4182   -0.3613 C   0  0  0  0  0  0  0  0  0  0  0  0
   -2.6650    1.0633   -1.3614 C   0  0  0  0  0  0  0  0  0  0  0  0
   -4.0544    1.0431   -1.2957 C   0  0  0  0  0  0  0  0  0  0  0  0
   -4.7031    0.3952   -0.2586 C   0  0  0  0  0  0  0  0  0  0  0  0
   -6.0845    0.3898   -0.2165 O   0  0  0  0  0  0  0  0  0  0  0  0
   -6.8837    1.0254   -1.1990 C   0  0  0  0  0  0  0  0  0  0  0  0
   -4.0193   -0.2486    0.7394 C   0  0  0  0  0  0  0  0  0  0  0  0
   -4.7088   -0.8821    1.7546 O   0  0  0  0  0  0  0  0  0  0  0  0
   -3.9551   -1.5449    2.7811 C   0  0  0  0  0  0  0  0  0  0  0  0
   -2.6187   -0.2274    0.6717 C   0  0  0  0  0  0  0  0  0  0  0  0
   -2.0473    1.7029   -2.3886 N   0  0  0  0  0  0  0  0  0  0  0  0
   -0.7074    1.7275   -2.4642 C   0  0  0  0  0  0  0  0  0  0  0  0
   -0.0363    1.1037   -1.4966 N   0  0  0  0  0  0  0  0  0  0  0  0
    2.2557   -0.2932    1.7961 C   0  0  0  0  0  0  0  0  0  0  0  0
    3.6182   -0.3842    1.9358 C   0  0  0  0  0  0  0  0  0  0  0  0
    4.3923   -0.3983    0.7946 C   0  0  0  0  0  0  0  0  0  0  0  0
    3.7864   -0.3223   -0.4387 C   0  0  0  0  0  0  0  0  0  0  0  0
    2.3995   -0.2299   -0.5865 C   0  0  0  0  0  0  0  0  0  0  0  0
    4.8180   -0.3565   -1.4526 C   0  0  0  0  0  0  0  0  0  0  0  0
    4.7065   -0.3113   -2.7011 O   0  0  0  0  0  0  0  0  0  0  0  0
    6.0825   -0.4571   -0.7796 N   0  0  0  0  0  0  0  0  0  0  0  0
    7.3794   -0.5195   -1.4137 C   0  0  0  0  0  0  0  0  0  0  0  0
    5.8519   -0.4853    0.6190 C   0  0  0  0  0  0  0  0  0  0  0  0
    6.7128   -0.5685    1.5551 O   0  0  0  0  0  0  0  0  0  0  0  0
   -0.2934   -0.6038    1.3832 H   0  0  0  0  0  0  0  0  0  0  0  0
   -4.5883    1.5590   -2.0957 H   0  0  0  0  0  0  0  0  0  0  0  0
   -6.8502    2.1313   -1.1235 H   0  0  0  0  0  0  0  0  0  0  0  0
   -7.9158    0.6584   -1.1954 H   0  0  0  0  0  0  0  0  0  0  0  0
   -6.4633    0.7660   -2.2109 H   0  0  0  0  0  0  0  0  0  0  0  0
   -3.3499   -2.3213    2.2300 H   0  0  0  0  0  0  0  0  0  0  0  0
   -3.2399   -0.8493    3.2199 H   0  0  0  0  0  0  0  0  0  0  0  0
   -4.6057   -2.0695    3.4841 H   0  0  0  0  0  0  0  0  0  0  0  0
   -2.1064   -0.7436    1.4680 H   0  0  0  0  0  0  0  0  0  0  0  0
   -0.2366    2.2425   -3.2908 H   0  0  0  0  0  0  0  0  0  0  0  0
    1.6223   -0.2798    2.6837 H   0  0  0  0  0  0  0  0  0  0  0  0
    4.0688   -0.4435    2.9269 H   0  0  0  0  0  0  0  0  0  0  0  0
    1.9767   -0.1919   -1.5711 H   0  0  0  0  0  0  0  0  0  0  0  0
    7.7170    0.4916   -1.7389 H   0  0  0  0  0  0  0  0  0  0  0  0
    7.3467   -1.1722   -2.3252 H   0  0  0  0  0  0  0  0  0  0  0  0
    8.1205   -0.8924   -0.6958 H   0  0  0  0  0  0  0  0  0  0  0  0
  1  2  1  0
  2  3  1  0
  3  4  1  0
  4  5  1  0
  5  6  2  0
  6  7  1  0
  7  8  1  0
  8  9  1  0
  7 10  2  0
 10 11  1  0
 11 12  1  0
 10 13  1  0
  5 14  1  0
 14 15  2  0
 15 16  1  0
  1 17  2  0
 17 18  1  0
 18 19  2  0
 19 20  1  0
 20 21  2  0
 20 22  1  0
 22 23  2  0
 22 24  1  0
 24 25  1  0
 24 26  1  0
 26 27  2  0
 21  1  1  0
 16  3  2  0
 26 19  1  0
 13  4  2  0
  2 28  1  0
  6 29  1  0
  9 30  1  0
  9 31  1  0
  9 32  1  0
 12 33  1  0
 12 34  1  0
 12 35  1  0
 13 36  1  0
 15 37  1  0
 17 38  1  0
 18 39  1  0
 21 40  1  0
 25 41  1  0
 25 42  1  0
 25 43  1  0
M  END
$$$$
[H]OC([H])([H])C([H])(N([H])[H])C([H])([H])c1c(-c2nnn(C([H])([H])[H])n2)on([H])c1=O
     RDKit          3D

 29 30  0  0  0  0  0  0  0  0999 V2000
    5.2806    0.8494    0.3294 C   0  0  0  0  0  0  0  0  0  0  0  0
    3.8528    0.6499    0.1938 N   0  0  0  0  0  0  0  0  0  0  0  0
    2.9156    1.5480   -0.0379 N   0  0  0  0  0  0  0  0  0  0  0  0
    1.7589    0.9135   -0.0846 N   0  0  0  0  0  0  0  0  0  0  0  0
    1.9470   -0.3964    0.1170 C   0  0  0  0  0  0  0  0  0  0  0  0
    3.2551   -0.5473    0.2891 N   0  0  0  0  0  0  0  0  0  0  0  0
    0.9051   -1.4061    0.1308 C   0  0  0  0  0  0  0  0  0  0  0  0
    1.1082   -2.6987    0.3295 O   0  0  0  0  0  0  0  0  0  0  0  0
    0.0148   -3.3623    0.2884 N   0  0  0  0  0  0  0  0  0  0  0  0
   -1.0062   -2.4867    0.0483 C   0  0  0  0  0  0  0  0  0  0  0  0
   -2.2173   -2.7557   -0.0619 O   0  0  0  0  0  0  0  0  0  0  0  0
   -0.4737   -1.2335   -0.0565 C   0  0  0  0  0  0  0  0  0  0  0  0
   -1.0381    0.0693   -0.3036 C   0  0  0  0  0  0  0  0  0  0  0  0
   -2.4973    0.2232   -0.4408 C   0  0  0  0  0  0  0  0  0  0  0  0
   -3.2851   -0.1540    0.7143 N   0  0  0  0  0  0  0  0  0  0  0  0
   -2.7642    1.7240   -0.6450 C   0  0  0  0  0  0  0  0  0  0  0  0
   -4.1069    1.9631   -0.8705 O   0  0  0  0  0  0  0  0  0  0  0  0
    5.6132    1.4186   -0.5697 H   0  0  0  0  0  0  0  0  0  0  0  0
    5.8388   -0.0947    0.3658 H   0  0  0  0  0  0  0  0  0  0  0  0
    5.5430    1.4865    1.1968 H   0  0  0  0  0  0  0  0  0  0  0  0
   -0.1877   -4.3832    0.4015 H   0  0  0  0  0  0  0  0  0  0  0  0
   -0.7212    0.8444    0.4709 H   0  0  0  0  0  0  0  0  0  0  0  0
   -0.5762    0.4691   -1.2528 H   0  0  0  0  0  0  0  0  0  0  0  0
   -2.9150   -0.2704   -1.3472 H   0  0  0  0  0  0  0  0  0  0  0  0
   -3.1211    0.4411    1.5322 H   0  0  0  0  0  0  0  0  0  0  0  0
   -4.2869   -0.1667    0.3889 H   0  0  0  0  0  0  0  0  0  0  0  0
   -2.4527    2.3063    0.2563 H   0  0  0  0  0  0  0  0  0  0  0  0
   -2.1980    2.1281   -1.5036 H   0  0  0  0  0  0  0  0  0  0  0  0
   -4.1855    2.9209   -1.1096 H   0  0  0  0  0  0  0  0  0  0  0  0
  1  2  1  0
  2  3  1  0
  3  4  2  0
  4  5  1  0
  5  6  2  0
  5  7  1  0
  7  8  1  0
  8  9  1  0
  9 10  1  0
 10 11  2  0
 10 12  1  0
 12 13  1  0
 13 14  1  0
 14 15  1  0
 14 16  1  0
 16 17  1  0
  6  2  1  0
 12  7  2  0
  1 18  1  0
  1 19  1  0
  1 20  1  0
  9 21  1  0
 13 22  1  0
 13 23  1  0
 14 24  1  0
 15 25  1  0
 15 26  1  0
 16 27  1  0
 16 28  1  0
 17 29  1  0
M  END
$$$$
[H]c1nc(C([H])([H])n2c(C([H])([H])C([H])([H])[H])nc3c([H])c([H])c([H])c([H])c32)sc1[H]
     RDKit          3D

 30 32  0  0  0  0  0  0  0  0999 V2000
   -2.1644   -3.0362   -0.3626 C   0  0  0  0  0  0  0  0  0  0  0  0
   -0.9812   -2.3827    0.3373 C   0  0  0  0  0  0  0  0  0  0  0  0
   -1.0644   -0.9060    0.2008 C   0  0  0  0  0  0  0  0  0  0  0  0
   -2.0621   -0.2579   -0.4660 N   0  0  0  0  0  0  0  0  0  0  0  0
   -1.8375    1.0546   -0.3929 C   0  0  0  0  0  0  0  0  0  0  0  0
   -2.5326    2.1633   -0.8922 C   0  0  0  0  0  0  0  0  0  0  0  0
   -2.0673    3.4468   -0.6649 C   0  0  0  0  0  0  0  0  0  0  0  0
   -0.9055    3.5983    0.0638 C   0  0  0  0  0  0  0  0  0  0  0  0
   -0.2285    2.5000    0.5510 C   0  0  0  0  0  0  0  0  0  0  0  0
   -0.6780    1.2064    0.3343 C   0  0  0  0  0  0  0  0  0  0  0  0
   -0.2030   -0.0076    0.6995 N   0  0  0  0  0  0  0  0  0  0  0  0
    0.9888   -0.2803    1.4667 C   0  0  0  0  0  0  0  0  0  0  0  0
    2.2095   -0.4342    0.6102 C   0  0  0  0  0  0  0  0  0  0  0  0
    2.7351   -1.5109    0.0619 N   0  0  0  0  0  0  0  0  0  0  0  0
    3.8088   -1.4269   -0.6524 C   0  0  0  0  0  0  0  0  0  0  0  0
    4.3726   -0.1859   -0.8148 C   0  0  0  0  0  0  0  0  0  0  0  0
    3.2962    0.7944    0.0905 S   0  0  0  0  0  0  0  0  0  0  0  0
   -3.0076   -3.0983    0.3564 H   0  0  0  0  0  0  0  0  0  0  0  0
   -1.9054   -4.0209   -0.7831 H   0  0  0  0  0  0  0  0  0  0  0  0
   -2.4842   -2.3163   -1.1680 H   0  0  0  0  0  0  0  0  0  0  0  0
   -1.0506   -2.6976    1.4024 H   0  0  0  0  0  0  0  0  0  0  0  0
   -0.0268   -2.7592   -0.0672 H   0  0  0  0  0  0  0  0  0  0  0  0
   -3.4377    2.0168   -1.4583 H   0  0  0  0  0  0  0  0  0  0  0  0
   -2.6202    4.3007   -1.0605 H   0  0  0  0  0  0  0  0  0  0  0  0
   -0.5354    4.5974    0.2458 H   0  0  0  0  0  0  0  0  0  0  0  0
    0.6925    2.5891    1.1303 H   0  0  0  0  0  0  0  0  0  0  0  0
    1.2307    0.5362    2.1852 H   0  0  0  0  0  0  0  0  0  0  0  0
    0.8997   -1.2427    2.0264 H   0  0  0  0  0  0  0  0  0  0  0  0
    4.2769   -2.3159   -1.1284 H   0  0  0  0  0  0  0  0  0  0  0  0
    5.2816    0.0755   -1.3858 H   0  0  0  0  0  0  0  0  0  0  0  0
  1  2  1  0
  2  3  1  0
  3  4  2  0
  4  5  1  0
  5  6  2  0
  6  7  1  0
  7  8  2  0
  8  9  1  0
  9 10  2  0
 10 11  1  0
 11 12  1  0
 12 13  1  0
 13 14  2  0
 14 15  1  0
 15 16  2  0
 16 17  1  0
 11  3  1  0
 17 13  1  0
 10  5  1  0
  1 18  1  0
  1 19  1  0
  1 20  1  0
  2 21  1  0
  2 22  1  0
  6 23  1  0
  7 24  1  0
  8 25  1  0
  9 26  1  0
 12 27  1  0
 12 28  1  0
 15 29  1  0
 16 30  1  0
M  END
$$$$
[H]N=C(c1c([H])c([H])c([H])c(C(=O)[C@]([H])(N([H])[H])C([H])([H])C([H])([H])C([H])([H])C([H])([H])N([H])C(=O)[C@]([H])(N([H])C(=O)C([H])([H])c2c([H])c([H])c(C(=O)N3C([H])([H])C([H])([H])N(C([H])([H])[H])C([H])([H])C([H])([H])C3([H])[H])c([H])c2[H])C([H])([H])c2c([H])c([H])c([H])c([H])c2[H])c1[H])N([H])[H]
     RDKit          3D

 95 98  0  0  0  0  0  0  0  0999 V2000
    8.1717    0.3328    1.0895 N   0  0  0  0  0  0  0  0  0  0  0  0
    7.7486   -0.6192    0.1159 C   0  0  2  0  0  0  0  0  0  0  0  0
    6.2276   -0.7275   -0.0358 C   0  0  0  0  0  0  0  0  0  0  0  0
    5.6123    0.5632   -0.4486 C   0  0  0  0  0  0  0  0  0  0  0  0
    4.1114    0.4022   -0.6493 C   0  0  0  0  0  0  0  0  0  0  0  0
    3.4769   -0.0240    0.6342 C   0  0  0  0  0  0  0  0  0  0  0  0
    2.0815   -0.2216    0.5553 N   0  0  0  0  0  0  0  0  0  0  0  0
    1.1243    0.7079    0.1912 C   0  0  0  0  0  0  0  0  0  0  0  0
    1.4792    1.8759   -0.1654 O   0  0  0  0  0  0  0  0  0  0  0  0
   -0.3316    0.4439    0.1914 C   0  0  1  0  0  0  0  0  0  0  0  0
   -0.7240    0.3688    1.6697 C   0  0  0  0  0  0  0  0  0  0  0  0
   -0.3589    1.5460    2.4631 C   0  0  0  0  0  0  0  0  0  0  0  0
    0.8393    1.4551    3.2055 C   0  0  0  0  0  0  0  0  0  0  0  0
    1.2615    2.5276    3.9553 C   0  0  0  0  0  0  0  0  0  0  0  0
    0.5332    3.6894    3.9926 C   0  0  0  0  0  0  0  0  0  0  0  0
   -0.6200    3.7741    3.2776 C   0  0  0  0  0  0  0  0  0  0  0  0
   -1.0786    2.7039    2.5055 C   0  0  0  0  0  0  0  0  0  0  0  0
   -1.2195    1.0209   -0.6567 N   0  0  0  0  0  0  0  0  0  0  0  0
   -2.1061    1.5941   -1.5122 C   0  0  0  0  0  0  0  0  0  0  0  0
   -2.2519    1.3189   -2.7593 O   0  0  0  0  0  0  0  0  0  0  0  0
   -3.0947    2.6748   -1.0855 C   0  0  0  0  0  0  0  0  0  0  0  0
   -4.3780    1.9385   -0.8589 C   0  0  0  0  0  0  0  0  0  0  0  0
   -5.2418    1.6325   -1.8466 C   0  0  0  0  0  0  0  0  0  0  0  0
   -6.4080    0.9103   -1.5379 C   0  0  0  0  0  0  0  0  0  0  0  0
   -6.7083    0.5020   -0.2798 C   0  0  0  0  0  0  0  0  0  0  0  0
   -5.7577    0.8556    0.7116 C   0  0  0  0  0  0  0  0  0  0  0  0
   -4.6204    1.5555    0.4365 C   0  0  0  0  0  0  0  0  0  0  0  0
   -7.8883   -0.1959    0.1584 C   0  0  0  0  0  0  0  0  0  0  0  0
   -7.7135   -0.6997    1.3892 O   0  0  0  0  0  0  0  0  0  0  0  0
   -9.1299   -0.4644   -0.3740 N   0  0  0  0  0  0  0  0  0  0  0  0
   -9.9529   -1.3464    0.5424 C   0  0  0  0  0  0  0  0  0  0  0  0
   -9.9831   -2.6580   -0.2310 C   0  0  0  0  0  0  0  0  0  0  0  0
  -11.1652   -2.7385   -1.1299 C   0  0  0  0  0  0  0  0  0  0  0  0
  -11.2550   -1.7622   -2.1713 N   0  0  0  0  0  0  0  0  0  0  0  0
  -12.4472   -0.9394   -2.0202 C   0  0  0  0  0  0  0  0  0  0  0  0
  -10.0786   -1.0735   -2.5340 C   0  0  0  0  0  0  0  0  0  0  0  0
   -9.6363    0.0394   -1.5925 C   0  0  0  0  0  0  0  0  0  0  0  0
    8.3334   -1.9727    0.2762 C   0  0  0  0  0  0  0  0  0  0  0  0
    7.6117   -2.9299    0.6133 O   0  0  0  0  0  0  0  0  0  0  0  0
    9.7619   -2.1729    0.0284 C   0  0  0  0  0  0  0  0  0  0  0  0
   10.2903   -3.4311    0.1952 C   0  0  0  0  0  0  0  0  0  0  0  0
   11.6305   -3.6677   -0.0659 C   0  0  0  0  0  0  0  0  0  0  0  0
   12.4433   -2.6172   -0.5000 C   0  0  0  0  0  0  0  0  0  0  0  0
   11.9490   -1.3490   -0.6769 C   0  0  0  0  0  0  0  0  0  0  0  0
   10.5904   -1.1864   -0.3947 C   0  0  0  0  0  0  0  0  0  0  0  0
   12.7389   -0.2314   -1.1448 C   0  0  0  0  0  0  0  0  0  0  0  0
   12.1287    1.0364   -1.2584 N   0  0  0  0  0  0  0  0  0  0  0  0
   13.9608   -0.3637   -1.4635 N   0  0  0  0  0  0  0  0  0  0  0  0
    9.0992    0.0121    1.5013 H   0  0  0  0  0  0  0  0  0  0  0  0
    8.3381    1.2853    0.7666 H   0  0  0  0  0  0  0  0  0  0  0  0
    8.0680   -0.1819   -0.8925 H   0  0  0  0  0  0  0  0  0  0  0  0
    5.8806   -1.1346    0.9327 H   0  0  0  0  0  0  0  0  0  0  0  0
    5.9885   -1.4938   -0.8236 H   0  0  0  0  0  0  0  0  0  0  0  0
    5.8115    1.3867    0.2785 H   0  0  0  0  0  0  0  0  0  0  0  0
    6.0275    0.8637   -1.4216 H   0  0  0  0  0  0  0  0  0  0  0  0
    3.9394   -0.2928   -1.4960 H   0  0  0  0  0  0  0  0  0  0  0  0
    3.7368    1.4278   -0.9254 H   0  0  0  0  0  0  0  0  0  0  0  0
    3.9863   -0.9667    1.0399 H   0  0  0  0  0  0  0  0  0  0  0  0
    3.7432    0.7899    1.3871 H   0  0  0  0  0  0  0  0  0  0  0  0
    1.7429   -1.2250    0.8054 H   0  0  0  0  0  0  0  0  0  0  0  0
   -0.3123   -0.7197   -0.0622 H   0  0  0  0  0  0  0  0  0  0  0  0
   -1.8493    0.2981    1.7327 H   0  0  0  0  0  0  0  0  0  0  0  0
   -0.3336   -0.5350    2.1568 H   0  0  0  0  0  0  0  0  0  0  0  0
    1.4355    0.5569    3.2383 H   0  0  0  0  0  0  0  0  0  0  0  0
    2.1894    2.4987    4.5597 H   0  0  0  0  0  0  0  0  0  0  0  0
    0.8957    4.5404    4.6044 H   0  0  0  0  0  0  0  0  0  0  0  0
   -1.2104    4.6996    3.2956 H   0  0  0  0  0  0  0  0  0  0  0  0
   -2.0132    2.8242    1.9499 H   0  0  0  0  0  0  0  0  0  0  0  0
   -0.6742    0.3352   -1.6980 H   0  0  0  0  0  0  0  0  0  0  0  0
   -3.2654    3.3642   -1.9334 H   0  0  0  0  0  0  0  0  0  0  0  0
   -2.7571    3.2553   -0.2514 H   0  0  0  0  0  0  0  0  0  0  0  0
   -5.0959    1.9055   -2.8714 H   0  0  0  0  0  0  0  0  0  0  0  0
   -7.0321    0.6653   -2.3668 H   0  0  0  0  0  0  0  0  0  0  0  0
   -5.9488    0.5568    1.7156 H   0  0  0  0  0  0  0  0  0  0  0  0
   -3.9512    1.7786    1.2368 H   0  0  0  0  0  0  0  0  0  0  0  0
  -10.9342   -0.9212    0.6703 H   0  0  0  0  0  0  0  0  0  0  0  0
   -9.4241   -1.5113    1.4761 H   0  0  0  0  0  0  0  0  0  0  0  0
   -9.0044   -2.8125   -0.7274 H   0  0  0  0  0  0  0  0  0  0  0  0
  -10.0538   -3.4600    0.5283 H   0  0  0  0  0  0  0  0  0  0  0  0
  -11.2486   -3.7507   -1.5206 H   0  0  0  0  0  0  0  0  0  0  0  0
  -12.0636   -2.5692   -0.4550 H   0  0  0  0  0  0  0  0  0  0  0  0
  -12.3691   -0.2216   -1.2036 H   0  0  0  0  0  0  0  0  0  0  0  0
  -12.6609   -0.4530   -2.9702 H   0  0  0  0  0  0  0  0  0  0  0  0
  -13.2908   -1.6375   -1.7513 H   0  0  0  0  0  0  0  0  0  0  0  0
  -10.1887   -0.6068   -3.5369 H   0  0  0  0  0  0  0  0  0  0  0  0
   -9.2564   -1.7903   -2.6034 H   0  0  0  0  0  0  0  0  0  0  0  0
   -9.0086    0.7273   -2.1041 H   0  0  0  0  0  0  0  0  0  0  0  0
  -10.5811    0.6783   -1.3478 H   0  0  0  0  0  0  0  0  0  0  0  0
    9.6905   -4.2693    0.5292 H   0  0  0  0  0  0  0  0  0  0  0  0
   12.0738   -4.6503    0.0586 H   0  0  0  0  0  0  0  0  0  0  0  0
   13.4722   -2.8548   -0.6953 H   0  0  0  0  0  0  0  0  0  0  0  0
   10.2014   -0.1897   -0.5424 H   0  0  0  0  0  0  0  0  0  0  0  0
   12.0976    1.5018   -2.1816 H   0  0  0  0  0  0  0  0  0  0  0  0
   11.7181    1.4907   -0.4337 H   0  0  0  0  0  0  0  0  0  0  0  0
   14.4351   -1.2720   -1.3997 H   0  0  0  0  0  0  0  0  0  0  0  0
  1  2  1  0
  2  3  1  0
  3  4  1  0
  4  5  1  0
  5  6  1  0
  6  7  1  0
  7  8  1  0
  8  9  2  0
  8 10  1  0
 10 11  1  0
 11 12  1  0
 12 13  2  0
 13 14  1  0
 14 15  2  0
 15 16  1  0
 16 17  2  0
 10 18  1  0
 18 19  1  0
 19 20  2  0
 19 21  1  0
 21 22  1  0
 22 23  2  0
 23 24  1  0
 24 25  2  0
 25 26  1  0
 26 27  2  0
 25 28  1  0
 28 29  2  0
 28 30  1  0
 30 31  1  0
 31 32  1  0
 32 33  1  0
 33 34  1  0
 34 35  1  0
 34 36  1  0
 36 37  1  0
  2 38  1  0
 38 39  2  0
 38 40  1  0
 40 41  2  0
 41 42  1  0
 42 43  2  0
 43 44  1  0
 44 45  2  0
 44 46  1  0
 46 47  1  0
 46 48  2  3
 17 12  1  0
 27 22  1  0
 37 30  1  0
 45 40  1  0
  1 49  1  0
  1 50  1  0
  2 51  1  6
  3 52  1  0
  3 53  1  0
  4 54  1  0
  4 55  1  0
  5 56  1  0
  5 57  1  0
  6 58  1  0
  6 59  1  0
  7 60  1  0
 10 61  1  6
 11 62  1  0
 11 63  1  0
 13 64  1  0
 14 65  1  0
 15 66  1  0
 16 67  1  0
 17 68  1  0
 18 69  1  0
 21 70  1  0
 21 71  1  0
 23 72  1  0
 24 73  1  0
 26 74  1  0
 27 75  1  0
 31 76  1  0
 31 77  1  0
 32 78  1  0
 32 79  1  0
 33 80  1  0
 33 81  1  0
 35 82  1  0
 35 83  1  0
 35 84  1  0
 36 85  1  0
 36 86  1  0
 37 87  1  0
 37 88  1  0
 41 89  1  0
 42 90  1  0
 43 91  1  0
 45 92  1  0
 47 93  1  0
 47 94  1  0
 48 95  1  0
M  END
$$$$
[H]OC(=O)C([H])([H])[C@@]1([H])C([H])([H])c2c([H])c([H])c(C(=O)N([H])[C@]3([H])C([H])([H])[C@@]4([H])[C@@]([H])(c5c([H])c([H])c([H])c([H])c5[H])C([H])([H])[C@@]43[H])c([H])c2C1([H])[H]
     RDKit          2D

 53 57  0  0  0  0  0  0  0  0999 V2000
   -4.3764    3.7611    0.0000 O   0  0  0  0  0  0  0  0  0  0  0  0
   -2.9499    4.2246    0.0000 C   0  0  0  0  0  0  0  0  0  0  0  0
   -2.6380    5.6918    0.0000 N   0  0  0  0  0  0  0  0  0  0  0  0
   -3.7527    6.6955    0.0000 C   0  0  0  0  0  0  0  0  0  0  0  0
   -2.7490    7.8102    0.0000 C   0  0  0  0  0  0  0  0  0  0  0  0
   -3.8637    8.8139    0.0000 C   0  0  0  0  0  0  0  0  0  0  0  0
   -4.8674    7.6992    0.0000 C   0  0  0  0  0  0  0  0  0  0  0  0
   -5.9821    8.7029    0.0000 C   0  0  0  0  0  0  0  0  0  0  0  0
   -4.9784    9.8176    0.0000 C   0  0  0  0  0  0  0  0  0  0  0  0
   -3.9747   10.9324    0.0000 C   0  0  0  0  0  0  0  0  0  0  0  0
   -2.5075   10.6205    0.0000 C   0  0  0  0  0  0  0  0  0  0  0  0
   -1.5038   11.7352    0.0000 C   0  0  0  0  0  0  0  0  0  0  0  0
   -1.9674   13.1618    0.0000 C   0  0  0  0  0  0  0  0  0  0  0  0
   -3.4346   13.4737    0.0000 C   0  0  0  0  0  0  0  0  0  0  0  0
   -4.4383   12.3589    0.0000 C   0  0  0  0  0  0  0  0  0  0  0  0
   -1.8351    3.2209    0.0000 C   0  0  0  0  0  0  0  0  0  0  0  0
   -2.1470    1.7537    0.0000 C   0  0  0  0  0  0  0  0  0  0  0  0
   -1.0323    0.7500    0.0000 C   0  0  0  0  0  0  0  0  0  0  0  0
    0.3943    1.2135    0.0000 C   0  0  0  0  0  0  0  0  0  0  0  0
    0.7062    2.6807    0.0000 C   0  0  0  0  0  0  0  0  0  0  0  0
   -0.4086    3.6844    0.0000 C   0  0  0  0  0  0  0  0  0  0  0  0
    1.2760    0.0000    0.0000 C   0  0  0  0  0  0  0  0  0  0  0  0
    0.3943   -1.2135    0.0000 C   0  0  0  0  0  0  0  0  0  0  0  0
    1.6933   -1.9635    0.0000 C   0  0  0  0  0  0  0  0  0  0  0  0
    2.9924   -2.7135    0.0000 C   0  0  0  0  0  0  0  0  0  0  0  0
    4.2914   -1.9635    0.0000 O   0  0  0  0  0  0  0  0  0  0  0  0
    2.9924   -4.2135    0.0000 O   0  0  0  0  0  0  0  0  0  0  0  0
   -1.0323   -0.7500    0.0000 C   0  0  0  0  0  0  0  0  0  0  0  0
   -1.1655    5.9780    0.0000 H   0  0  0  0  0  0  0  0  0  0  0  0
   -4.7564    5.5808    0.0000 H   0  0  0  0  0  0  0  0  0  0  0  0
   -1.8320    8.6073    0.0000 H   0  0  0  0  0  0  0  0  0  0  0  0
   -1.5203    6.9499    0.0000 H   0  0  0  0  0  0  0  0  0  0  0  0
   -2.9571    9.4254    0.0000 H   0  0  0  0  0  0  0  0  0  0  0  0
   -5.8711    6.5845    0.0000 H   0  0  0  0  0  0  0  0  0  0  0  0
   -7.0969    9.7066    0.0000 H   0  0  0  0  0  0  0  0  0  0  0  0
   -6.9858    7.5882    0.0000 H   0  0  0  0  0  0  0  0  0  0  0  0
   -6.0932   10.8213    0.0000 H   0  0  0  0  0  0  0  0  0  0  0  0
   -2.1332    9.8178    0.0000 H   0  0  0  0  0  0  0  0  0  0  0  0
   -0.0366   11.4233    0.0000 H   0  0  0  0  0  0  0  0  0  0  0  0
   -0.9637   14.2765    0.0000 H   0  0  0  0  0  0  0  0  0  0  0  0
   -3.8981   14.9002    0.0000 H   0  0  0  0  0  0  0  0  0  0  0  0
   -5.9055   12.6708    0.0000 H   0  0  0  0  0  0  0  0  0  0  0  0
   -3.5736    1.2902    0.0000 H   0  0  0  0  0  0  0  0  0  0  0  0
    2.1328    3.1443    0.0000 H   0  0  0  0  0  0  0  0  0  0  0  0
   -0.0967    5.1517    0.0000 H   0  0  0  0  0  0  0  0  0  0  0  0
    2.3907    1.0037    0.0000 H   0  0  0  0  0  0  0  0  0  0  0  0
    1.9290   -0.4572    0.0000 H   0  0  0  0  0  0  0  0  0  0  0  0
   -0.2158   -2.5838    0.0000 H   0  0  0  0  0  0  0  0  0  0  0  0
    2.1731   -1.3269    0.0000 H   0  0  0  0  0  0  0  0  0  0  0  0
    0.9433   -3.2626    0.0000 H   0  0  0  0  0  0  0  0  0  0  0  0
    5.5905   -2.7135    0.0000 H   0  0  0  0  0  0  0  0  0  0  0  0
   -1.3442   -2.2172    0.0000 H   0  0  0  0  0  0  0  0  0  0  0  0
   -2.5241   -0.5932    0.0000 H   0  0  0  0  0  0  0  0  0  0  0  0
  1  2  2  0
  2  3  1  0
  3  4  1  0
  4  5  1  0
  5  6  1  0
  6  7  1  0
  7  8  1  0
  8  9  1  0
  9 10  1  0
 10 11  2  0
 11 12  1  0
 12 13  2  0
 13 14  1  0
 14 15  2  0
  2 16  1  0
 16 17  2  0
 17 18  1  0
 18 19  2  0
 19 20  1  0
 20 21  2  0
 19 22  1  0
 22 23  1  0
 23 24  1  0
 24 25  1  0
 25 26  1  0
 25 27  2  0
 23 28  1  0
  7  4  1  0
 15 10  1  0
 21 16  1  0
  9  6  1  0
 28 18  1  0
  3 29  1  0
  4 30  1  6
  5 31  1  0
  5 32  1  0
  6 33  1  1
  7 34  1  6
  8 35  1  0
  8 36  1  0
  9 37  1  1
 11 38  1  0
 12 39  1  0
 13 40  1  0
 14 41  1  0
 15 42  1  0
 17 43  1  0
 20 44  1  0
 21 45  1  0
 22 46  1  0
 22 47  1  0
 23 48  1  1
 24 49  1  0
 24 50  1  0
 26 51  1  0
 28 52  1  0
 28 53  1  0
M  END
$$$$
[H]c1nc(-c2c([H])c3c([H])c(Oc4c([H])nc(S(=O)(=O)C([H])([H])[H])c([H])c4[H])c(C4([H])N(C([H])([H])[H])C(=O)C([H])([H])C4([H])[H])c([H])c3n2[H])c([H])c([H])c1F
     RDKit          3D

 55 59  0  0  0  0  0  0  0  0999 V2000
    1.7340   -4.8329    0.3083 C   0  0  0  0  0  0  0  0  0  0  0  0
    0.4292   -4.3399    0.5226 N   0  0  0  0  0  0  0  0  0  0  0  0
   -0.3195   -3.1048    0.3893 C   0  0  0  0  0  0  0  0  0  0  0  0
   -1.2974   -3.6939   -0.6817 C   0  0  0  0  0  0  0  0  0  0  0  0
   -1.9225   -4.7401    0.2867 C   0  0  0  0  0  0  0  0  0  0  0  0
   -0.6591   -5.2668    0.9244 C   0  0  0  0  0  0  0  0  0  0  0  0
   -0.5667   -6.2770    1.6377 O   0  0  0  0  0  0  0  0  0  0  0  0
    0.3128   -1.8928    0.0062 C   0  0  0  0  0  0  0  0  0  0  0  0
    1.5943   -1.6946   -0.3812 C   0  0  0  0  0  0  0  0  0  0  0  0
    2.1515   -0.4063   -0.5790 C   0  0  0  0  0  0  0  0  0  0  0  0
    3.3808    0.0369   -0.9125 N   0  0  0  0  0  0  0  0  0  0  0  0
    3.3695    1.3988   -0.9254 C   0  0  0  0  0  0  0  0  0  0  0  0
    2.1213    1.8414   -0.5952 C   0  0  0  0  0  0  0  0  0  0  0  0
    1.3691    0.7144   -0.3785 C   0  0  0  0  0  0  0  0  0  0  0  0
    0.0557    0.5359    0.0175 C   0  0  0  0  0  0  0  0  0  0  0  0
   -0.4346   -0.7134    0.1983 C   0  0  0  0  0  0  0  0  0  0  0  0
   -1.7415   -0.8666    0.5788 O   0  0  0  0  0  0  0  0  0  0  0  0
   -2.6061    0.2056    0.7287 C   0  0  0  0  0  0  0  0  0  0  0  0
   -2.8377    0.8092    1.9456 C   0  0  0  0  0  0  0  0  0  0  0  0
   -3.7022    1.8615    2.0218 C   0  0  0  0  0  0  0  0  0  0  0  0
   -4.3420    2.3200    0.8761 C   0  0  0  0  0  0  0  0  0  0  0  0
   -4.0977    1.7138   -0.2895 N   0  0  0  0  0  0  0  0  0  0  0  0
   -3.2558    0.6746   -0.4139 C   0  0  0  0  0  0  0  0  0  0  0  0
   -5.4368    3.6802    0.9867 S   0  0  0  0  0  0  0  0  0  0  0  0
   -7.0566    3.2275    0.4253 C   0  0  0  0  0  0  0  0  0  0  0  0
   -4.9305    4.8268    0.1083 O   0  0  0  0  0  0  0  0  0  0  0  0
   -5.5383    4.2122    2.3730 O   0  0  0  0  0  0  0  0  0  0  0  0
    4.5506    2.2409   -1.1644 C   0  0  0  0  0  0  0  0  0  0  0  0
    5.7798    1.6629   -1.3211 C   0  0  0  0  0  0  0  0  0  0  0  0
    6.8638    2.5490   -1.4969 C   0  0  0  0  0  0  0  0  0  0  0  0
    6.6447    3.8906   -1.4956 C   0  0  0  0  0  0  0  0  0  0  0  0
    7.7287    4.7310   -1.6546 F   0  0  0  0  0  0  0  0  0  0  0  0
    5.4106    4.4423   -1.3356 C   0  0  0  0  0  0  0  0  0  0  0  0
    4.3722    3.5617   -1.1690 N   0  0  0  0  0  0  0  0  0  0  0  0
    1.7953   -5.9785    0.3586 H   0  0  0  0  0  0  0  0  0  0  0  0
    2.0916   -4.6758   -0.7681 H   0  0  0  0  0  0  0  0  0  0  0  0
    2.4621   -4.4442    1.0342 H   0  0  0  0  0  0  0  0  0  0  0  0
   -0.9411   -2.9726    1.2973 H   0  0  0  0  0  0  0  0  0  0  0  0
   -0.8040   -4.2530   -1.4472 H   0  0  0  0  0  0  0  0  0  0  0  0
   -2.0931   -3.0029   -0.9229 H   0  0  0  0  0  0  0  0  0  0  0  0
   -2.5400   -4.2250    1.0690 H   0  0  0  0  0  0  0  0  0  0  0  0
   -2.3978   -5.5530   -0.2345 H   0  0  0  0  0  0  0  0  0  0  0  0
    2.3126   -2.4733   -0.5797 H   0  0  0  0  0  0  0  0  0  0  0  0
    4.1865   -0.5879   -1.1221 H   0  0  0  0  0  0  0  0  0  0  0  0
    1.7518    2.8835   -0.5145 H   0  0  0  0  0  0  0  0  0  0  0  0
   -0.5328    1.4414    0.1616 H   0  0  0  0  0  0  0  0  0  0  0  0
   -2.3136    0.4165    2.8308 H   0  0  0  0  0  0  0  0  0  0  0  0
   -3.8598    2.3120    3.0094 H   0  0  0  0  0  0  0  0  0  0  0  0
   -3.0992    0.2185   -1.4036 H   0  0  0  0  0  0  0  0  0  0  0  0
   -7.8124    3.9728    0.7291 H   0  0  0  0  0  0  0  0  0  0  0  0
   -7.1115    3.1709   -0.6968 H   0  0  0  0  0  0  0  0  0  0  0  0
   -7.2993    2.2225    0.8890 H   0  0  0  0  0  0  0  0  0  0  0  0
    5.9920    0.6151   -1.3263 H   0  0  0  0  0  0  0  0  0  0  0  0
    7.8373    2.0980   -1.6173 H   0  0  0  0  0  0  0  0  0  0  0  0
    5.2521    5.5067   -1.3363 H   0  0  0  0  0  0  0  0  0  0  0  0
  1  2  1  0
  2  3  1  0
  3  4  1  0
  4  5  1  0
  5  6  1  0
  6  7  2  0
  3  8  1  0
  8  9  2  0
  9 10  1  0
 10 11  1  0
 11 12  1  0
 12 13  2  0
 13 14  1  0
 14 15  1  0
 15 16  2  0
 16 17  1  0
 17 18  1  0
 18 19  2  0
 19 20  1  0
 20 21  2  0
 21 22  1  0
 22 23  2  0
 21 24  1  0
 24 25  1  0
 24 26  2  0
 24 27  2  0
 12 28  1  0
 28 29  2  0
 29 30  1  0
 30 31  2  0
 31 32  1  0
 31 33  1  0
 33 34  2  0
  6  2  1  0
 16  8  1  0
 23 18  1  0
 34 28  1  0
 14 10  2  0
  1 35  1  0
  1 36  1  0
  1 37  1  0
  3 38  1  0
  4 39  1  0
  4 40  1  0
  5 41  1  0
  5 42  1  0
  9 43  1  0
 11 44  1  0
 13 45  1  0
 15 46  1  0
 19 47  1  0
 20 48  1  0
 23 49  1  0
 25 50  1  0
 25 51  1  0
 25 52  1  0
 29 53  1  0
 30 54  1  0
 33 55  1  0
M  END
$$$$
[H]c1nc([H])c2c([H])c(OC([H])([H])[H])c(OC([H])([H])[H])c([H])c2c1Oc1c([H])c([H])c(N([H])C(=O)c2c([H])n(C([H])([H])c3c([H])c([H])c([H])c([H])c3[H])c(=O)n(C3([H])C([H])([H])C3([H])[H])c2=O)c([H])c1[H]
     RDKit          3D

 70 75  0  0  0  0  0  0  0  0999 V2000
  -11.3292   -1.1917    0.1618 C   0  0  0  0  0  0  0  0  0  0  0  0
  -10.4443   -0.1306    0.3940 O   0  0  0  0  0  0  0  0  0  0  0  0
   -9.0913   -0.2802    0.1657 C   0  0  0  0  0  0  0  0  0  0  0  0
   -8.6065   -1.4805   -0.2935 C   0  0  0  0  0  0  0  0  0  0  0  0
   -7.2531   -1.6313   -0.5223 C   0  0  0  0  0  0  0  0  0  0  0  0
   -6.7318   -2.8201   -0.9823 C   0  0  0  0  0  0  0  0  0  0  0  0
   -5.4100   -2.9329   -1.1943 N   0  0  0  0  0  0  0  0  0  0  0  0
   -4.5364   -1.9417   -0.9836 C   0  0  0  0  0  0  0  0  0  0  0  0
   -5.0240   -0.7404   -0.5237 C   0  0  0  0  0  0  0  0  0  0  0  0
   -4.2282    0.3387   -0.2722 O   0  0  0  0  0  0  0  0  0  0  0  0
   -2.8622    0.4214   -0.4255 C   0  0  0  0  0  0  0  0  0  0  0  0
   -2.0349    0.0295    0.5960 C   0  0  0  0  0  0  0  0  0  0  0  0
   -0.6346    0.0871    0.5137 C   0  0  0  0  0  0  0  0  0  0  0  0
   -0.0348    0.5504   -0.6215 C   0  0  0  0  0  0  0  0  0  0  0  0
    1.3834    0.6804   -0.8156 N   0  0  0  0  0  0  0  0  0  0  0  0
    2.3924    0.5167    0.1094 C   0  0  0  0  0  0  0  0  0  0  0  0
    2.0776    0.2169    1.3198 O   0  0  0  0  0  0  0  0  0  0  0  0
    3.8224    0.6560   -0.1471 C   0  0  0  0  0  0  0  0  0  0  0  0
    4.6608    0.8890    0.9687 C   0  0  0  0  0  0  0  0  0  0  0  0
    5.9622    1.0550    0.7430 N   0  0  0  0  0  0  0  0  0  0  0  0
    6.8137    1.2878    1.9059 C   0  0  0  0  0  0  0  0  0  0  0  0
    7.2903    0.0171    2.4985 C   0  0  0  0  0  0  0  0  0  0  0  0
    6.4967   -0.6708    3.4137 C   0  0  0  0  0  0  0  0  0  0  0  0
    6.9097   -1.8484    3.9933 C   0  0  0  0  0  0  0  0  0  0  0  0
    8.1463   -2.4163    3.6948 C   0  0  0  0  0  0  0  0  0  0  0  0
    8.9355   -1.7438    2.7928 C   0  0  0  0  0  0  0  0  0  0  0  0
    8.5178   -0.5534    2.2069 C   0  0  0  0  0  0  0  0  0  0  0  0
    6.4808    1.0084   -0.4745 C   0  0  0  0  0  0  0  0  0  0  0  0
    7.7376    1.1778   -0.6166 O   0  0  0  0  0  0  0  0  0  0  0  0
    5.7532    0.7906   -1.5900 N   0  0  0  0  0  0  0  0  0  0  0  0
    6.3530    0.7483   -2.8921 C   0  0  0  0  0  0  0  0  0  0  0  0
    5.7586    1.3290   -4.1046 C   0  0  0  0  0  0  0  0  0  0  0  0
    5.9691   -0.1843   -3.9607 C   0  0  0  0  0  0  0  0  0  0  0  0
    4.4038    0.6161   -1.3766 C   0  0  0  0  0  0  0  0  0  0  0  0
    3.7319    0.4132   -2.3939 O   0  0  0  0  0  0  0  0  0  0  0  0
   -0.8955    0.9459   -1.6562 C   0  0  0  0  0  0  0  0  0  0  0  0
   -2.2575    0.8889   -1.5741 C   0  0  0  0  0  0  0  0  0  0  0  0
   -6.3896   -0.5759   -0.2893 C   0  0  0  0  0  0  0  0  0  0  0  0
   -6.8970    0.6192    0.1710 C   0  0  0  0  0  0  0  0  0  0  0  0
   -8.2423    0.7759    0.4006 C   0  0  0  0  0  0  0  0  0  0  0  0
   -8.7365    1.9831    0.8624 O   0  0  0  0  0  0  0  0  0  0  0  0
   -7.8667    3.0674    1.1020 C   0  0  0  0  0  0  0  0  0  0  0  0
  -12.3764   -0.8432    0.2859 H   0  0  0  0  0  0  0  0  0  0  0  0
  -11.1991   -2.0110    0.9093 H   0  0  0  0  0  0  0  0  0  0  0  0
  -11.1699   -1.6039   -0.8385 H   0  0  0  0  0  0  0  0  0  0  0  0
   -9.3015   -2.3149   -0.4750 H   0  0  0  0  0  0  0  0  0  0  0  0
   -7.4181   -3.6386   -1.1611 H   0  0  0  0  0  0  0  0  0  0  0  0
   -3.4761   -2.0314   -1.1532 H   0  0  0  0  0  0  0  0  0  0  0  0
   -2.4674   -0.3459    1.5204 H   0  0  0  0  0  0  0  0  0  0  0  0
   -0.0569   -0.2489    1.3531 H   0  0  0  0  0  0  0  0  0  0  0  0
    1.6790    0.9558   -1.8025 H   0  0  0  0  0  0  0  0  0  0  0  0
    4.2364    0.9271    1.9603 H   0  0  0  0  0  0  0  0  0  0  0  0
    7.7209    1.8320    1.5064 H   0  0  0  0  0  0  0  0  0  0  0  0
    6.2824    1.9289    2.6335 H   0  0  0  0  0  0  0  0  0  0  0  0
    5.5126   -0.2643    3.6823 H   0  0  0  0  0  0  0  0  0  0  0  0
    6.3005   -2.4047    4.7148 H   0  0  0  0  0  0  0  0  0  0  0  0
    8.4409   -3.3456    4.1702 H   0  0  0  0  0  0  0  0  0  0  0  0
    9.9213   -2.1517    2.5255 H   0  0  0  0  0  0  0  0  0  0  0  0
    9.1758   -0.0584    1.5065 H   0  0  0  0  0  0  0  0  0  0  0  0
    7.4752    0.9178   -2.8329 H   0  0  0  0  0  0  0  0  0  0  0  0
    6.4331    1.8266   -4.8674 H   0  0  0  0  0  0  0  0  0  0  0  0
    4.7465    1.7280   -4.1831 H   0  0  0  0  0  0  0  0  0  0  0  0
    6.7760   -0.6158   -4.6302 H   0  0  0  0  0  0  0  0  0  0  0  0
    5.1065   -0.8560   -3.9455 H   0  0  0  0  0  0  0  0  0  0  0  0
   -0.4284    1.3159   -2.5661 H   0  0  0  0  0  0  0  0  0  0  0  0
   -2.9071    1.2020   -2.3912 H   0  0  0  0  0  0  0  0  0  0  0  0
   -6.1858    1.4307    0.3444 H   0  0  0  0  0  0  0  0  0  0  0  0
   -8.4674    4.0065    1.1664 H   0  0  0  0  0  0  0  0  0  0  0  0
   -7.1598    3.2216    0.2480 H   0  0  0  0  0  0  0  0  0  0  0  0
   -7.2834    2.9042    2.0157 H   0  0  0  0  0  0  0  0  0  0  0  0
  1  2  1  0
  2  3  1  0
  3  4  2  0
  4  5  1  0
  5  6  2  0
  6  7  1  0
  7  8  2  0
  8  9  1  0
  9 10  1  0
 10 11  1  0
 11 12  2  0
 12 13  1  0
 13 14  2  0
 14 15  1  0
 15 16  1  0
 16 17  2  0
 16 18  1  0
 18 19  2  0
 19 20  1  0
 20 21  1  0
 21 22  1  0
 22 23  2  0
 23 24  1  0
 24 25  2  0
 25 26  1  0
 26 27  2  0
 20 28  1  0
 28 29  2  0
 28 30  1  0
 30 31  1  0
 31 32  1  0
 32 33  1  0
 30 34  1  0
 34 35  2  0
 14 36  1  0
 36 37  2  0
  9 38  2  0
 38 39  1  0
 39 40  2  0
 40 41  1  0
 41 42  1  0
 40  3  1  0
 38  5  1  0
 37 11  1  0
 34 18  1  0
 27 22  1  0
 33 31  1  0
  1 43  1  0
  1 44  1  0
  1 45  1  0
  4 46  1  0
  6 47  1  0
  8 48  1  0
 12 49  1  0
 13 50  1  0
 15 51  1  0
 19 52  1  0
 21 53  1  0
 21 54  1  0
 23 55  1  0
 24 56  1  0
 25 57  1  0
 26 58  1  0
 27 59  1  0
 31 60  1  0
 32 61  1  0
 32 62  1  0
 33 63  1  0
 33 64  1  0
 36 65  1  0
 37 66  1  0
 39 67  1  0
 42 68  1  0
 42 69  1  0
 42 70  1  0
M  END
$$$$
[H]OC([H])([H])[C@@]1([H])O[C@]([H])(n2c([H])c([H])c(=O)n([H])c2=O)[C@]([H])(O[H])[C@]1([H])O[H]
     RDKit          3D

 29 30  0  0  0  0  0  0  0  0999 V2000
   -4.0984    1.2626   -0.6744 O   0  0  0  0  0  0  0  0  0  0  0  0
   -2.8262    1.6833   -0.3722 C   0  0  0  0  0  0  0  0  0  0  0  0
   -1.8144    0.5768   -0.5584 C   0  0  1  0  0  0  0  0  0  0  0  0
   -0.5277    0.9754   -0.2607 O   0  0  0  0  0  0  0  0  0  0  0  0
    0.0515    0.0305    0.5477 C   0  0  1  0  0  0  0  0  0  0  0  0
   -0.7117   -1.2402    0.2970 C   0  0  2  0  0  0  0  0  0  0  0  0
   -0.5649   -1.6945   -1.0158 O   0  0  0  0  0  0  0  0  0  0  0  0
   -2.1178   -0.6119    0.3365 C   0  0  2  0  0  0  0  0  0  0  0  0
   -3.0655   -1.4515   -0.2037 O   0  0  0  0  0  0  0  0  0  0  0  0
    1.4726   -0.0937    0.3977 N   0  0  0  0  0  0  0  0  0  0  0  0
    2.1213   -1.2368    0.2197 C   0  0  0  0  0  0  0  0  0  0  0  0
    3.4887   -1.2562    0.0854 C   0  0  0  0  0  0  0  0  0  0  0  0
    4.1810   -0.0620    0.1387 C   0  0  0  0  0  0  0  0  0  0  0  0
    5.4302   -0.0917    0.0149 O   0  0  0  0  0  0  0  0  0  0  0  0
    3.5111    1.0896    0.3196 N   0  0  0  0  0  0  0  0  0  0  0  0
    2.1764    1.0529    0.4451 C   0  0  0  0  0  0  0  0  0  0  0  0
    1.5837    2.1775    0.6158 O   0  0  0  0  0  0  0  0  0  0  0  0
   -4.4075    1.5722   -1.5786 H   0  0  0  0  0  0  0  0  0  0  0  0
   -2.5493    2.4886   -1.0866 H   0  0  0  0  0  0  0  0  0  0  0  0
   -2.7315    2.0912    0.6480 H   0  0  0  0  0  0  0  0  0  0  0  0
   -1.8198    0.2237   -1.6174 H   0  0  0  0  0  0  0  0  0  0  0  0
   -0.1471    0.3191    1.6020 H   0  0  0  0  0  0  0  0  0  0  0  0
   -0.5831   -2.0097    1.0487 H   0  0  0  0  0  0  0  0  0  0  0  0
   -0.0728   -1.0343   -1.5705 H   0  0  0  0  0  0  0  0  0  0  0  0
   -2.3568   -0.2207    1.3307 H   0  0  0  0  0  0  0  0  0  0  0  0
   -3.1978   -2.1989    0.4045 H   0  0  0  0  0  0  0  0  0  0  0  0
    1.5410   -2.1472    0.1841 H   0  0  0  0  0  0  0  0  0  0  0  0
    4.0171   -2.2119   -0.0620 H   0  0  0  0  0  0  0  0  0  0  0  0
    4.0177    2.0177    0.3641 H   0  0  0  0  0  0  0  0  0  0  0  0
  1  2  1  0
  2  3  1  0
  3  4  1  0
  4  5  1  0
  5  6  1  0
  6  7  1  0
  6  8  1  0
  8  9  1  0
  5 10  1  0
 10 11  1  0
 11 12  2  0
 12 13  1  0
 13 14  2  0
 13 15  1  0
 15 16  1  0
 16 17  2  0
  8  3  1  0
 16 10  1  0
  1 18  1  0
  2 19  1  0
  2 20  1  0
  3 21  1  6
  5 22  1  1
  6 23  1  1
  7 24  1  0
  8 25  1  1
  9 26  1  0
 11 27  1  0
 12 28  1  0
 15 29  1  0
M  END
$$$$
[H]c1nc2c(c([H])c1C([H])([H])C([H])([H])C(=O)N([H])C([H])(C([H])([H])[H])C([H])([H])[H])C([H])(N1C([H])([H])C([H])([H])C([H])([H])C([H])([H])C1([H])[H])c1c([H])c(OC([H])([H])[H])c(OC([H])([H])[H])c([H])c1C([H])([H])C([H])([H])C2([H])[H]
     RDKit          3D

 73 76  0  0  0  0  0  0  0  0999 V2000
   -0.5626   -0.5423    1.1242 C   0  0  0  0  0  0  0  0  0  0  0  0
   -0.4597   -1.8998    1.1716 C   0  0  0  0  0  0  0  0  0  0  0  0
    0.5295   -2.4495    1.9032 N   0  0  0  0  0  0  0  0  0  0  0  0
    1.3964   -1.6812    2.5722 C   0  0  0  0  0  0  0  0  0  0  0  0
    1.3505   -0.3138    2.5666 C   0  0  0  0  0  0  0  0  0  0  0  0
    2.3127    0.5757    3.2624 C   0  0  0  0  0  0  0  0  0  0  0  0
    3.3744    1.1715    2.4269 C   0  0  0  0  0  0  0  0  0  0  0  0
    4.2978    0.2746    1.7519 C   0  0  0  0  0  0  0  0  0  0  0  0
    5.2736    0.8163    0.8627 N   0  0  0  0  0  0  0  0  0  0  0  0
    6.2032   -0.0541    0.1767 C   0  0  0  0  0  0  0  0  0  0  0  0
    5.9383   -0.0037   -1.3310 C   0  0  0  0  0  0  0  0  0  0  0  0
    7.6421    0.2831    0.4123 C   0  0  0  0  0  0  0  0  0  0  0  0
    4.2952   -0.9553    1.8994 O   0  0  0  0  0  0  0  0  0  0  0  0
    0.3122    0.2422    1.7991 C   0  0  0  0  0  0  0  0  0  0  0  0
   -1.2161   -3.0879    0.5984 C   0  0  0  0  0  0  0  0  0  0  0  0
   -2.3423   -3.4613    1.5553 C   0  0  0  0  0  0  0  0  0  0  0  0
   -3.2766   -2.2740    1.7559 C   0  0  0  0  0  0  0  0  0  0  0  0
   -3.3525   -1.4819    0.4676 C   0  0  0  0  0  0  0  0  0  0  0  0
   -4.3912   -2.0338   -0.2404 C   0  0  0  0  0  0  0  0  0  0  0  0
   -4.7231   -1.5399   -1.4830 C   0  0  0  0  0  0  0  0  0  0  0  0
   -5.7861   -2.1242   -2.1762 O   0  0  0  0  0  0  0  0  0  0  0  0
   -6.5050   -3.1990   -1.6122 C   0  0  0  0  0  0  0  0  0  0  0  0
   -4.0176   -0.4876   -2.0309 C   0  0  0  0  0  0  0  0  0  0  0  0
   -4.3942   -0.0304   -3.2870 O   0  0  0  0  0  0  0  0  0  0  0  0
   -3.6792    1.0511   -3.8667 C   0  0  0  0  0  0  0  0  0  0  0  0
   -2.9538    0.0874   -1.3208 C   0  0  0  0  0  0  0  0  0  0  0  0
   -2.6538   -0.4231   -0.0997 C   0  0  0  0  0  0  0  0  0  0  0  0
   -1.5111    0.3625    0.4163 C   0  0  0  0  0  0  0  0  0  0  0  0
   -0.9574    1.3785   -0.3261 N   0  0  0  0  0  0  0  0  0  0  0  0
    0.0260    1.2416   -1.2758 C   0  0  0  0  0  0  0  0  0  0  0  0
    0.1247    2.4730   -2.1469 C   0  0  0  0  0  0  0  0  0  0  0  0
    0.4555    3.7144   -1.3272 C   0  0  0  0  0  0  0  0  0  0  0  0
   -0.3477    3.6767   -0.0438 C   0  0  0  0  0  0  0  0  0  0  0  0
   -1.4677    2.6578   -0.1097 C   0  0  0  0  0  0  0  0  0  0  0  0
    2.1505   -2.1755    3.1569 H   0  0  0  0  0  0  0  0  0  0  0  0
    1.6899    1.3465    3.7830 H   0  0  0  0  0  0  0  0  0  0  0  0
    2.8104    0.0273    4.1181 H   0  0  0  0  0  0  0  0  0  0  0  0
    3.9597    1.9055    3.0770 H   0  0  0  0  0  0  0  0  0  0  0  0
    2.8428    1.8567    1.6872 H   0  0  0  0  0  0  0  0  0  0  0  0
    5.3062    1.8445    0.7146 H   0  0  0  0  0  0  0  0  0  0  0  0
    6.0287   -1.1147    0.4736 H   0  0  0  0  0  0  0  0  0  0  0  0
    5.2458   -0.8169   -1.6463 H   0  0  0  0  0  0  0  0  0  0  0  0
    5.5894    0.9865   -1.6553 H   0  0  0  0  0  0  0  0  0  0  0  0
    6.9236   -0.2420   -1.8300 H   0  0  0  0  0  0  0  0  0  0  0  0
    8.2117    0.1779   -0.5298 H   0  0  0  0  0  0  0  0  0  0  0  0
    7.7219    1.3558    0.7073 H   0  0  0  0  0  0  0  0  0  0  0  0
    8.0672   -0.3916    1.1942 H   0  0  0  0  0  0  0  0  0  0  0  0
    0.2737    1.3293    1.8058 H   0  0  0  0  0  0  0  0  0  0  0  0
   -0.5034   -3.9334    0.5926 H   0  0  0  0  0  0  0  0  0  0  0  0
   -1.5630   -2.9134   -0.4159 H   0  0  0  0  0  0  0  0  0  0  0  0
   -2.9274   -4.3029    1.1481 H   0  0  0  0  0  0  0  0  0  0  0  0
   -1.8602   -3.7643    2.5044 H   0  0  0  0  0  0  0  0  0  0  0  0
   -2.8473   -1.6337    2.5522 H   0  0  0  0  0  0  0  0  0  0  0  0
   -4.2946   -2.5963    1.9929 H   0  0  0  0  0  0  0  0  0  0  0  0
   -4.9163   -2.8556    0.2279 H   0  0  0  0  0  0  0  0  0  0  0  0
   -7.1765   -3.6684   -2.3564 H   0  0  0  0  0  0  0  0  0  0  0  0
   -7.0669   -2.9094   -0.7056 H   0  0  0  0  0  0  0  0  0  0  0  0
   -5.7992   -4.0073   -1.2810 H   0  0  0  0  0  0  0  0  0  0  0  0
   -3.8451    1.9729   -3.2950 H   0  0  0  0  0  0  0  0  0  0  0  0
   -4.0015    1.1284   -4.9240 H   0  0  0  0  0  0  0  0  0  0  0  0
   -2.5801    0.8597   -3.8729 H   0  0  0  0  0  0  0  0  0  0  0  0
   -2.4853    0.8924   -1.8421 H   0  0  0  0  0  0  0  0  0  0  0  0
   -1.9676    0.9262    1.3274 H   0  0  0  0  0  0  0  0  0  0  0  0
    1.0608    1.0442   -0.9175 H   0  0  0  0  0  0  0  0  0  0  0  0
   -0.1535    0.3916   -2.0027 H   0  0  0  0  0  0  0  0  0  0  0  0
   -0.8453    2.6979   -2.6572 H   0  0  0  0  0  0  0  0  0  0  0  0
    0.8693    2.3808   -2.9555 H   0  0  0  0  0  0  0  0  0  0  0  0
    0.1331    4.5779   -1.9141 H   0  0  0  0  0  0  0  0  0  0  0  0
    1.5535    3.7556   -1.1465 H   0  0  0  0  0  0  0  0  0  0  0  0
    0.3639    3.4805    0.7970 H   0  0  0  0  0  0  0  0  0  0  0  0
   -0.7714    4.6966    0.1246 H   0  0  0  0  0  0  0  0  0  0  0  0
   -2.1219    2.9826   -0.9500 H   0  0  0  0  0  0  0  0  0  0  0  0
   -2.0102    2.7447    0.8672 H   0  0  0  0  0  0  0  0  0  0  0  0
  1  2  1  0
  2  3  2  0
  3  4  1  0
  4  5  2  0
  5  6  1  0
  6  7  1  0
  7  8  1  0
  8  9  1  0
  9 10  1  0
 10 11  1  0
 10 12  1  0
  8 13  2  0
  5 14  1  0
  2 15  1  0
 15 16  1  0
 16 17  1  0
 17 18  1  0
 18 19  2  0
 19 20  1  0
 20 21  1  0
 21 22  1  0
 20 23  2  0
 23 24  1  0
 24 25  1  0
 23 26  1  0
 26 27  2  0
 27 28  1  0
 28 29  1  0
 29 30  1  0
 30 31  1  0
 31 32  1  0
 32 33  1  0
 33 34  1  0
 14  1  2  0
 27 18  1  0
 34 29  1  0
 28  1  1  0
  4 35  1  0
  6 36  1  0
  6 37  1  0
  7 38  1  0
  7 39  1  0
  9 40  1  0
 10 41  1  0
 11 42  1  0
 11 43  1  0
 11 44  1  0
 12 45  1  0
 12 46  1  0
 12 47  1  0
 14 48  1  0
 15 49  1  0
 15 50  1  0
 16 51  1  0
 16 52  1  0
 17 53  1  0
 17 54  1  0
 19 55  1  0
 22 56  1  0
 22 57  1  0
 22 58  1  0
 25 59  1  0
 25 60  1  0
 25 61  1  0
 26 62  1  0
 28 63  1  0
 30 64  1  0
 30 65  1  0
 31 66  1  0
 31 67  1  0
 32 68  1  0
 32 69  1  0
 33 70  1  0
 33 71  1  0
 34 72  1  0
 34 73  1  0
M  END
$$$$
[H]O[C@]1([H])[C@]([H])(n2c([H])nc3c(N([H])[H])nc([H])nc32)O[C@]([H])(C([H])([H])OP(=O)(O[H])OP(=O)(O[H])OP(=O)(O[H])O[H])[C@]1([H])O[H]
     RDKit          3D

 47 49  0  0  0  0  0  0  0  0999 V2000
   -7.6030    0.8604   -0.0098 N   0  0  0  0  0  0  0  0  0  0  0  0
   -6.3376    0.3686    0.4236 C   0  0  0  0  0  0  0  0  0  0  0  0
   -6.0364    0.2032    1.7127 N   0  0  0  0  0  0  0  0  0  0  0  0
   -4.8287   -0.2641    2.0744 C   0  0  0  0  0  0  0  0  0  0  0  0
   -3.8977   -0.5750    1.1392 N   0  0  0  0  0  0  0  0  0  0  0  0
   -4.1429   -0.4303   -0.1592 C   0  0  0  0  0  0  0  0  0  0  0  0
   -3.4086   -0.6608   -1.2589 N   0  0  0  0  0  0  0  0  0  0  0  0
   -4.1748   -0.3307   -2.3137 C   0  0  0  0  0  0  0  0  0  0  0  0
   -5.3852    0.1050   -1.8719 N   0  0  0  0  0  0  0  0  0  0  0  0
   -5.3772    0.0477   -0.5377 C   0  0  0  0  0  0  0  0  0  0  0  0
   -2.0715   -1.1579   -1.3557 C   0  0  2  0  0  0  0  0  0  0  0  0
   -1.4230   -1.2482   -0.1536 O   0  0  0  0  0  0  0  0  0  0  0  0
   -0.0686   -1.1372   -0.3578 C   0  0  2  0  0  0  0  0  0  0  0  0
    0.4722   -0.1208    0.6154 C   0  0  0  0  0  0  0  0  0  0  0  0
    1.8212    0.0867    0.5173 O   0  0  0  0  0  0  0  0  0  0  0  0
    2.2900    1.2320    1.6476 P   0  0  0  0  0  0  0  0  0  0  0  0
    2.8684    2.6482    0.9012 O   0  0  0  0  0  0  0  0  0  0  0  0
    1.0882    1.6678    2.4902 O   0  0  0  0  0  0  0  0  0  0  0  0
    3.4649    0.6938    2.7033 O   0  0  0  0  0  0  0  0  0  0  0  0
    4.7045   -0.1460    1.9671 P   0  0  0  0  0  0  0  0  0  0  0  0
    5.9322   -0.3710    3.1375 O   0  0  0  0  0  0  0  0  0  0  0  0
    4.2971   -1.5357    1.5214 O   0  0  0  0  0  0  0  0  0  0  0  0
    5.4147    0.7221    0.6982 O   0  0  0  0  0  0  0  0  0  0  0  0
    6.7876   -0.1705    0.2119 P   0  0  0  0  0  0  0  0  0  0  0  0
    7.1373    0.1038   -1.4198 O   0  0  0  0  0  0  0  0  0  0  0  0
    8.1367    0.2075    1.1164 O   0  0  0  0  0  0  0  0  0  0  0  0
    6.5209   -1.6622    0.3633 O   0  0  0  0  0  0  0  0  0  0  0  0
    0.1791   -0.7861   -1.7852 C   0  0  2  0  0  0  0  0  0  0  0  0
    1.1876    0.1107   -1.9982 O   0  0  0  0  0  0  0  0  0  0  0  0
   -1.1890   -0.2229   -2.1937 C   0  0  2  0  0  0  0  0  0  0  0  0
   -1.3604    1.0649   -1.6987 O   0  0  0  0  0  0  0  0  0  0  0  0
   -7.6704    1.7504   -0.5609 H   0  0  0  0  0  0  0  0  0  0  0  0
   -8.4382    0.2917    0.2503 H   0  0  0  0  0  0  0  0  0  0  0  0
   -4.5738   -0.4023    3.1218 H   0  0  0  0  0  0  0  0  0  0  0  0
   -3.9325   -0.3787   -3.3657 H   0  0  0  0  0  0  0  0  0  0  0  0
   -2.0251   -2.1491   -1.8865 H   0  0  0  0  0  0  0  0  0  0  0  0
    0.3821   -2.1384   -0.1687 H   0  0  0  0  0  0  0  0  0  0  0  0
   -0.0829    0.8301    0.4570 H   0  0  0  0  0  0  0  0  0  0  0  0
    0.2273   -0.4983    1.6375 H   0  0  0  0  0  0  0  0  0  0  0  0
    2.8336    2.5812   -0.0800 H   0  0  0  0  0  0  0  0  0  0  0  0
    5.7845    0.1906    3.9311 H   0  0  0  0  0  0  0  0  0  0  0  0
    6.2643    0.1473   -1.8917 H   0  0  0  0  0  0  0  0  0  0  0  0
    8.1429   -0.1641    2.0259 H   0  0  0  0  0  0  0  0  0  0  0  0
    0.2862   -1.7311   -2.3940 H   0  0  0  0  0  0  0  0  0  0  0  0
    1.2353    0.3168   -2.9507 H   0  0  0  0  0  0  0  0  0  0  0  0
   -1.3781   -0.3201   -3.2600 H   0  0  0  0  0  0  0  0  0  0  0  0
   -2.0531    1.0967   -0.9924 H   0  0  0  0  0  0  0  0  0  0  0  0
  1  2  1  0
  2  3  2  0
  3  4  1  0
  4  5  2  0
  5  6  1  0
  6  7  1  0
  7  8  1  0
  8  9  2  0
  9 10  1  0
  7 11  1  0
 11 12  1  0
 12 13  1  0
 13 14  1  0
 14 15  1  0
 15 16  1  0
 16 17  1  0
 16 18  2  0
 16 19  1  0
 19 20  1  0
 20 21  1  0
 20 22  2  0
 20 23  1  0
 23 24  1  0
 24 25  1  0
 24 26  1  0
 24 27  2  0
 13 28  1  0
 28 29  1  0
 28 30  1  0
 30 31  1  0
 10  2  1  0
 30 11  1  0
 10  6  2  0
  1 32  1  0
  1 33  1  0
  4 34  1  0
  8 35  1  0
 11 36  1  6
 13 37  1  1
 14 38  1  0
 14 39  1  0
 17 40  1  0
 21 41  1  0
 25 42  1  0
 26 43  1  0
 28 44  1  6
 29 45  1  0
 30 46  1  6
 31 47  1  0
M  END
$$$$
[H]Oc1c([H])c([H])c2oc(=O)c3c([H])c(OC([H])([H])C([H])([H])c4c([H])c([H])c([H])c([H])c4[H])c([H])c([H])c3c2c1[H]
     RDKit          3D

 41 44  0  0  0  0  0  0  0  0999 V2000
    0.2593   -1.2183    0.6909 C   0  0  0  0  0  0  0  0  0  0  0  0
   -0.8666   -1.9213    0.9984 O   0  0  0  0  0  0  0  0  0  0  0  0
   -2.1355   -1.9241    0.5068 C   0  0  0  0  0  0  0  0  0  0  0  0
   -2.8399   -0.6217    0.7648 C   0  0  0  0  0  0  0  0  0  0  0  0
   -4.2243   -0.6365    0.2116 C   0  0  0  0  0  0  0  0  0  0  0  0
   -5.2759   -1.0772    1.0065 C   0  0  0  0  0  0  0  0  0  0  0  0
   -6.5753   -1.0892    0.4857 C   0  0  0  0  0  0  0  0  0  0  0  0
   -6.8130   -0.6696   -0.8006 C   0  0  0  0  0  0  0  0  0  0  0  0
   -5.7603   -0.2371   -1.5720 C   0  0  0  0  0  0  0  0  0  0  0  0
   -4.4551   -0.2183   -1.0676 C   0  0  0  0  0  0  0  0  0  0  0  0
    1.4396   -1.4089    1.4202 C   0  0  0  0  0  0  0  0  0  0  0  0
    2.6167   -0.7500    1.1790 C   0  0  0  0  0  0  0  0  0  0  0  0
    2.6342    0.1612    0.1473 C   0  0  0  0  0  0  0  0  0  0  0  0
    3.7574    0.8862   -0.1923 C   0  0  0  0  0  0  0  0  0  0  0  0
    3.7134    1.7997   -1.2538 C   0  0  0  0  0  0  0  0  0  0  0  0
    2.5876    1.9576   -1.9230 O   0  0  0  0  0  0  0  0  0  0  0  0
    1.5200    1.2816   -1.6152 C   0  0  0  0  0  0  0  0  0  0  0  0
    0.4827    1.4944   -2.3087 O   0  0  0  0  0  0  0  0  0  0  0  0
    1.4834    0.3689   -0.5897 C   0  0  0  0  0  0  0  0  0  0  0  0
    0.2968   -0.3078   -0.3333 C   0  0  0  0  0  0  0  0  0  0  0  0
    4.8422    2.5130   -1.5776 C   0  0  0  0  0  0  0  0  0  0  0  0
    5.9916    2.3159   -0.8536 C   0  0  0  0  0  0  0  0  0  0  0  0
    6.0856    1.4375    0.1895 C   0  0  0  0  0  0  0  0  0  0  0  0
    7.2000    1.1976    0.9471 O   0  0  0  0  0  0  0  0  0  0  0  0
    4.9268    0.7108    0.5155 C   0  0  0  0  0  0  0  0  0  0  0  0
   -2.0806   -2.1462   -0.5923 H   0  0  0  0  0  0  0  0  0  0  0  0
   -2.7247   -2.7740    0.9399 H   0  0  0  0  0  0  0  0  0  0  0  0
   -2.2831    0.2271    0.4071 H   0  0  0  0  0  0  0  0  0  0  0  0
   -2.9559   -0.5534    1.8775 H   0  0  0  0  0  0  0  0  0  0  0  0
   -5.0805   -1.4113    2.0323 H   0  0  0  0  0  0  0  0  0  0  0  0
   -7.3684   -1.4392    1.1355 H   0  0  0  0  0  0  0  0  0  0  0  0
   -7.7959   -0.6676   -1.2258 H   0  0  0  0  0  0  0  0  0  0  0  0
   -5.8988    0.1007   -2.5844 H   0  0  0  0  0  0  0  0  0  0  0  0
   -3.6330    0.1240   -1.6834 H   0  0  0  0  0  0  0  0  0  0  0  0
    1.3621   -2.1431    2.2245 H   0  0  0  0  0  0  0  0  0  0  0  0
    3.4641   -0.9687    1.7963 H   0  0  0  0  0  0  0  0  0  0  0  0
   -0.5770   -0.1235   -0.9651 H   0  0  0  0  0  0  0  0  0  0  0  0
    4.7683    3.2104   -2.4054 H   0  0  0  0  0  0  0  0  0  0  0  0
    6.8678    2.8826   -1.1199 H   0  0  0  0  0  0  0  0  0  0  0  0
    8.0926    1.6196    0.8532 H   0  0  0  0  0  0  0  0  0  0  0  0
    4.9517    0.0183    1.3162 H   0  0  0  0  0  0  0  0  0  0  0  0
  1  2  1  0
  2  3  1  0
  3  4  1  0
  4  5  1  0
  5  6  2  0
  6  7  1  0
  7  8  2  0
  8  9  1  0
  9 10  2  0
  1 11  2  0
 11 12  1  0
 12 13  2  0
 13 14  1  0
 14 15  2  0
 15 16  1  0
 16 17  1  0
 17 18  2  0
 17 19  1  0
 19 20  2  0
 15 21  1  0
 21 22  2  0
 22 23  1  0
 23 24  1  0
 23 25  2  0
 20  1  1  0
 10  5  1  0
 19 13  1  0
 25 14  1  0
  3 26  1  0
  3 27  1  0
  4 28  1  0
  4 29  1  0
  6 30  1  0
  7 31  1  0
  8 32  1  0
  9 33  1  0
 10 34  1  0
 11 35  1  0
 12 36  1  0
 20 37  1  0
 21 38  1  0
 22 39  1  0
 24 40  1  0
 25 41  1  0
M  END
$$$$
[H]OC(=O)C1=c2c([H])nc(N([H])C3([H])C([H])([H])C3([H])[H])nc2=C(N([H])C([H])([H])c2c([H])c([H])c(OC([H])([H])[H])c([H])c2[H])N=C(C([H])(F)F)N1C([H])([H])[H]
     RDKit          3D

 54 57  0  0  0  0  0  0  0  0999 V2000
   -1.8597   -3.8772    0.0150 N   0  0  0  0  0  0  0  0  0  0  0  0
   -2.3902   -4.9860   -0.7088 C   0  0  0  0  0  0  0  0  0  0  0  0
   -2.7979   -2.7993    0.2410 C   0  0  0  0  0  0  0  0  0  0  0  0
   -4.1311   -3.1761    0.6080 C   0  0  0  0  0  0  0  0  0  0  0  0
   -4.5537   -4.5397    0.4846 O   0  0  0  0  0  0  0  0  0  0  0  0
   -5.0068   -2.4162    1.0557 O   0  0  0  0  0  0  0  0  0  0  0  0
   -2.4783   -1.5171    0.3137 C   0  0  0  0  0  0  0  0  0  0  0  0
   -1.2008   -0.9415    0.2194 C   0  0  0  0  0  0  0  0  0  0  0  0
   -0.0021   -1.5030    0.2766 C   0  0  0  0  0  0  0  0  0  0  0  0
    1.0808   -0.6107    0.1388 N   0  0  0  0  0  0  0  0  0  0  0  0
    1.7501    0.0355    1.2161 C   0  0  0  0  0  0  0  0  0  0  0  0
    2.8721    0.9042    0.8323 C   0  0  0  0  0  0  0  0  0  0  0  0
    3.5643    0.8680   -0.3500 C   0  0  0  0  0  0  0  0  0  0  0  0
    4.6197    1.7437   -0.6278 C   0  0  0  0  0  0  0  0  0  0  0  0
    4.9977    2.6870    0.3043 C   0  0  0  0  0  0  0  0  0  0  0  0
    6.0418    3.5808    0.0745 O   0  0  0  0  0  0  0  0  0  0  0  0
    6.7197    3.4866   -1.1801 C   0  0  0  0  0  0  0  0  0  0  0  0
    4.3126    2.7297    1.4863 C   0  0  0  0  0  0  0  0  0  0  0  0
    3.2740    1.8666    1.7572 C   0  0  0  0  0  0  0  0  0  0  0  0
    0.2868   -2.8912    0.4953 N   0  0  0  0  0  0  0  0  0  0  0  0
   -0.4931   -3.9410    0.3913 C   0  0  0  0  0  0  0  0  0  0  0  0
    0.0794   -5.2717    0.6656 C   0  0  0  0  0  0  0  0  0  0  0  0
   -0.6849   -6.0286    1.5508 F   0  0  0  0  0  0  0  0  0  0  0  0
    0.5561   -5.9551   -0.4003 F   0  0  0  0  0  0  0  0  0  0  0  0
   -1.0356    0.3811    0.1281 N   0  0  0  0  0  0  0  0  0  0  0  0
   -2.0819    1.2202    0.1248 C   0  0  0  0  0  0  0  0  0  0  0  0
   -1.9086    2.6383    0.0288 N   0  0  0  0  0  0  0  0  0  0  0  0
   -3.0701    3.4761    0.0310 C   0  0  0  0  0  0  0  0  0  0  0  0
   -2.9884    4.9408   -0.0622 C   0  0  0  0  0  0  0  0  0  0  0  0
   -3.4044    4.2006   -1.2828 C   0  0  0  0  0  0  0  0  0  0  0  0
   -3.2892    0.6717    0.2153 N   0  0  0  0  0  0  0  0  0  0  0  0
   -3.5421   -0.6614    0.3088 C   0  0  0  0  0  0  0  0  0  0  0  0
   -3.2440   -4.7121   -1.3283 H   0  0  0  0  0  0  0  0  0  0  0  0
   -2.6588   -5.7895   -0.0083 H   0  0  0  0  0  0  0  0  0  0  0  0
   -1.5980   -5.4732   -1.3551 H   0  0  0  0  0  0  0  0  0  0  0  0
   -5.3306   -4.7577   -0.1091 H   0  0  0  0  0  0  0  0  0  0  0  0
    1.3996   -0.4207   -0.8574 H   0  0  0  0  0  0  0  0  0  0  0  0
    0.9905    0.7022    1.7217 H   0  0  0  0  0  0  0  0  0  0  0  0
    2.0300   -0.7070    1.9925 H   0  0  0  0  0  0  0  0  0  0  0  0
    3.2946    0.1408   -1.0939 H   0  0  0  0  0  0  0  0  0  0  0  0
    5.1516    1.7008   -1.5612 H   0  0  0  0  0  0  0  0  0  0  0  0
    7.1314    2.4603   -1.2332 H   0  0  0  0  0  0  0  0  0  0  0  0
    6.0216    3.6024   -2.0342 H   0  0  0  0  0  0  0  0  0  0  0  0
    7.5716    4.1851   -1.2302 H   0  0  0  0  0  0  0  0  0  0  0  0
    4.6283    3.4891    2.2184 H   0  0  0  0  0  0  0  0  0  0  0  0
    2.7905    1.9744    2.7183 H   0  0  0  0  0  0  0  0  0  0  0  0
    1.0102   -5.0490    1.2887 H   0  0  0  0  0  0  0  0  0  0  0  0
   -0.9604    3.0333   -0.0398 H   0  0  0  0  0  0  0  0  0  0  0  0
   -3.9616    3.0563    0.5492 H   0  0  0  0  0  0  0  0  0  0  0  0
   -3.8005    5.5526    0.4118 H   0  0  0  0  0  0  0  0  0  0  0  0
   -2.0047    5.4374    0.0122 H   0  0  0  0  0  0  0  0  0  0  0  0
   -4.4704    4.2230   -1.5990 H   0  0  0  0  0  0  0  0  0  0  0  0
   -2.6847    4.0332   -2.1187 H   0  0  0  0  0  0  0  0  0  0  0  0
   -4.5425   -0.9967    0.3196 H   0  0  0  0  0  0  0  0  0  0  0  0
  1  2  1  0
  1  3  1  0
  3  4  1  0
  4  5  1  0
  4  6  2  0
  3  7  2  0
  7  8  1  0
  8  9  2  0
  9 10  1  0
 10 11  1  0
 11 12  1  0
 12 13  2  0
 13 14  1  0
 14 15  2  0
 15 16  1  0
 16 17  1  0
 15 18  1  0
 18 19  2  0
  9 20  1  0
 20 21  2  0
 21 22  1  0
 22 23  1  0
 22 24  1  0
  8 25  1  0
 25 26  2  0
 26 27  1  0
 27 28  1  0
 28 29  1  0
 29 30  1  0
 26 31  1  0
 31 32  2  0
 21  1  1  0
 30 28  1  0
 32  7  1  0
 19 12  1  0
  2 33  1  0
  2 34  1  0
  2 35  1  0
  5 36  1  0
 10 37  1  0
 11 38  1  0
 11 39  1  0
 13 40  1  0
 14 41  1  0
 17 42  1  0
 17 43  1  0
 17 44  1  0
 18 45  1  0
 19 46  1  0
 22 47  1  0
 27 48  1  0
 28 49  1  0
 29 50  1  0
 29 51  1  0
 30 52  1  0
 30 53  1  0
 32 54  1  0
M  END
$$$$
[H]c1c([H])c([H])c(C(=O)N([H])[C@@]2([H])C(=O)N([H])[C@@]([H])(C([H])(C([H])([H])[H])C([H])([H])[H])N([H])C(=O)[C@@]([H])(C(=O)N([H])C([H])([H])C([H])([H])N([H])[H])C([H])([H])c3c([H])c([H])c(F)c([H])c32)c([H])c1[H]
     RDKit          3D

 65 67  0  0  0  0  0  0  0  0999 V2000
    0.6031   -4.1052    1.6155 C   0  0  0  0  0  0  0  0  0  0  0  0
   -0.3143   -3.7442    0.4838 C   0  0  0  0  0  0  0  0  0  0  0  0
   -0.2761   -4.8601   -0.5356 C   0  0  0  0  0  0  0  0  0  0  0  0
    0.0502   -2.4038   -0.1353 C   0  0  2  0  0  0  0  0  0  0  0  0
   -0.8891   -2.1564   -1.2071 N   0  0  0  0  0  0  0  0  0  0  0  0
   -1.2564   -0.8656   -1.6772 C   0  0  0  0  0  0  0  0  0  0  0  0
   -1.5090   -0.6712   -2.9133 O   0  0  0  0  0  0  0  0  0  0  0  0
   -1.3717    0.3190   -0.7921 C   0  0  2  0  0  0  0  0  0  0  0  0
   -2.7905    0.5768   -0.6079 N   0  0  0  0  0  0  0  0  0  0  0  0
   -3.4375    0.4787    0.6444 C   0  0  0  0  0  0  0  0  0  0  0  0
   -2.7940    0.1532    1.6923 O   0  0  0  0  0  0  0  0  0  0  0  0
   -4.8536    0.7375    0.8200 C   0  0  0  0  0  0  0  0  0  0  0  0
   -5.4511    0.6874    2.0808 C   0  0  0  0  0  0  0  0  0  0  0  0
   -6.7844    0.9242    2.2915 C   0  0  0  0  0  0  0  0  0  0  0  0
   -7.6013    1.2287    1.2303 C   0  0  0  0  0  0  0  0  0  0  0  0
   -7.0563    1.2867   -0.0130 C   0  0  0  0  0  0  0  0  0  0  0  0
   -5.6930    1.0434   -0.2196 C   0  0  0  0  0  0  0  0  0  0  0  0
    1.4239   -2.3793   -0.5707 N   0  0  0  0  0  0  0  0  0  0  0  0
    2.3845   -1.3993   -0.3020 C   0  0  0  0  0  0  0  0  0  0  0  0
    3.5621   -1.7914    0.0164 O   0  0  0  0  0  0  0  0  0  0  0  0
    2.1243    0.0838   -0.3632 C   0  0  2  0  0  0  0  0  0  0  0  0
    1.6215    0.4853   -1.7202 C   0  0  0  0  0  0  0  0  0  0  0  0
    0.6319    1.5900   -1.7043 C   0  0  0  0  0  0  0  0  0  0  0  0
    1.1185    2.8278   -2.1565 C   0  0  0  0  0  0  0  0  0  0  0  0
    0.3467    3.9654   -2.2172 C   0  0  0  0  0  0  0  0  0  0  0  0
   -0.9673    3.8969   -1.8173 C   0  0  0  0  0  0  0  0  0  0  0  0
   -1.7966    4.9858   -1.8491 F   0  0  0  0  0  0  0  0  0  0  0  0
   -1.4440    2.6877   -1.3750 C   0  0  0  0  0  0  0  0  0  0  0  0
   -0.6659    1.5208   -1.3088 C   0  0  0  0  0  0  0  0  0  0  0  0
    3.3516    0.8122    0.0252 C   0  0  0  0  0  0  0  0  0  0  0  0
    3.3255    1.5831    1.0167 O   0  0  0  0  0  0  0  0  0  0  0  0
    4.5833    0.6860   -0.6753 N   0  0  0  0  0  0  0  0  0  0  0  0
    5.7788    1.3731   -0.3247 C   0  0  0  0  0  0  0  0  0  0  0  0
    6.2975    1.0765    1.0585 C   0  0  0  0  0  0  0  0  0  0  0  0
    7.5230    1.8756    1.2180 N   0  0  0  0  0  0  0  0  0  0  0  0
    0.1153   -4.9363    2.1774 H   0  0  0  0  0  0  0  0  0  0  0  0
    0.7075   -3.2726    2.3258 H   0  0  0  0  0  0  0  0  0  0  0  0
    1.5695   -4.5134    1.2546 H   0  0  0  0  0  0  0  0  0  0  0  0
   -1.3437   -3.7198    0.8949 H   0  0  0  0  0  0  0  0  0  0  0  0
    0.1786   -4.4917   -1.4896 H   0  0  0  0  0  0  0  0  0  0  0  0
    0.2458   -5.7308   -0.1296 H   0  0  0  0  0  0  0  0  0  0  0  0
   -1.3207   -5.1634   -0.8349 H   0  0  0  0  0  0  0  0  0  0  0  0
   -0.0559   -1.6723    0.6927 H   0  0  0  0  0  0  0  0  0  0  0  0
   -1.3273   -2.9775   -1.6698 H   0  0  0  0  0  0  0  0  0  0  0  0
   -1.0090    0.0482    0.2356 H   0  0  0  0  0  0  0  0  0  0  0  0
   -3.3434    0.8437   -1.4369 H   0  0  0  0  0  0  0  0  0  0  0  0
   -4.8421    0.4501    2.9504 H   0  0  0  0  0  0  0  0  0  0  0  0
   -7.2502    0.8860    3.2693 H   0  0  0  0  0  0  0  0  0  0  0  0
   -8.6611    1.4235    1.3493 H   0  0  0  0  0  0  0  0  0  0  0  0
   -7.6339    1.5217   -0.9116 H   0  0  0  0  0  0  0  0  0  0  0  0
   -5.3029    1.0986   -1.2175 H   0  0  0  0  0  0  0  0  0  0  0  0
    1.7307   -3.2096   -1.1654 H   0  0  0  0  0  0  0  0  0  0  0  0
    1.3301    0.2860    0.3751 H   0  0  0  0  0  0  0  0  0  0  0  0
    2.5574    0.7977   -2.2883 H   0  0  0  0  0  0  0  0  0  0  0  0
    1.2863   -0.4027   -2.3110 H   0  0  0  0  0  0  0  0  0  0  0  0
    2.1551    2.9256   -2.4823 H   0  0  0  0  0  0  0  0  0  0  0  0
    0.7188    4.9097   -2.5625 H   0  0  0  0  0  0  0  0  0  0  0  0
   -2.4952    2.6588   -1.0612 H   0  0  0  0  0  0  0  0  0  0  0  0
    4.5896    0.0388   -1.5018 H   0  0  0  0  0  0  0  0  0  0  0  0
    6.5798    1.1106   -1.0353 H   0  0  0  0  0  0  0  0  0  0  0  0
    5.6293    2.4717   -0.4021 H   0  0  0  0  0  0  0  0  0  0  0  0
    5.6154    1.3240    1.8702 H   0  0  0  0  0  0  0  0  0  0  0  0
    6.6178    0.0169    1.1366 H   0  0  0  0  0  0  0  0  0  0  0  0
    7.9840    1.9113    0.2773 H   0  0  0  0  0  0  0  0  0  0  0  0
    7.1998    2.8579    1.4048 H   0  0  0  0  0  0  0  0  0  0  0  0
  1  2  1  0
  2  3  1  0
  2  4  1  0
  4  5  1  0
  5  6  1  0
  6  7  2  0
  6  8  1  0
  8  9  1  0
  9 10  1  0
 10 11  2  0
 10 12  1  0
 12 13  2  0
 13 14  1  0
 14 15  2  0
 15 16  1  0
 16 17  2  0
  4 18  1  0
 18 19  1  0
 19 20  2  0
 19 21  1  0
 21 22  1  0
 22 23  1  0
 23 24  2  0
 24 25  1  0
 25 26  2  0
 26 27  1  0
 26 28  1  0
 28 29  2  0
 21 30  1  0
 30 31  2  0
 30 32  1  0
 32 33  1  0
 33 34  1  0
 34 35  1  0
 29  8  1  0
 17 12  1  0
 29 23  1  0
  1 36  1  0
  1 37  1  0
  1 38  1  0
  2 39  1  0
  3 40  1  0
  3 41  1  0
  3 42  1  0
  4 43  1  1
  5 44  1  0
  8 45  1  1
  9 46  1  0
 13 47  1  0
 14 48  1  0
 15 49  1  0
 16 50  1  0
 17 51  1  0
 18 52  1  0
 21 53  1  1
 22 54  1  0
 22 55  1  0
 24 56  1  0
 25 57  1  0
 28 58  1  0
 32 59  1  0
 33 60  1  0
 33 61  1  0
 34 62  1  0
 34 63  1  0
 35 64  1  0
 35 65  1  0
M  END
$$$$
[H]O[C@@]1([H])C([H])([H])N(c2c([H])c([H])c(-c3nc(-c4c([H])c([H])c(N5C([H])([H])C([H])([H])C([H])(N6C([H])([H])C([H])([H])C([H])(N7C([H])([H])C([H])([H])C([H])([H])C([H])([H])C7([H])[H])C([H])([H])C6([H])[H])C([H])([H])C5([H])[H])c([H])c4[H])c([H])s3)c([H])c2[H])C([H])([H])[C@@]1([H])C([H])([H])[H]
     RDKit          3D

 89 95  0  0  0  0  0  0  0  0999 V2000
   13.2976   -1.1538    1.3274 C   0  0  0  0  0  0  0  0  0  0  0  0
   11.9946   -0.3645    1.3115 C   0  0  2  0  0  0  0  0  0  0  0  0
   11.0424   -0.9497    0.2990 C   0  0  0  0  0  0  0  0  0  0  0  0
   10.4956    0.2022   -0.3628 N   0  0  0  0  0  0  0  0  0  0  0  0
   11.5503    1.1834   -0.4789 C   0  0  0  0  0  0  0  0  0  0  0  0
   12.2210    1.0572    0.8894 C   0  0  2  0  0  0  0  0  0  0  0  0
   13.5428    1.4146    0.7654 O   0  0  0  0  0  0  0  0  0  0  0  0
    9.1510    0.3877   -0.8235 C   0  0  0  0  0  0  0  0  0  0  0  0
    8.0996   -0.4105   -0.4160 C   0  0  0  0  0  0  0  0  0  0  0  0
    6.8217   -0.1951   -0.8890 C   0  0  0  0  0  0  0  0  0  0  0  0
    6.5654    0.8226   -1.7813 C   0  0  0  0  0  0  0  0  0  0  0  0
    7.5703    1.6256   -2.2050 C   0  0  0  0  0  0  0  0  0  0  0  0
    8.8359    1.3960   -1.7220 C   0  0  0  0  0  0  0  0  0  0  0  0
    5.1638    1.0390   -2.2413 C   0  0  0  0  0  0  0  0  0  0  0  0
    4.0720    0.4579   -1.8177 N   0  0  0  0  0  0  0  0  0  0  0  0
    2.9115    0.7978   -2.3251 C   0  0  0  0  0  0  0  0  0  0  0  0
    2.9234    1.7683   -3.2962 C   0  0  0  0  0  0  0  0  0  0  0  0
    4.5870    2.1311   -3.4181 S   0  0  0  0  0  0  0  0  0  0  0  0
    1.6146    0.2119   -1.8752 C   0  0  0  0  0  0  0  0  0  0  0  0
    0.4311    0.5412   -2.4591 C   0  0  0  0  0  0  0  0  0  0  0  0
   -0.7840    0.0050   -2.0067 C   0  0  0  0  0  0  0  0  0  0  0  0
   -0.8069   -0.8777   -0.9491 C   0  0  0  0  0  0  0  0  0  0  0  0
    0.3884   -1.2109   -0.3590 C   0  0  0  0  0  0  0  0  0  0  0  0
    1.5825   -0.6720   -0.8188 C   0  0  0  0  0  0  0  0  0  0  0  0
   -2.0220   -1.4398   -0.4874 N   0  0  0  0  0  0  0  0  0  0  0  0
   -2.1681   -2.0194    0.8192 C   0  0  0  0  0  0  0  0  0  0  0  0
   -3.2636   -1.2603    1.5477 C   0  0  0  0  0  0  0  0  0  0  0  0
   -4.5160   -1.2715    0.7079 C   0  0  0  0  0  0  0  0  0  0  0  0
   -4.2439   -0.6223   -0.6597 C   0  0  0  0  0  0  0  0  0  0  0  0
   -3.1750   -1.4634   -1.3454 C   0  0  0  0  0  0  0  0  0  0  0  0
   -5.6453   -0.7310    1.3399 N   0  0  0  0  0  0  0  0  0  0  0  0
   -5.6103    0.6455    1.6868 C   0  0  0  0  0  0  0  0  0  0  0  0
   -6.9753    1.2314    1.9184 C   0  0  0  0  0  0  0  0  0  0  0  0
   -8.1005    0.2846    2.0307 C   0  0  0  0  0  0  0  0  0  0  0  0
   -7.7742   -1.1438    2.3122 C   0  0  0  0  0  0  0  0  0  0  0  0
   -6.3047   -1.4843    2.3429 C   0  0  0  0  0  0  0  0  0  0  0  0
   -9.0705    0.3258    0.9807 N   0  0  0  0  0  0  0  0  0  0  0  0
   -8.6809   -0.0023   -0.3267 C   0  0  0  0  0  0  0  0  0  0  0  0
   -9.9795   -0.3514   -1.0888 C   0  0  0  0  0  0  0  0  0  0  0  0
  -10.9517    0.7963   -1.0751 C   0  0  0  0  0  0  0  0  0  0  0  0
  -10.4383    1.9673   -0.2620 C   0  0  0  0  0  0  0  0  0  0  0  0
   -9.9900    1.4322    1.0821 C   0  0  0  0  0  0  0  0  0  0  0  0
   13.0896   -2.2389    1.4025 H   0  0  0  0  0  0  0  0  0  0  0  0
   13.9615   -0.7887    2.1200 H   0  0  0  0  0  0  0  0  0  0  0  0
   13.8199   -0.9351    0.3520 H   0  0  0  0  0  0  0  0  0  0  0  0
   11.5591   -0.3723    2.3268 H   0  0  0  0  0  0  0  0  0  0  0  0
   10.2630   -1.5763    0.7989 H   0  0  0  0  0  0  0  0  0  0  0  0
   11.5797   -1.5526   -0.4623 H   0  0  0  0  0  0  0  0  0  0  0  0
   11.1380    2.2115   -0.6049 H   0  0  0  0  0  0  0  0  0  0  0  0
   12.2136    0.8780   -1.2991 H   0  0  0  0  0  0  0  0  0  0  0  0
   11.6651    1.7720    1.5578 H   0  0  0  0  0  0  0  0  0  0  0  0
   13.9026    1.6145    1.6614 H   0  0  0  0  0  0  0  0  0  0  0  0
    8.3029   -1.2257    0.2963 H   0  0  0  0  0  0  0  0  0  0  0  0
    6.0435   -0.8602   -0.5275 H   0  0  0  0  0  0  0  0  0  0  0  0
    7.3346    2.4129   -2.9053 H   0  0  0  0  0  0  0  0  0  0  0  0
    9.6422    2.0320   -2.0543 H   0  0  0  0  0  0  0  0  0  0  0  0
    2.0639    2.1966   -3.8504 H   0  0  0  0  0  0  0  0  0  0  0  0
    0.4103    1.2321   -3.2942 H   0  0  0  0  0  0  0  0  0  0  0  0
   -1.6966    0.3101   -2.5104 H   0  0  0  0  0  0  0  0  0  0  0  0
    0.4686   -1.8840    0.4599 H   0  0  0  0  0  0  0  0  0  0  0  0
    2.5350   -0.9278   -0.3620 H   0  0  0  0  0  0  0  0  0  0  0  0
   -2.5397   -3.0676    0.6524 H   0  0  0  0  0  0  0  0  0  0  0  0
   -1.2774   -2.0898    1.4261 H   0  0  0  0  0  0  0  0  0  0  0  0
   -3.4714   -1.8468    2.4592 H   0  0  0  0  0  0  0  0  0  0  0  0
   -2.9224   -0.2411    1.6900 H   0  0  0  0  0  0  0  0  0  0  0  0
   -4.7283   -2.3448    0.4738 H   0  0  0  0  0  0  0  0  0  0  0  0
   -5.1494   -0.6670   -1.2531 H   0  0  0  0  0  0  0  0  0  0  0  0
   -3.8081    0.3876   -0.5198 H   0  0  0  0  0  0  0  0  0  0  0  0
   -3.0183   -1.1479   -2.3736 H   0  0  0  0  0  0  0  0  0  0  0  0
   -3.5311   -2.5343   -1.4259 H   0  0  0  0  0  0  0  0  0  0  0  0
   -5.0202    1.1993    0.9305 H   0  0  0  0  0  0  0  0  0  0  0  0
   -5.0421    0.7564    2.6496 H   0  0  0  0  0  0  0  0  0  0  0  0
   -6.9421    1.9403    2.7974 H   0  0  0  0  0  0  0  0  0  0  0  0
   -7.1778    1.9279    1.0541 H   0  0  0  0  0  0  0  0  0  0  0  0
   -8.7003    0.6141    2.9488 H   0  0  0  0  0  0  0  0  0  0  0  0
   -8.2040   -1.5411    3.2600 H   0  0  0  0  0  0  0  0  0  0  0  0
   -8.2113   -1.8178    1.5192 H   0  0  0  0  0  0  0  0  0  0  0  0
   -5.8460   -1.2408    3.3352 H   0  0  0  0  0  0  0  0  0  0  0  0
   -6.2329   -2.5841    2.2115 H   0  0  0  0  0  0  0  0  0  0  0  0
   -8.1277   -0.9771   -0.3246 H   0  0  0  0  0  0  0  0  0  0  0  0
   -8.1893    0.7619   -0.9317 H   0  0  0  0  0  0  0  0  0  0  0  0
  -10.4069   -1.2919   -0.6707 H   0  0  0  0  0  0  0  0  0  0  0  0
   -9.6786   -0.5445   -2.1237 H   0  0  0  0  0  0  0  0  0  0  0  0
  -11.2431    1.1162   -2.0979 H   0  0  0  0  0  0  0  0  0  0  0  0
  -11.8727    0.4273   -0.5462 H   0  0  0  0  0  0  0  0  0  0  0  0
   -9.6029    2.4896   -0.7549 H   0  0  0  0  0  0  0  0  0  0  0  0
  -11.2800    2.6858   -0.0378 H   0  0  0  0  0  0  0  0  0  0  0  0
  -10.8881    1.0421    1.6143 H   0  0  0  0  0  0  0  0  0  0  0  0
   -9.5461    2.1891    1.7439 H   0  0  0  0  0  0  0  0  0  0  0  0
  1  2  1  0
  2  3  1  0
  3  4  1  0
  4  5  1  0
  5  6  1  0
  6  7  1  0
  4  8  1  0
  8  9  2  0
  9 10  1  0
 10 11  2  0
 11 12  1  0
 12 13  2  0
 11 14  1  0
 14 15  2  0
 15 16  1  0
 16 17  2  0
 17 18  1  0
 16 19  1  0
 19 20  2  0
 20 21  1  0
 21 22  2  0
 22 23  1  0
 23 24  2  0
 22 25  1  0
 25 26  1  0
 26 27  1  0
 27 28  1  0
 28 29  1  0
 29 30  1  0
 28 31  1  0
 31 32  1  0
 32 33  1  0
 33 34  1  0
 34 35  1  0
 35 36  1  0
 34 37  1  0
 37 38  1  0
 38 39  1  0
 39 40  1  0
 40 41  1  0
 41 42  1  0
  6  2  1  0
 13  8  1  0
 18 14  1  0
 24 19  1  0
 30 25  1  0
 36 31  1  0
 42 37  1  0
  1 43  1  0
  1 44  1  0
  1 45  1  0
  2 46  1  1
  3 47  1  0
  3 48  1  0
  5 49  1  0
  5 50  1  0
  6 51  1  1
  7 52  1  0
  9 53  1  0
 10 54  1  0
 12 55  1  0
 13 56  1  0
 17 57  1  0
 20 58  1  0
 21 59  1  0
 23 60  1  0
 24 61  1  0
 26 62  1  0
 26 63  1  0
 27 64  1  0
 27 65  1  0
 28 66  1  0
 29 67  1  0
 29 68  1  0
 30 69  1  0
 30 70  1  0
 32 71  1  0
 32 72  1  0
 33 73  1  0
 33 74  1  0
 34 75  1  0
 35 76  1  0
 35 77  1  0
 36 78  1  0
 36 79  1  0
 38 80  1  0
 38 81  1  0
 39 82  1  0
 39 83  1  0
 40 84  1  0
 40 85  1  0
 41 86  1  0
 41 87  1  0
 42 88  1  0
 42 89  1  0
M  END
$$$$
[H]c1nc(N2C([H])([H])C([H])([H])N(C(=O)c3c([H])c([H])c([H])c(C(F)(F)F)c3[H])C([H])([H])C2([H])[H])c2c([H])c(OC([H])([H])[H])c(OC([H])([H])[H])c([H])c2n1
     RDKit          3D

 53 56  0  0  0  0  0  0  0  0999 V2000
   -7.9846    1.2880    0.8533 C   0  0  0  0  0  0  0  0  0  0  0  0
   -6.8764    0.9774    0.0895 O   0  0  0  0  0  0  0  0  0  0  0  0
   -5.5992    0.6916    0.3396 C   0  0  0  0  0  0  0  0  0  0  0  0
   -4.9933    0.6517    1.5828 C   0  0  0  0  0  0  0  0  0  0  0  0
   -3.6718    0.3603    1.7839 C   0  0  0  0  0  0  0  0  0  0  0  0
   -3.1203    0.3845    3.0033 N   0  0  0  0  0  0  0  0  0  0  0  0
   -1.8186    0.1583    3.2239 C   0  0  0  0  0  0  0  0  0  0  0  0
   -1.0539   -0.1034    2.1588 N   0  0  0  0  0  0  0  0  0  0  0  0
   -1.5216   -0.1541    0.8612 C   0  0  0  0  0  0  0  0  0  0  0  0
   -0.5696   -0.3597   -0.1555 N   0  0  0  0  0  0  0  0  0  0  0  0
   -0.3864    0.4050   -1.3626 C   0  0  0  0  0  0  0  0  0  0  0  0
    0.9687    1.0598   -1.3901 C   0  0  0  0  0  0  0  0  0  0  0  0
    2.0523    0.1005   -1.0085 N   0  0  0  0  0  0  0  0  0  0  0  0
    1.6230   -1.2450   -0.8266 C   0  0  0  0  0  0  0  0  0  0  0  0
    0.4425   -1.3851    0.1185 C   0  0  0  0  0  0  0  0  0  0  0  0
    3.3030    0.7097   -0.9384 C   0  0  0  0  0  0  0  0  0  0  0  0
    3.2254    2.0126   -1.2340 O   0  0  0  0  0  0  0  0  0  0  0  0
    4.6257    0.3081   -0.6430 C   0  0  0  0  0  0  0  0  0  0  0  0
    5.6543    1.2501   -0.9071 C   0  0  0  0  0  0  0  0  0  0  0  0
    6.9729    0.9414   -0.6312 C   0  0  0  0  0  0  0  0  0  0  0  0
    7.3436   -0.2365   -0.1126 C   0  0  0  0  0  0  0  0  0  0  0  0
    6.3857   -1.2091    0.1771 C   0  0  0  0  0  0  0  0  0  0  0  0
    5.0778   -0.8668   -0.1129 C   0  0  0  0  0  0  0  0  0  0  0  0
    6.8071   -2.4912    0.7393 C   0  0  0  0  0  0  0  0  0  0  0  0
    6.2550   -3.5658    0.0418 F   0  0  0  0  0  0  0  0  0  0  0  0
    8.1993   -2.6287    0.5646 F   0  0  0  0  0  0  0  0  0  0  0  0
    6.5489   -2.6292    2.0891 F   0  0  0  0  0  0  0  0  0  0  0  0
   -2.8398    0.0761    0.6793 C   0  0  0  0  0  0  0  0  0  0  0  0
   -3.4188    0.1019   -0.5766 C   0  0  0  0  0  0  0  0  0  0  0  0
   -4.7600    0.4018   -0.7588 C   0  0  0  0  0  0  0  0  0  0  0  0
   -5.3223    0.4312   -1.9929 O   0  0  0  0  0  0  0  0  0  0  0  0
   -4.6380    0.1748   -3.1872 C   0  0  0  0  0  0  0  0  0  0  0  0
   -7.7828    2.2420    1.4311 H   0  0  0  0  0  0  0  0  0  0  0  0
   -8.2309    0.5420    1.6361 H   0  0  0  0  0  0  0  0  0  0  0  0
   -8.8601    1.5262    0.1834 H   0  0  0  0  0  0  0  0  0  0  0  0
   -5.6403    0.8608    2.4449 H   0  0  0  0  0  0  0  0  0  0  0  0
   -1.4060    0.1694    4.1932 H   0  0  0  0  0  0  0  0  0  0  0  0
   -1.0989    1.2887   -1.4225 H   0  0  0  0  0  0  0  0  0  0  0  0
   -0.4833   -0.1818   -2.2929 H   0  0  0  0  0  0  0  0  0  0  0  0
    1.2230    1.4474   -2.3781 H   0  0  0  0  0  0  0  0  0  0  0  0
    1.0185    1.8552   -0.6262 H   0  0  0  0  0  0  0  0  0  0  0  0
    1.3118   -1.6842   -1.8405 H   0  0  0  0  0  0  0  0  0  0  0  0
    2.3787   -1.9648   -0.4789 H   0  0  0  0  0  0  0  0  0  0  0  0
    0.0408   -2.4118    0.0146 H   0  0  0  0  0  0  0  0  0  0  0  0
    0.8616   -1.2170    1.1633 H   0  0  0  0  0  0  0  0  0  0  0  0
    5.4678    2.2195   -1.3251 H   0  0  0  0  0  0  0  0  0  0  0  0
    7.7417    1.6979   -0.8449 H   0  0  0  0  0  0  0  0  0  0  0  0
    8.3779   -0.4934    0.1042 H   0  0  0  0  0  0  0  0  0  0  0  0
    4.3666   -1.6529    0.1454 H   0  0  0  0  0  0  0  0  0  0  0  0
   -2.8232   -0.1586   -1.4170 H   0  0  0  0  0  0  0  0  0  0  0  0
   -4.7469   -0.9057   -3.4983 H   0  0  0  0  0  0  0  0  0  0  0  0
   -3.5723    0.4188   -3.1556 H   0  0  0  0  0  0  0  0  0  0  0  0
   -5.0546    0.7920   -4.0339 H   0  0  0  0  0  0  0  0  0  0  0  0
  1  2  1  0
  2  3  1  0
  3  4  2  0
  4  5  1  0
  5  6  2  0
  6  7  1  0
  7  8  2  0
  8  9  1  0
  9 10  1  0
 10 11  1  0
 11 12  1  0
 12 13  1  0
 13 14  1  0
 14 15  1  0
 13 16  1  0
 16 17  2  0
 16 18  1  0
 18 19  2  0
 19 20  1  0
 20 21  2  0
 21 22  1  0
 22 23  2  0
 22 24  1  0
 24 25  1  0
 24 26  1  0
 24 27  1  0
  9 28  2  0
 28 29  1  0
 29 30  2  0
 30 31  1  0
 31 32  1  0
 30  3  1  0
 28  5  1  0
 15 10  1  0
 23 18  1  0
  1 33  1  0
  1 34  1  0
  1 35  1  0
  4 36  1  0
  7 37  1  0
 11 38  1  0
 11 39  1  0
 12 40  1  0
 12 41  1  0
 14 42  1  0
 14 43  1  0
 15 44  1  0
 15 45  1  0
 19 46  1  0
 20 47  1  0
 21 48  1  0
 23 49  1  0
 29 50  1  0
 32 51  1  0
 32 52  1  0
 32 53  1  0
M  END
$$$$
[H]c1c([H])c([H])c(C2(C(=O)N([H])[H])C([H])([H])C([H])([H])N(C([H])([H])C([H])([H])C3(c4c([H])c([H])c(Cl)c(Cl)c4[H])C([H])([H])N(C(=O)c4c([H])c(OC([H])([H])[H])c(OC([H])([H])[H])c(OC([H])([H])[H])c4[H])C([H])([H])C3([H])[H])C([H])([H])C2([H])[H])c([H])c1[H]
     RDKit          3D

 83 87  0  0  0  0  0  0  0  0999 V2000
   -8.2125   -2.6219   -0.9715 C   0  0  0  0  0  0  0  0  0  0  0  0
   -8.4769   -1.5015   -0.1212 O   0  0  0  0  0  0  0  0  0  0  0  0
   -7.4244   -0.5787    0.0804 C   0  0  0  0  0  0  0  0  0  0  0  0
   -6.2120   -0.7624   -0.5214 C   0  0  0  0  0  0  0  0  0  0  0  0
   -5.1651    0.1204   -0.3425 C   0  0  0  0  0  0  0  0  0  0  0  0
   -5.3845    1.2028    0.4696 C   0  0  0  0  0  0  0  0  0  0  0  0
   -6.6306    1.4059    1.0963 C   0  0  0  0  0  0  0  0  0  0  0  0
   -6.8119    2.5107    1.9054 O   0  0  0  0  0  0  0  0  0  0  0  0
   -5.7530    3.4168    2.0898 C   0  0  0  0  0  0  0  0  0  0  0  0
   -7.6408    0.4935    0.8842 C   0  0  0  0  0  0  0  0  0  0  0  0
   -8.8385    0.7384    1.5230 O   0  0  0  0  0  0  0  0  0  0  0  0
   -9.8678    1.5390    0.9663 C   0  0  0  0  0  0  0  0  0  0  0  0
   -3.9561   -0.0926   -1.0614 C   0  0  0  0  0  0  0  0  0  0  0  0
   -4.0716   -0.8910   -2.0972 O   0  0  0  0  0  0  0  0  0  0  0  0
   -2.6953    0.4368   -0.7895 N   0  0  0  0  0  0  0  0  0  0  0  0
   -2.2098    1.2536    0.2823 C   0  0  0  0  0  0  0  0  0  0  0  0
   -0.7471    0.8554    0.4384 C   0  0  0  0  0  0  0  0  0  0  0  0
   -0.4621   -0.0417   -0.6906 C   0  0  0  0  0  0  0  0  0  0  0  0
    0.9648    0.2480   -1.2507 C   0  0  0  0  0  0  0  0  0  0  0  0
    1.8661   -0.0400   -0.0949 C   0  0  0  0  0  0  0  0  0  0  0  0
    3.2469    0.1493   -0.2641 N   0  0  0  0  0  0  0  0  0  0  0  0
    3.9114   -0.2581    0.9446 C   0  0  0  0  0  0  0  0  0  0  0  0
    5.3930   -0.3557    0.8589 C   0  0  0  0  0  0  0  0  0  0  0  0
    5.9260    0.5548   -0.2681 C   0  0  0  0  0  0  0  0  0  0  0  0
    5.3464   -0.0230   -1.5263 C   0  0  0  0  0  0  0  0  0  0  0  0
    3.8630   -0.1811   -1.4802 C   0  0  0  0  0  0  0  0  0  0  0  0
    5.4923    1.9288   -0.0035 C   0  0  0  0  0  0  0  0  0  0  0  0
    5.6569    2.6505    1.1905 N   0  0  0  0  0  0  0  0  0  0  0  0
    4.8980    2.5312   -0.9730 O   0  0  0  0  0  0  0  0  0  0  0  0
    7.3832    0.4536   -0.2085 C   0  0  0  0  0  0  0  0  0  0  0  0
    8.1366   -0.0990   -1.2355 C   0  0  0  0  0  0  0  0  0  0  0  0
    9.4910   -0.2284   -1.1689 C   0  0  0  0  0  0  0  0  0  0  0  0
   10.1987    0.1852   -0.0708 C   0  0  0  0  0  0  0  0  0  0  0  0
    9.4861    0.7324    0.9552 C   0  0  0  0  0  0  0  0  0  0  0  0
    8.0997    0.8679    0.8943 C   0  0  0  0  0  0  0  0  0  0  0  0
   -1.5175    0.2501   -1.7112 C   0  0  0  0  0  0  0  0  0  0  0  0
   -0.5534   -1.5004   -0.4035 C   0  0  0  0  0  0  0  0  0  0  0  0
   -0.3992   -2.3639   -1.4968 C   0  0  0  0  0  0  0  0  0  0  0  0
   -0.4651   -3.7354   -1.3282 C   0  0  0  0  0  0  0  0  0  0  0  0
   -0.6854   -4.2880   -0.0731 C   0  0  0  0  0  0  0  0  0  0  0  0
   -0.7712   -6.0252    0.1496 Cl  0  0  0  0  0  0  0  0  0  0  0  0
   -0.8378   -3.4423    1.0067 C   0  0  0  0  0  0  0  0  0  0  0  0
   -1.1123   -4.0896    2.6322 Cl  0  0  0  0  0  0  0  0  0  0  0  0
   -0.7671   -2.0700    0.8093 C   0  0  0  0  0  0  0  0  0  0  0  0
   -7.9610   -2.2715   -1.9875 H   0  0  0  0  0  0  0  0  0  0  0  0
   -7.3227   -3.1402   -0.5173 H   0  0  0  0  0  0  0  0  0  0  0  0
   -9.0656   -3.3186   -0.9746 H   0  0  0  0  0  0  0  0  0  0  0  0
   -6.1021   -1.6540   -1.1603 H   0  0  0  0  0  0  0  0  0  0  0  0
   -4.6481    1.9647    0.6389 H   0  0  0  0  0  0  0  0  0  0  0  0
   -4.8550    2.9863    2.5653 H   0  0  0  0  0  0  0  0  0  0  0  0
   -5.4565    3.8009    1.0782 H   0  0  0  0  0  0  0  0  0  0  0  0
   -6.1705    4.2724    2.6782 H   0  0  0  0  0  0  0  0  0  0  0  0
   -9.9626    1.4180   -0.1119 H   0  0  0  0  0  0  0  0  0  0  0  0
   -9.6337    2.5841    1.2895 H   0  0  0  0  0  0  0  0  0  0  0  0
  -10.8308    1.2381    1.4355 H   0  0  0  0  0  0  0  0  0  0  0  0
   -2.3146    2.3219    0.0477 H   0  0  0  0  0  0  0  0  0  0  0  0
   -2.7611    0.9908    1.2213 H   0  0  0  0  0  0  0  0  0  0  0  0
   -0.1413    1.7850    0.3076 H   0  0  0  0  0  0  0  0  0  0  0  0
   -0.5135    0.4990    1.4500 H   0  0  0  0  0  0  0  0  0  0  0  0
    0.9584    1.3103   -1.5609 H   0  0  0  0  0  0  0  0  0  0  0  0
    1.0652   -0.3809   -2.1232 H   0  0  0  0  0  0  0  0  0  0  0  0
    1.5234    0.6100    0.7639 H   0  0  0  0  0  0  0  0  0  0  0  0
    1.6497   -1.0775    0.2689 H   0  0  0  0  0  0  0  0  0  0  0  0
    3.6834    0.5480    1.7050 H   0  0  0  0  0  0  0  0  0  0  0  0
    3.4420   -1.1701    1.3874 H   0  0  0  0  0  0  0  0  0  0  0  0
    5.9155   -0.1649    1.8011 H   0  0  0  0  0  0  0  0  0  0  0  0
    5.6588   -1.3792    0.5240 H   0  0  0  0  0  0  0  0  0  0  0  0
    5.6823    0.6300   -2.3733 H   0  0  0  0  0  0  0  0  0  0  0  0
    5.8022   -1.0574   -1.6061 H   0  0  0  0  0  0  0  0  0  0  0  0
    3.4421    0.5315   -2.2633 H   0  0  0  0  0  0  0  0  0  0  0  0
    3.6125   -1.2067   -1.8716 H   0  0  0  0  0  0  0  0  0  0  0  0
    5.1169    2.4197    2.0502 H   0  0  0  0  0  0  0  0  0  0  0  0
    6.3449    3.4433    1.2116 H   0  0  0  0  0  0  0  0  0  0  0  0
    7.6394   -0.4352   -2.1156 H   0  0  0  0  0  0  0  0  0  0  0  0
   10.0669   -0.6681   -1.9965 H   0  0  0  0  0  0  0  0  0  0  0  0
   11.2764    0.0955    0.0101 H   0  0  0  0  0  0  0  0  0  0  0  0
   10.0221    1.0614    1.8272 H   0  0  0  0  0  0  0  0  0  0  0  0
    7.6424    1.2989    1.7746 H   0  0  0  0  0  0  0  0  0  0  0  0
   -1.3193    1.1871   -2.2674 H   0  0  0  0  0  0  0  0  0  0  0  0
   -1.7202   -0.6059   -2.3632 H   0  0  0  0  0  0  0  0  0  0  0  0
   -0.2277   -1.9614   -2.4893 H   0  0  0  0  0  0  0  0  0  0  0  0
   -0.3443   -4.3888   -2.2063 H   0  0  0  0  0  0  0  0  0  0  0  0
   -0.8854   -1.4519    1.6773 H   0  0  0  0  0  0  0  0  0  0  0  0
  1  2  1  0
  2  3  1  0
  3  4  2  0
  4  5  1  0
  5  6  2  0
  6  7  1  0
  7  8  1  0
  8  9  1  0
  7 10  2  0
 10 11  1  0
 11 12  1  0
  5 13  1  0
 13 14  2  0
 13 15  1  0
 15 16  1  0
 16 17  1  0
 17 18  1  0
 18 19  1  0
 19 20  1  0
 20 21  1  0
 21 22  1  0
 22 23  1  0
 23 24  1  0
 24 25  1  0
 25 26  1  0
 24 27  1  0
 27 28  1  0
 27 29  2  0
 24 30  1  0
 30 31  2  0
 31 32  1  0
 32 33  2  0
 33 34  1  0
 34 35  2  0
 18 36  1  0
 18 37  1  0
 37 38  2  0
 38 39  1  0
 39 40  2  0
 40 41  1  0
 40 42  1  0
 42 43  1  0
 42 44  2  0
 10  3  1  0
 36 15  1  0
 44 37  1  0
 26 21  1  0
 35 30  1  0
  1 45  1  0
  1 46  1  0
  1 47  1  0
  4 48  1  0
  6 49  1  0
  9 50  1  0
  9 51  1  0
  9 52  1  0
 12 53  1  0
 12 54  1  0
 12 55  1  0
 16 56  1  0
 16 57  1  0
 17 58  1  0
 17 59  1  0
 19 60  1  0
 19 61  1  0
 20 62  1  0
 20 63  1  0
 22 64  1  0
 22 65  1  0
 23 66  1  0
 23 67  1  0
 25 68  1  0
 25 69  1  0
 26 70  1  0
 26 71  1  0
 28 72  1  0
 28 73  1  0
 31 74  1  0
 32 75  1  0
 33 76  1  0
 34 77  1  0
 35 78  1  0
 36 79  1  0
 36 80  1  0
 38 81  1  0
 39 82  1  0
 44 83  1  0
M  END
$$$$
[H]c1c([H])c(C([H])([H])Oc2c([H])c([H])c(N(C(=O)N([H])C([H])([H])C([H])([H])S(=O)(=O)C([H])([H])[H])C([H])(C([H])([H])[H])C([H])([H])[H])c([H])c2[H])c([H])c([H])c1F
     RDKit          3D

 53 54  0  0  0  0  0  0  0  0999 V2000
   -2.4429    1.6998    2.4933 C   0  0  0  0  0  0  0  0  0  0  0  0
   -1.6673    0.4007    2.4042 C   0  0  0  0  0  0  0  0  0  0  0  0
   -2.3706   -0.7291    3.0741 C   0  0  0  0  0  0  0  0  0  0  0  0
   -1.3103    0.0922    1.0260 N   0  0  0  0  0  0  0  0  0  0  0  0
   -2.3036   -0.1812    0.0463 C   0  0  0  0  0  0  0  0  0  0  0  0
   -1.9050   -0.4531   -1.1403 O   0  0  0  0  0  0  0  0  0  0  0  0
   -3.6955   -0.1744    0.2863 N   0  0  0  0  0  0  0  0  0  0  0  0
   -4.6576   -0.4651   -0.7686 C   0  0  0  0  0  0  0  0  0  0  0  0
   -6.0665   -0.3911   -0.2540 C   0  0  0  0  0  0  0  0  0  0  0  0
   -7.2092   -0.7502   -1.5605 S   0  0  0  0  0  0  0  0  0  0  0  0
   -7.0447    0.4041   -2.8985 C   0  0  0  0  0  0  0  0  0  0  0  0
   -8.5951   -0.6671   -1.0047 O   0  0  0  0  0  0  0  0  0  0  0  0
   -6.9747   -2.1550   -2.0664 O   0  0  0  0  0  0  0  0  0  0  0  0
    0.0812    0.0647    0.6644 C   0  0  0  0  0  0  0  0  0  0  0  0
    0.6179    0.9233   -0.2723 C   0  0  0  0  0  0  0  0  0  0  0  0
    1.9629    0.8871   -0.6123 C   0  0  0  0  0  0  0  0  0  0  0  0
    2.8154   -0.0169   -0.0195 C   0  0  0  0  0  0  0  0  0  0  0  0
    4.1504   -0.1205   -0.2948 O   0  0  0  0  0  0  0  0  0  0  0  0
    4.8707    0.6586   -1.2089 C   0  0  0  0  0  0  0  0  0  0  0  0
    6.2830    0.1960   -1.1761 C   0  0  0  0  0  0  0  0  0  0  0  0
    6.7207   -0.7919   -2.0330 C   0  0  0  0  0  0  0  0  0  0  0  0
    8.0277   -1.2429   -2.0253 C   0  0  0  0  0  0  0  0  0  0  0  0
    8.9465   -0.7066   -1.1432 C   0  0  0  0  0  0  0  0  0  0  0  0
   10.2410   -1.1026   -1.0833 F   0  0  0  0  0  0  0  0  0  0  0  0
    8.5221    0.2771   -0.2857 C   0  0  0  0  0  0  0  0  0  0  0  0
    7.2094    0.7324   -0.2912 C   0  0  0  0  0  0  0  0  0  0  0  0
    2.2762   -0.8759    0.9182 C   0  0  0  0  0  0  0  0  0  0  0  0
    0.9359   -0.8408    1.2579 C   0  0  0  0  0  0  0  0  0  0  0  0
   -3.3468    1.6069    3.1421 H   0  0  0  0  0  0  0  0  0  0  0  0
   -2.8066    2.0360    1.4927 H   0  0  0  0  0  0  0  0  0  0  0  0
   -1.8112    2.5129    2.9107 H   0  0  0  0  0  0  0  0  0  0  0  0
   -0.7037    0.5767    2.9575 H   0  0  0  0  0  0  0  0  0  0  0  0
   -2.5439   -1.5870    2.3848 H   0  0  0  0  0  0  0  0  0  0  0  0
   -1.7550   -1.1291    3.9022 H   0  0  0  0  0  0  0  0  0  0  0  0
   -3.3684   -0.4451    3.5075 H   0  0  0  0  0  0  0  0  0  0  0  0
   -4.0934    0.0376    1.2191 H   0  0  0  0  0  0  0  0  0  0  0  0
   -4.5517    0.2250   -1.6230 H   0  0  0  0  0  0  0  0  0  0  0  0
   -4.4619   -1.4880   -1.1649 H   0  0  0  0  0  0  0  0  0  0  0  0
   -6.2764    0.6191    0.1457 H   0  0  0  0  0  0  0  0  0  0  0  0
   -6.2338   -1.1281    0.5556 H   0  0  0  0  0  0  0  0  0  0  0  0
   -7.6273    1.3257   -2.7246 H   0  0  0  0  0  0  0  0  0  0  0  0
   -7.3744   -0.0378   -3.8627 H   0  0  0  0  0  0  0  0  0  0  0  0
   -5.9878    0.7067   -3.0467 H   0  0  0  0  0  0  0  0  0  0  0  0
   -0.0306    1.6454   -0.7549 H   0  0  0  0  0  0  0  0  0  0  0  0
    2.4009    1.5556   -1.3473 H   0  0  0  0  0  0  0  0  0  0  0  0
    4.4464    0.6668   -2.2265 H   0  0  0  0  0  0  0  0  0  0  0  0
    4.8868    1.7257   -0.8703 H   0  0  0  0  0  0  0  0  0  0  0  0
    5.9745   -1.2048   -2.7262 H   0  0  0  0  0  0  0  0  0  0  0  0
    8.3629   -2.0113   -2.6941 H   0  0  0  0  0  0  0  0  0  0  0  0
    9.2052    0.7351    0.4312 H   0  0  0  0  0  0  0  0  0  0  0  0
    6.8476    1.5029    0.3700 H   0  0  0  0  0  0  0  0  0  0  0  0
    2.9250   -1.6033    1.4059 H   0  0  0  0  0  0  0  0  0  0  0  0
    0.5055   -1.5152    1.9960 H   0  0  0  0  0  0  0  0  0  0  0  0
  1  2  1  0
  2  3  1  0
  2  4  1  0
  4  5  1  0
  5  6  2  0
  5  7  1  0
  7  8  1  0
  8  9  1  0
  9 10  1  0
 10 11  1  0
 10 12  2  0
 10 13  2  0
  4 14  1  0
 14 15  2  0
 15 16  1  0
 16 17  2  0
 17 18  1  0
 18 19  1  0
 19 20  1  0
 20 21  2  0
 21 22  1  0
 22 23  2  0
 23 24  1  0
 23 25  1  0
 25 26  2  0
 17 27  1  0
 27 28  2  0
 28 14  1  0
 26 20  1  0
  1 29  1  0
  1 30  1  0
  1 31  1  0
  2 32  1  0
  3 33  1  0
  3 34  1  0
  3 35  1  0
  7 36  1  0
  8 37  1  0
  8 38  1  0
  9 39  1  0
  9 40  1  0
 11 41  1  0
 11 42  1  0
 11 43  1  0
 15 44  1  0
 16 45  1  0
 19 46  1  0
 19 47  1  0
 21 48  1  0
 22 49  1  0
 25 50  1  0
 26 51  1  0
 27 52  1  0
 28 53  1  0
M  END
$$$$
[H]C(=O)[C@@]([H])(N([H])C(=O)[C@@]1([H])N(C(=O)[C@@]([H])(N([H])C(=O)OC([H])([H])c2c([H])c([H])c([H])c([H])c2[H])C([H])(c2c([H])c([H])c([H])c([H])c2[H])c2c([H])c([H])c([H])c([H])c2[H])C([H])([H])C([H])([H])C1([H])[H])C([H])([H])C([H])([H])C([H])([H])[H]
     RDKit          3D

 78 81  0  0  0  0  0  0  0  0999 V2000
    6.8578   -0.9691   -0.6304 C   0  0  0  0  0  0  0  0  0  0  0  0
    6.4560   -0.9474    0.8103 C   0  0  0  0  0  0  0  0  0  0  0  0
    5.0259   -0.7055    1.0823 C   0  0  0  0  0  0  0  0  0  0  0  0
    4.4366    0.5990    0.6676 C   0  0  2  0  0  0  0  0  0  0  0  0
    3.0163    0.5331    1.0944 N   0  0  0  0  0  0  0  0  0  0  0  0
    2.4931    1.3929    2.0774 C   0  0  0  0  0  0  0  0  0  0  0  0
    3.3120    2.2321    2.5927 O   0  0  0  0  0  0  0  0  0  0  0  0
    1.1269    1.4455    2.5771 C   0  0  2  0  0  0  0  0  0  0  0  0
    1.0286    1.3147    4.0430 C   0  0  0  0  0  0  0  0  0  0  0  0
    0.4747   -0.0402    4.3053 C   0  0  0  0  0  0  0  0  0  0  0  0
    0.0868   -0.5928    2.9742 C   0  0  0  0  0  0  0  0  0  0  0  0
    0.2519    0.4015    1.9759 N   0  0  0  0  0  0  0  0  0  0  0  0
   -0.2207    0.5709    0.6676 C   0  0  0  0  0  0  0  0  0  0  0  0
    0.1892    1.6792    0.0669 O   0  0  0  0  0  0  0  0  0  0  0  0
   -1.0925   -0.2309   -0.1845 C   0  0  1  0  0  0  0  0  0  0  0  0
   -1.3910    0.6205   -1.3719 N   0  0  0  0  0  0  0  0  0  0  0  0
   -2.5767    1.3348   -1.5506 C   0  0  0  0  0  0  0  0  0  0  0  0
   -3.4932    1.3166   -0.7146 O   0  0  0  0  0  0  0  0  0  0  0  0
   -2.7293    2.0873   -2.7003 O   0  0  0  0  0  0  0  0  0  0  0  0
   -3.8806    2.8158   -2.9468 C   0  0  0  0  0  0  0  0  0  0  0  0
   -4.2331    3.8380   -1.9599 C   0  0  0  0  0  0  0  0  0  0  0  0
   -5.5140    3.8998   -1.4957 C   0  0  0  0  0  0  0  0  0  0  0  0
   -5.9210    4.8305   -0.5769 C   0  0  0  0  0  0  0  0  0  0  0  0
   -5.0245    5.7405   -0.0944 C   0  0  0  0  0  0  0  0  0  0  0  0
   -3.6950    5.7031   -0.5528 C   0  0  0  0  0  0  0  0  0  0  0  0
   -3.3246    4.7530   -1.4766 C   0  0  0  0  0  0  0  0  0  0  0  0
   -0.6173   -1.5015   -0.7431 C   0  0  0  0  0  0  0  0  0  0  0  0
   -0.2357   -2.6272    0.0966 C   0  0  0  0  0  0  0  0  0  0  0  0
   -1.1593   -3.3600    0.8308 C   0  0  0  0  0  0  0  0  0  0  0  0
   -0.7440   -4.4344    1.5813 C   0  0  0  0  0  0  0  0  0  0  0  0
    0.5880   -4.8302    1.6398 C   0  0  0  0  0  0  0  0  0  0  0  0
    1.5126   -4.1201    0.9221 C   0  0  0  0  0  0  0  0  0  0  0  0
    1.0966   -3.0494    0.1750 C   0  0  0  0  0  0  0  0  0  0  0  0
   -1.5183   -2.0338   -1.8402 C   0  0  0  0  0  0  0  0  0  0  0  0
   -2.8837   -2.0748   -1.6863 C   0  0  0  0  0  0  0  0  0  0  0  0
   -3.7149   -2.5729   -2.6774 C   0  0  0  0  0  0  0  0  0  0  0  0
   -3.2050   -3.0493   -3.8632 C   0  0  0  0  0  0  0  0  0  0  0  0
   -1.8313   -3.0137   -4.0312 C   0  0  0  0  0  0  0  0  0  0  0  0
   -1.0036   -2.5081   -3.0213 C   0  0  0  0  0  0  0  0  0  0  0  0
    4.5047    0.9110   -0.7666 C   0  0  0  0  0  0  0  0  0  0  0  0
    3.4231    1.0019   -1.3794 O   0  0  0  0  0  0  0  0  0  0  0  0
    7.6714   -1.7381   -0.8087 H   0  0  0  0  0  0  0  0  0  0  0  0
    7.3386   -0.0096   -0.9041 H   0  0  0  0  0  0  0  0  0  0  0  0
    6.0171   -1.1853   -1.2944 H   0  0  0  0  0  0  0  0  0  0  0  0
    7.1105   -0.2102    1.3592 H   0  0  0  0  0  0  0  0  0  0  0  0
    6.8037   -1.9393    1.2414 H   0  0  0  0  0  0  0  0  0  0  0  0
    4.8365   -0.8069    2.2033 H   0  0  0  0  0  0  0  0  0  0  0  0
    4.3739   -1.5105    0.6127 H   0  0  0  0  0  0  0  0  0  0  0  0
    4.9383    1.4341    1.2073 H   0  0  0  0  0  0  0  0  0  0  0  0
    2.4367   -0.1786    0.6289 H   0  0  0  0  0  0  0  0  0  0  0  0
    0.6155    2.4234    2.3094 H   0  0  0  0  0  0  0  0  0  0  0  0
    2.0101    1.3799    4.5683 H   0  0  0  0  0  0  0  0  0  0  0  0
    0.3133    2.0591    4.5034 H   0  0  0  0  0  0  0  0  0  0  0  0
    1.2485   -0.7077    4.8065 H   0  0  0  0  0  0  0  0  0  0  0  0
   -0.3828   -0.0146    5.0237 H   0  0  0  0  0  0  0  0  0  0  0  0
    0.7305   -1.4943    2.8179 H   0  0  0  0  0  0  0  0  0  0  0  0
   -0.9905   -0.8820    3.0370 H   0  0  0  0  0  0  0  0  0  0  0  0
   -2.0545   -0.3785    0.3778 H   0  0  0  0  0  0  0  0  0  0  0  0
   -0.6381    0.6420   -2.0709 H   0  0  0  0  0  0  0  0  0  0  0  0
   -4.7238    2.1348   -3.1930 H   0  0  0  0  0  0  0  0  0  0  0  0
   -3.7027    3.3907   -3.9146 H   0  0  0  0  0  0  0  0  0  0  0  0
   -6.2533    3.1865   -1.8617 H   0  0  0  0  0  0  0  0  0  0  0  0
   -6.9725    4.8133   -0.2561 H   0  0  0  0  0  0  0  0  0  0  0  0
   -5.3390    6.4745    0.6288 H   0  0  0  0  0  0  0  0  0  0  0  0
   -3.0542    6.4496   -0.1253 H   0  0  0  0  0  0  0  0  0  0  0  0
   -2.2812    4.7555   -1.8112 H   0  0  0  0  0  0  0  0  0  0  0  0
    0.3452   -1.2087   -1.3333 H   0  0  0  0  0  0  0  0  0  0  0  0
   -2.1912   -3.0812    0.8061 H   0  0  0  0  0  0  0  0  0  0  0  0
   -1.4444   -5.0189    2.1635 H   0  0  0  0  0  0  0  0  0  0  0  0
    0.9041   -5.6765    2.2322 H   0  0  0  0  0  0  0  0  0  0  0  0
    2.5537   -4.4273    0.9644 H   0  0  0  0  0  0  0  0  0  0  0  0
    1.8514   -2.5010   -0.3808 H   0  0  0  0  0  0  0  0  0  0  0  0
   -3.3320   -1.7075   -0.7737 H   0  0  0  0  0  0  0  0  0  0  0  0
   -4.7824   -2.5877   -2.5160 H   0  0  0  0  0  0  0  0  0  0  0  0
   -3.8352   -3.4438   -4.6567 H   0  0  0  0  0  0  0  0  0  0  0  0
   -1.4247   -3.3873   -4.9606 H   0  0  0  0  0  0  0  0  0  0  0  0
    0.0694   -2.4871   -3.1654 H   0  0  0  0  0  0  0  0  0  0  0  0
    5.3625    1.0787   -1.3812 H   0  0  0  0  0  0  0  0  0  0  0  0
  1  2  1  0
  2  3  1  0
  3  4  1  0
  4  5  1  0
  5  6  1  0
  6  7  2  0
  6  8  1  0
  8  9  1  0
  9 10  1  0
 10 11  1  0
 11 12  1  0
 12 13  1  0
 13 14  2  0
 13 15  1  0
 15 16  1  0
 16 17  1  0
 17 18  2  0
 17 19  1  0
 19 20  1  0
 20 21  1  0
 21 22  2  0
 22 23  1  0
 23 24  2  0
 24 25  1  0
 25 26  2  0
 15 27  1  0
 27 28  1  0
 28 29  2  0
 29 30  1  0
 30 31  2  0
 31 32  1  0
 32 33  2  0
 27 34  1  0
 34 35  2  0
 35 36  1  0
 36 37  2  0
 37 38  1  0
 38 39  2  0
  4 40  1  0
 40 41  2  0
 12  8  1  0
 26 21  1  0
 33 28  1  0
 39 34  1  0
  1 42  1  0
  1 43  1  0
  1 44  1  0
  2 45  1  0
  2 46  1  0
  3 47  1  0
  3 48  1  0
  4 49  1  1
  5 50  1  0
  8 51  1  1
  9 52  1  0
  9 53  1  0
 10 54  1  0
 10 55  1  0
 11 56  1  0
 11 57  1  0
 15 58  1  1
 16 59  1  0
 20 60  1  0
 20 61  1  0
 22 62  1  0
 23 63  1  0
 24 64  1  0
 25 65  1  0
 26 66  1  0
 27 67  1  0
 29 68  1  0
 30 69  1  0
 31 70  1  0
 32 71  1  0
 33 72  1  0
 35 73  1  0
 36 74  1  0
 37 75  1  0
 38 76  1  0
 39 77  1  0
 40 78  1  0
M  END
$$$$
[H]c1nc2c([H])c([H])c(C(=O)OC([H])([H])C([H])([H])[H])c([H])c2s1
     RDKit          3D

 23 24  0  0  0  0  0  0  0  0999 V2000
    3.9049    0.8965   -0.2681 C   0  0  0  0  0  0  0  0  0  0  0  0
    3.5533   -0.5711   -0.1786 C   0  0  0  0  0  0  0  0  0  0  0  0
    2.1994   -0.6519    0.2342 O   0  0  0  0  0  0  0  0  0  0  0  0
    1.1826   -0.0937   -0.5163 C   0  0  0  0  0  0  0  0  0  0  0  0
    1.5195    0.4869   -1.5800 O   0  0  0  0  0  0  0  0  0  0  0  0
   -0.2176   -0.1614   -0.1161 C   0  0  0  0  0  0  0  0  0  0  0  0
   -0.6625   -0.7760    1.0278 C   0  0  0  0  0  0  0  0  0  0  0  0
   -1.9537   -0.8556    1.4262 C   0  0  0  0  0  0  0  0  0  0  0  0
   -2.9619   -0.2727    0.6316 C   0  0  0  0  0  0  0  0  0  0  0  0
   -4.2408   -0.2753    0.8956 N   0  0  0  0  0  0  0  0  0  0  0  0
   -5.0898    0.3072    0.0695 C   0  0  0  0  0  0  0  0  0  0  0  0
   -4.0499    0.8963   -1.1515 S   0  0  0  0  0  0  0  0  0  0  0  0
   -2.5579    0.3507   -0.5190 C   0  0  0  0  0  0  0  0  0  0  0  0
   -1.2037    0.4101   -0.8956 C   0  0  0  0  0  0  0  0  0  0  0  0
    3.2439    1.4644    0.4106 H   0  0  0  0  0  0  0  0  0  0  0  0
    3.8317    1.2906   -1.3114 H   0  0  0  0  0  0  0  0  0  0  0  0
    4.9400    0.9984    0.1160 H   0  0  0  0  0  0  0  0  0  0  0  0
    3.6006   -1.0455   -1.1839 H   0  0  0  0  0  0  0  0  0  0  0  0
    4.2048   -1.0974    0.5513 H   0  0  0  0  0  0  0  0  0  0  0  0
    0.1116   -1.2368    1.6606 H   0  0  0  0  0  0  0  0  0  0  0  0
   -2.1727   -1.3678    2.3487 H   0  0  0  0  0  0  0  0  0  0  0  0
   -6.1926    0.3839    0.1617 H   0  0  0  0  0  0  0  0  0  0  0  0
   -0.9893    0.9202   -1.8135 H   0  0  0  0  0  0  0  0  0  0  0  0
  1  2  1  0
  2  3  1  0
  3  4  1  0
  4  5  2  0
  4  6  1  0
  6  7  2  0
  7  8  1  0
  8  9  2  0
  9 10  1  0
 10 11  2  0
 11 12  1  0
 12 13  1  0
 13 14  2  0
 14  6  1  0
 13  9  1  0
  1 15  1  0
  1 16  1  0
  1 17  1  0
  2 18  1  0
  2 19  1  0
  7 20  1  0
  8 21  1  0
 11 22  1  0
 14 23  1  0
M  END
$$$$
[H]Oc1c([H])c([H])c(-c2oc3c([H])c(O[H])c([H])c([H])c3c2-c2c([H])c([H])c(O[H])c([H])c2[H])c([H])c1[H]
     RDKit          3D

 38 41  0  0  0  0  0  0  0  0999 V2000
    5.2574   -2.5495   -0.1134 O   0  0  0  0  0  0  0  0  0  0  0  0
    4.1614   -1.6965   -0.0639 C   0  0  0  0  0  0  0  0  0  0  0  0
    3.3843   -1.6411    1.0727 C   0  0  0  0  0  0  0  0  0  0  0  0
    2.3111   -0.7740    1.0578 C   0  0  0  0  0  0  0  0  0  0  0  0
    2.0163    0.0063   -0.0327 C   0  0  0  0  0  0  0  0  0  0  0  0
    2.8188   -0.0852   -1.1375 C   0  0  0  0  0  0  0  0  0  0  0  0
    3.9017   -0.9316   -1.1798 C   0  0  0  0  0  0  0  0  0  0  0  0
    0.8913    0.9323   -0.0798 C   0  0  0  0  0  0  0  0  0  0  0  0
    0.9294    2.2374   -0.2140 O   0  0  0  0  0  0  0  0  0  0  0  0
   -0.2643    2.7725   -0.2186 C   0  0  0  0  0  0  0  0  0  0  0  0
   -0.6807    4.0928   -0.3355 C   0  0  0  0  0  0  0  0  0  0  0  0
   -2.0351    4.3474   -0.3048 C   0  0  0  0  0  0  0  0  0  0  0  0
   -2.4844    5.6692   -0.4206 O   0  0  0  0  0  0  0  0  0  0  0  0
   -2.9943    3.3701   -0.1653 C   0  0  0  0  0  0  0  0  0  0  0  0
   -2.5640    2.0655   -0.0506 C   0  0  0  0  0  0  0  0  0  0  0  0
   -1.2062    1.7764   -0.0779 C   0  0  0  0  0  0  0  0  0  0  0  0
   -0.4631    0.6182    0.0088 C   0  0  0  0  0  0  0  0  0  0  0  0
   -1.0004   -0.7169    0.1664 C   0  0  0  0  0  0  0  0  0  0  0  0
   -1.7445   -1.0498    1.2792 C   0  0  0  0  0  0  0  0  0  0  0  0
   -2.2361   -2.3333    1.3858 C   0  0  0  0  0  0  0  0  0  0  0  0
   -2.0086   -3.2902    0.4202 C   0  0  0  0  0  0  0  0  0  0  0  0
   -2.5170   -4.5753    0.5555 O   0  0  0  0  0  0  0  0  0  0  0  0
   -1.2584   -2.9403   -0.6932 C   0  0  0  0  0  0  0  0  0  0  0  0
   -0.7589   -1.6547   -0.8127 C   0  0  0  0  0  0  0  0  0  0  0  0
    5.4878   -3.1333    0.6864 H   0  0  0  0  0  0  0  0  0  0  0  0
    3.6182   -2.2627    1.9429 H   0  0  0  0  0  0  0  0  0  0  0  0
    1.6877   -0.7239    1.9576 H   0  0  0  0  0  0  0  0  0  0  0  0
    2.6255    0.5076   -2.0155 H   0  0  0  0  0  0  0  0  0  0  0  0
    4.5438   -0.9984   -2.0767 H   0  0  0  0  0  0  0  0  0  0  0  0
    0.0499    4.9015   -0.4481 H   0  0  0  0  0  0  0  0  0  0  0  0
   -2.6602    5.9784   -1.3854 H   0  0  0  0  0  0  0  0  0  0  0  0
   -4.0559    3.5867   -0.1428 H   0  0  0  0  0  0  0  0  0  0  0  0
   -3.2657    1.2506    0.0615 H   0  0  0  0  0  0  0  0  0  0  0  0
   -1.9492   -0.3122    2.0749 H   0  0  0  0  0  0  0  0  0  0  0  0
   -2.8247   -2.5643    2.2851 H   0  0  0  0  0  0  0  0  0  0  0  0
   -3.4470   -4.7387    0.1656 H   0  0  0  0  0  0  0  0  0  0  0  0
   -1.0854   -3.6982   -1.4454 H   0  0  0  0  0  0  0  0  0  0  0  0
   -0.1803   -1.4428   -1.7060 H   0  0  0  0  0  0  0  0  0  0  0  0
  1  2  1  0
  2  3  2  0
  3  4  1  0
  4  5  2  0
  5  6  1  0
  6  7  2  0
  5  8  1  0
  8  9  1  0
  9 10  1  0
 10 11  2  0
 11 12  1  0
 12 13  1  0
 12 14  2  0
 14 15  1  0
 15 16  2  0
 16 17  1  0
 17 18  1  0
 18 19  2  0
 19 20  1  0
 20 21  2  0
 21 22  1  0
 21 23  1  0
 23 24  2  0
  7  2  1  0
 17  8  2  0
 24 18  1  0
 16 10  1  0
  1 25  1  0
  3 26  1  0
  4 27  1  0
  6 28  1  0
  7 29  1  0
 11 30  1  0
 13 31  1  0
 14 32  1  0
 15 33  1  0
 19 34  1  0
 20 35  1  0
 22 36  1  0
 23 37  1  0
 24 38  1  0
M  END
$$$$
[H]C1=C(N2C([H])([H])C([H])([H])C([H])(N([H])C(=O)c3nc([H])c([H])c(C(F)(F)F)c3[H])C([H])([H])C2([H])[H])C([H])([H])C([H])([H])[C@]([H])(n2nc(C([H])(C([H])([H])[H])C([H])([H])[H])c3c(N([H])[H])nc([H])nc32)C1([H])[H]
     RDKit          3D

 69 73  0  0  0  0  0  0  0  0999 V2000
   -7.8915   -2.0830   -1.2246 C   0  0  0  0  0  0  0  0  0  0  0  0
   -7.2742   -1.6263    0.1035 C   0  0  0  0  0  0  0  0  0  0  0  0
   -6.4591   -2.9411    0.4853 C   0  0  0  0  0  0  0  0  0  0  0  0
   -6.1854   -0.6435   -0.0515 C   0  0  0  0  0  0  0  0  0  0  0  0
   -4.8737   -0.8141   -0.4104 N   0  0  0  0  0  0  0  0  0  0  0  0
   -4.1863    0.2827   -0.2274 N   0  0  0  0  0  0  0  0  0  0  0  0
   -2.7915    0.4882   -0.3712 C   0  0  1  0  0  0  0  0  0  0  0  0
   -2.1354   -0.3230   -1.4192 C   0  0  0  0  0  0  0  0  0  0  0  0
   -0.7271    0.1437   -1.7485 C   0  0  0  0  0  0  0  0  0  0  0  0
   -0.1192    0.9897   -0.7299 C   0  0  0  0  0  0  0  0  0  0  0  0
   -0.8724    1.8731   -0.1150 C   0  0  0  0  0  0  0  0  0  0  0  0
   -2.3352    1.9247   -0.5269 C   0  0  0  0  0  0  0  0  0  0  0  0
    1.2511    0.9220   -0.2764 N   0  0  0  0  0  0  0  0  0  0  0  0
    1.9911   -0.3050   -0.5323 C   0  0  0  0  0  0  0  0  0  0  0  0
    3.3808    0.1526   -0.8605 C   0  0  0  0  0  0  0  0  0  0  0  0
    3.9402    0.5620    0.5401 C   0  0  0  0  0  0  0  0  0  0  0  0
    3.2673    1.8096    0.9394 C   0  0  0  0  0  0  0  0  0  0  0  0
    1.8743    2.0067    0.4066 C   0  0  0  0  0  0  0  0  0  0  0  0
    5.2811    0.3164    0.6097 N   0  0  0  0  0  0  0  0  0  0  0  0
    6.4914    0.8371    1.0695 C   0  0  0  0  0  0  0  0  0  0  0  0
    6.7179    1.9127    1.6404 O   0  0  0  0  0  0  0  0  0  0  0  0
    7.6323   -0.1328    0.7977 C   0  0  0  0  0  0  0  0  0  0  0  0
    8.0678   -0.3475   -0.4720 C   0  0  0  0  0  0  0  0  0  0  0  0
    8.9254   -1.4189   -0.7823 C   0  0  0  0  0  0  0  0  0  0  0  0
    9.3228   -2.2565    0.2320 C   0  0  0  0  0  0  0  0  0  0  0  0
    8.8601   -2.0014    1.5025 C   0  0  0  0  0  0  0  0  0  0  0  0
    8.0302   -0.9577    1.7866 N   0  0  0  0  0  0  0  0  0  0  0  0
    9.3936   -1.6868   -2.1590 C   0  0  0  0  0  0  0  0  0  0  0  0
    8.7742   -2.8320   -2.6974 F   0  0  0  0  0  0  0  0  0  0  0  0
   10.7675   -1.9550   -2.1695 F   0  0  0  0  0  0  0  0  0  0  0  0
    9.1373   -0.6070   -2.9486 F   0  0  0  0  0  0  0  0  0  0  0  0
   -5.0503    1.2137    0.2516 C   0  0  0  0  0  0  0  0  0  0  0  0
   -4.8870    2.4832    0.5613 N   0  0  0  0  0  0  0  0  0  0  0  0
   -5.8859    3.2464    0.9828 C   0  0  0  0  0  0  0  0  0  0  0  0
   -7.1352    2.7382    1.1124 N   0  0  0  0  0  0  0  0  0  0  0  0
   -7.3735    1.4553    0.8184 C   0  0  0  0  0  0  0  0  0  0  0  0
   -8.6915    0.9057    0.9575 N   0  0  0  0  0  0  0  0  0  0  0  0
   -6.3304    0.6821    0.3839 C   0  0  0  0  0  0  0  0  0  0  0  0
   -8.5352   -2.9366   -1.0009 H   0  0  0  0  0  0  0  0  0  0  0  0
   -7.1571   -2.1644   -2.0022 H   0  0  0  0  0  0  0  0  0  0  0  0
   -8.6241   -1.2739   -1.5574 H   0  0  0  0  0  0  0  0  0  0  0  0
   -7.9543   -1.5317    0.8994 H   0  0  0  0  0  0  0  0  0  0  0  0
   -6.1671   -3.4400   -0.4978 H   0  0  0  0  0  0  0  0  0  0  0  0
   -5.5652   -2.6998    1.0198 H   0  0  0  0  0  0  0  0  0  0  0  0
   -7.1792   -3.6218    0.9526 H   0  0  0  0  0  0  0  0  0  0  0  0
   -2.2576    0.1397    0.6111 H   0  0  0  0  0  0  0  0  0  0  0  0
   -2.7127   -0.4029   -2.3907 H   0  0  0  0  0  0  0  0  0  0  0  0
   -2.0268   -1.4084   -1.0897 H   0  0  0  0  0  0  0  0  0  0  0  0
   -0.1623   -0.7245   -2.0826 H   0  0  0  0  0  0  0  0  0  0  0  0
   -0.8496    0.7758   -2.6894 H   0  0  0  0  0  0  0  0  0  0  0  0
   -0.4893    2.5371    0.6413 H   0  0  0  0  0  0  0  0  0  0  0  0
   -2.4757    2.2232   -1.5526 H   0  0  0  0  0  0  0  0  0  0  0  0
   -2.7448    2.5925    0.2418 H   0  0  0  0  0  0  0  0  0  0  0  0
    2.0152   -0.8250    0.4792 H   0  0  0  0  0  0  0  0  0  0  0  0
    1.5326   -0.9808   -1.2374 H   0  0  0  0  0  0  0  0  0  0  0  0
    3.3320    1.1819   -1.3649 H   0  0  0  0  0  0  0  0  0  0  0  0
    4.0357   -0.5432   -1.3543 H   0  0  0  0  0  0  0  0  0  0  0  0
    3.4614   -0.2196    1.2989 H   0  0  0  0  0  0  0  0  0  0  0  0
    3.8779    2.7249    0.6803 H   0  0  0  0  0  0  0  0  0  0  0  0
    3.2475    1.8949    2.0887 H   0  0  0  0  0  0  0  0  0  0  0  0
    1.2769    2.3293    1.3139 H   0  0  0  0  0  0  0  0  0  0  0  0
    1.8728    2.8703   -0.2944 H   0  0  0  0  0  0  0  0  0  0  0  0
    5.4836   -0.7011    0.1356 H   0  0  0  0  0  0  0  0  0  0  0  0
    7.7935    0.2665   -1.2879 H   0  0  0  0  0  0  0  0  0  0  0  0
    9.9956   -3.1154    0.0641 H   0  0  0  0  0  0  0  0  0  0  0  0
    9.1299   -2.6620    2.3305 H   0  0  0  0  0  0  0  0  0  0  0  0
   -5.6748    4.2820    1.1972 H   0  0  0  0  0  0  0  0  0  0  0  0
   -9.3879    1.0858    0.2128 H   0  0  0  0  0  0  0  0  0  0  0  0
   -8.9929    0.3332    1.7906 H   0  0  0  0  0  0  0  0  0  0  0  0
  1  2  1  0
  2  3  1  0
  2  4  1  0
  4  5  2  0
  5  6  1  0
  6  7  1  0
  7  8  1  0
  8  9  1  0
  9 10  1  0
 10 11  2  0
 11 12  1  0
 10 13  1  0
 13 14  1  0
 14 15  1  0
 15 16  1  0
 16 17  1  0
 17 18  1  0
 16 19  1  0
 19 20  1  0
 20 21  2  0
 20 22  1  0
 22 23  2  0
 23 24  1  0
 24 25  2  0
 25 26  1  0
 26 27  2  0
 24 28  1  0
 28 29  1  0
 28 30  1  0
 28 31  1  0
  6 32  1  0
 32 33  2  0
 33 34  1  0
 34 35  2  0
 35 36  1  0
 36 37  1  0
 36 38  2  0
 38  4  1  0
 12  7  1  0
 18 13  1  0
 27 22  1  0
 38 32  1  0
  1 39  1  0
  1 40  1  0
  1 41  1  0
  2 42  1  0
  3 43  1  0
  3 44  1  0
  3 45  1  0
  7 46  1  1
  8 47  1  0
  8 48  1  0
  9 49  1  0
  9 50  1  0
 11 51  1  0
 12 52  1  0
 12 53  1  0
 14 54  1  0
 14 55  1  0
 15 56  1  0
 15 57  1  0
 16 58  1  0
 17 59  1  0
 17 60  1  0
 18 61  1  0
 18 62  1  0
 19 63  1  0
 23 64  1  0
 25 65  1  0
 26 66  1  0
 34 67  1  0
 37 68  1  0
 37 69  1  0
M  END
$$$$
[H]c1c([H])c(N(C([H])([H])[H])C([H])([H])c2nc3c(N([H])[H])nc(N([H])[H])nc3c([H])c2[H])c(Cl)c([H])c1Cl
     RDKit          3D

 37 39  0  0  0  0  0  0  0  0999 V2000
   -3.1380   -2.4616    1.2368 C   0  0  0  0  0  0  0  0  0  0  0  0
   -2.0838   -1.6333    0.6716 N   0  0  0  0  0  0  0  0  0  0  0  0
   -0.7811   -2.2278    0.5626 C   0  0  0  0  0  0  0  0  0  0  0  0
    0.2613   -1.4003   -0.0231 C   0  0  0  0  0  0  0  0  0  0  0  0
    0.3195   -1.1600   -1.3756 C   0  0  0  0  0  0  0  0  0  0  0  0
    1.3360   -0.3691   -1.9163 C   0  0  0  0  0  0  0  0  0  0  0  0
    2.2920    0.1773   -1.0873 C   0  0  0  0  0  0  0  0  0  0  0  0
    3.2949    0.9477   -1.5535 N   0  0  0  0  0  0  0  0  0  0  0  0
    4.2375    1.4901   -0.7609 C   0  0  0  0  0  0  0  0  0  0  0  0
    5.2895    2.3034   -1.2851 N   0  0  0  0  0  0  0  0  0  0  0  0
    4.1487    1.2328    0.5613 N   0  0  0  0  0  0  0  0  0  0  0  0
    3.1669    0.4705    1.0729 C   0  0  0  0  0  0  0  0  0  0  0  0
    3.0888    0.2100    2.4678 N   0  0  0  0  0  0  0  0  0  0  0  0
    2.2002   -0.0861    0.2626 C   0  0  0  0  0  0  0  0  0  0  0  0
    1.2038   -0.8566    0.7604 N   0  0  0  0  0  0  0  0  0  0  0  0
   -2.4278   -0.3303    0.2707 C   0  0  0  0  0  0  0  0  0  0  0  0
   -1.8871    0.7610    0.9065 C   0  0  0  0  0  0  0  0  0  0  0  0
   -2.2380    2.0598    0.5112 C   0  0  0  0  0  0  0  0  0  0  0  0
   -3.1249    2.2669   -0.5140 C   0  0  0  0  0  0  0  0  0  0  0  0
   -3.5602    3.9127   -1.0040 Cl  0  0  0  0  0  0  0  0  0  0  0  0
   -3.6661    1.1825   -1.1500 C   0  0  0  0  0  0  0  0  0  0  0  0
   -3.3149   -0.0816   -0.7543 C   0  0  0  0  0  0  0  0  0  0  0  0
   -4.0242   -1.4723   -1.5876 Cl  0  0  0  0  0  0  0  0  0  0  0  0
   -4.1402   -2.0541    1.0410 H   0  0  0  0  0  0  0  0  0  0  0  0
   -3.0000   -2.4111    2.3533 H   0  0  0  0  0  0  0  0  0  0  0  0
   -3.1056   -3.5022    0.8717 H   0  0  0  0  0  0  0  0  0  0  0  0
   -0.9046   -3.1383   -0.0974 H   0  0  0  0  0  0  0  0  0  0  0  0
   -0.5097   -2.6055    1.5711 H   0  0  0  0  0  0  0  0  0  0  0  0
   -0.4046   -1.5642   -2.0687 H   0  0  0  0  0  0  0  0  0  0  0  0
    1.3999   -0.1687   -2.9717 H   0  0  0  0  0  0  0  0  0  0  0  0
    5.1960    3.3585   -1.2942 H   0  0  0  0  0  0  0  0  0  0  0  0
    6.1730    1.9261   -1.6729 H   0  0  0  0  0  0  0  0  0  0  0  0
    3.7986   -0.3623    2.9759 H   0  0  0  0  0  0  0  0  0  0  0  0
    2.2779    0.6200    2.9816 H   0  0  0  0  0  0  0  0  0  0  0  0
   -1.1964    0.7045    1.7137 H   0  0  0  0  0  0  0  0  0  0  0  0
   -1.8192    2.9295    1.0037 H   0  0  0  0  0  0  0  0  0  0  0  0
   -4.3582    1.3323   -1.9500 H   0  0  0  0  0  0  0  0  0  0  0  0
  1  2  1  0
  2  3  1  0
  3  4  1  0
  4  5  2  0
  5  6  1  0
  6  7  2  0
  7  8  1  0
  8  9  2  0
  9 10  1  0
  9 11  1  0
 11 12  2  0
 12 13  1  0
 12 14  1  0
 14 15  2  0
  2 16  1  0
 16 17  2  0
 17 18  1  0
 18 19  2  0
 19 20  1  0
 19 21  1  0
 21 22  2  0
 22 23  1  0
 15  4  1  0
 22 16  1  0
 14  7  1  0
  1 24  1  0
  1 25  1  0
  1 26  1  0
  3 27  1  0
  3 28  1  0
  5 29  1  0
  6 30  1  0
 10 31  1  0
 10 32  1  0
 13 33  1  0
 13 34  1  0
 17 35  1  0
 18 36  1  0
 21 37  1  0
M  END
$$$$
[H]c1nc(Oc2c([H])c([H])c(N([H])C(=O)N([H])c3c([H])c([H])c(C([H])([H])N4C([H])([H])C([H])([H])N(C([H])([H])[H])C([H])([H])C4([H])[H])c(C(F)(F)F)c3[H])c([H])c2[H])c([H])c(N([H])C2([H])C([H])([H])C2([H])[H])n1
     RDKit          3D

 69 73  0  0  0  0  0  0  0  0999 V2000
   -9.6402   -2.4616    0.9524 C   0  0  0  0  0  0  0  0  0  0  0  0
   -9.6351   -1.1693    0.2948 N   0  0  0  0  0  0  0  0  0  0  0  0
   -8.5415   -1.1340   -0.6270 C   0  0  0  0  0  0  0  0  0  0  0  0
   -7.2386   -1.0932    0.1500 C   0  0  0  0  0  0  0  0  0  0  0  0
   -7.1698    0.1765    0.8098 N   0  0  0  0  0  0  0  0  0  0  0  0
   -6.3406    1.0741    0.0458 C   0  0  0  0  0  0  0  0  0  0  0  0
   -4.9218    0.7082    0.1563 C   0  0  0  0  0  0  0  0  0  0  0  0
   -4.4604   -0.2910    0.9931 C   0  0  0  0  0  0  0  0  0  0  0  0
   -3.1435   -0.6203    1.1566 C   0  0  0  0  0  0  0  0  0  0  0  0
   -2.1477    0.0768    0.4479 C   0  0  0  0  0  0  0  0  0  0  0  0
   -0.8026   -0.2791    0.6450 N   0  0  0  0  0  0  0  0  0  0  0  0
    0.3412    0.1716   -0.0580 C   0  0  0  0  0  0  0  0  0  0  0  0
    0.2903    0.9909   -1.0016 O   0  0  0  0  0  0  0  0  0  0  0  0
    1.6010   -0.3479    0.3477 N   0  0  0  0  0  0  0  0  0  0  0  0
    2.8151    0.0231   -0.2563 C   0  0  0  0  0  0  0  0  0  0  0  0
    3.0783    1.1954   -0.9128 C   0  0  0  0  0  0  0  0  0  0  0  0
    4.2995    1.4499   -1.4990 C   0  0  0  0  0  0  0  0  0  0  0  0
    5.2850    0.5039   -1.4249 C   0  0  0  0  0  0  0  0  0  0  0  0
    6.5442    0.6717   -1.9844 O   0  0  0  0  0  0  0  0  0  0  0  0
    7.6085    1.2322   -1.2977 C   0  0  0  0  0  0  0  0  0  0  0  0
    8.3922    0.4263   -0.4697 C   0  0  0  0  0  0  0  0  0  0  0  0
    9.4547    0.8940    0.2399 C   0  0  0  0  0  0  0  0  0  0  0  0
   10.2894    0.1276    1.0922 N   0  0  0  0  0  0  0  0  0  0  0  0
   10.0460   -1.2815    1.2470 C   0  0  0  0  0  0  0  0  0  0  0  0
   10.1281   -2.2571    0.1603 C   0  0  0  0  0  0  0  0  0  0  0  0
   11.3201   -2.1733    1.0976 C   0  0  0  0  0  0  0  0  0  0  0  0
    9.7335    2.2223    0.1073 N   0  0  0  0  0  0  0  0  0  0  0  0
    9.0040    3.0297   -0.6787 C   0  0  0  0  0  0  0  0  0  0  0  0
    7.9491    2.5274   -1.3734 N   0  0  0  0  0  0  0  0  0  0  0  0
    5.0447   -0.6900   -0.7659 C   0  0  0  0  0  0  0  0  0  0  0  0
    3.8356   -0.9370   -0.1883 C   0  0  0  0  0  0  0  0  0  0  0  0
   -2.5836    1.0642   -0.3791 C   0  0  0  0  0  0  0  0  0  0  0  0
   -3.9376    1.3921   -0.5392 C   0  0  0  0  0  0  0  0  0  0  0  0
   -4.2986    2.4803   -1.4796 C   0  0  0  0  0  0  0  0  0  0  0  0
   -5.0599    1.9633   -2.5019 F   0  0  0  0  0  0  0  0  0  0  0  0
   -3.1311    3.0277   -2.0332 F   0  0  0  0  0  0  0  0  0  0  0  0
   -4.9373    3.5396   -0.8518 F   0  0  0  0  0  0  0  0  0  0  0  0
   -8.4151    0.8064    1.0899 C   0  0  0  0  0  0  0  0  0  0  0  0
   -9.5483   -0.1579    1.3235 C   0  0  0  0  0  0  0  0  0  0  0  0
   -9.4940   -3.3003    0.2408 H   0  0  0  0  0  0  0  0  0  0  0  0
  -10.6632   -2.5664    1.4075 H   0  0  0  0  0  0  0  0  0  0  0  0
   -8.8937   -2.5563    1.7539 H   0  0  0  0  0  0  0  0  0  0  0  0
   -8.5289   -2.0908   -1.2028 H   0  0  0  0  0  0  0  0  0  0  0  0
   -8.6017   -0.2556   -1.2842 H   0  0  0  0  0  0  0  0  0  0  0  0
   -7.1794   -1.9703    0.8260 H   0  0  0  0  0  0  0  0  0  0  0  0
   -6.4112   -1.1668   -0.5752 H   0  0  0  0  0  0  0  0  0  0  0  0
   -6.5178    2.1339    0.4100 H   0  0  0  0  0  0  0  0  0  0  0  0
   -6.6567    1.0522   -1.0330 H   0  0  0  0  0  0  0  0  0  0  0  0
   -5.2281   -0.8273    1.5759 H   0  0  0  0  0  0  0  0  0  0  0  0
   -2.8650   -1.4163    1.8298 H   0  0  0  0  0  0  0  0  0  0  0  0
   -0.6296   -0.9823    1.4343 H   0  0  0  0  0  0  0  0  0  0  0  0
    1.6315   -1.0568    1.1595 H   0  0  0  0  0  0  0  0  0  0  0  0
    2.3242    1.9797   -0.9735 H   0  0  0  0  0  0  0  0  0  0  0  0
    4.5236    2.3699   -2.0217 H   0  0  0  0  0  0  0  0  0  0  0  0
    8.1328   -0.6150   -0.3938 H   0  0  0  0  0  0  0  0  0  0  0  0
   11.0908    0.5613    1.6214 H   0  0  0  0  0  0  0  0  0  0  0  0
    9.3908   -1.5797    2.1130 H   0  0  0  0  0  0  0  0  0  0  0  0
    9.4875   -3.1643    0.2038 H   0  0  0  0  0  0  0  0  0  0  0  0
   10.3733   -1.9744   -0.8867 H   0  0  0  0  0  0  0  0  0  0  0  0
   11.4125   -3.0000    1.8174 H   0  0  0  0  0  0  0  0  0  0  0  0
   12.2350   -1.6443    0.7558 H   0  0  0  0  0  0  0  0  0  0  0  0
    9.2909    4.0706   -0.7288 H   0  0  0  0  0  0  0  0  0  0  0  0
    5.8306   -1.4584   -0.6995 H   0  0  0  0  0  0  0  0  0  0  0  0
    3.6863   -1.8850    0.3191 H   0  0  0  0  0  0  0  0  0  0  0  0
   -1.8784    1.6537   -0.9565 H   0  0  0  0  0  0  0  0  0  0  0  0
   -8.7096    1.5698    0.3251 H   0  0  0  0  0  0  0  0  0  0  0  0
   -8.2931    1.3915    2.0468 H   0  0  0  0  0  0  0  0  0  0  0  0
  -10.4918    0.4251    1.2842 H   0  0  0  0  0  0  0  0  0  0  0  0
   -9.4747   -0.5794    2.3459 H   0  0  0  0  0  0  0  0  0  0  0  0
  1  2  1  0
  2  3  1  0
  3  4  1  0
  4  5  1  0
  5  6  1  0
  6  7  1  0
  7  8  2  0
  8  9  1  0
  9 10  2  0
 10 11  1  0
 11 12  1  0
 12 13  2  0
 12 14  1  0
 14 15  1  0
 15 16  2  0
 16 17  1  0
 17 18  2  0
 18 19  1  0
 19 20  1  0
 20 21  2  0
 21 22  1  0
 22 23  1  0
 23 24  1  0
 24 25  1  0
 25 26  1  0
 22 27  2  0
 27 28  1  0
 28 29  2  0
 18 30  1  0
 30 31  2  0
 10 32  1  0
 32 33  2  0
 33 34  1  0
 34 35  1  0
 34 36  1  0
 34 37  1  0
  5 38  1  0
 38 39  1  0
 39  2  1  0
 33  7  1  0
 31 15  1  0
 29 20  1  0
 26 24  1  0
  1 40  1  0
  1 41  1  0
  1 42  1  0
  3 43  1  0
  3 44  1  0
  4 45  1  0
  4 46  1  0
  6 47  1  0
  6 48  1  0
  8 49  1  0
  9 50  1  0
 11 51  1  0
 14 52  1  0
 16 53  1  0
 17 54  1  0
 21 55  1  0
 23 56  1  0
 24 57  1  0
 25 58  1  0
 25 59  1  0
 26 60  1  0
 26 61  1  0
 28 62  1  0
 30 63  1  0
 31 64  1  0
 32 65  1  0
 38 66  1  0
 38 67  1  0
 39 68  1  0
 39 69  1  0
M  END
$$$$
[H]c1nc([H])c(Cl)c(-c2c([H])c3c([H])nc(N([H])c4c([H])c([H])c(N5C([H])([H])C([H])([H])N(C([H])([H])[H])C([H])([H])C5([H])[H])c([H])c4[H])nc3n(C([H])([H])[H])c2=O)c1Cl
     RDKit          3D

 57 61  0  0  0  0  0  0  0  0999 V2000
   -8.5753   -1.3268    1.9303 C   0  0  0  0  0  0  0  0  0  0  0  0
   -7.4187   -0.8189    1.2992 N   0  0  0  0  0  0  0  0  0  0  0  0
   -6.3529   -1.7329    1.0964 C   0  0  0  0  0  0  0  0  0  0  0  0
   -5.7064   -1.6213   -0.2674 C   0  0  0  0  0  0  0  0  0  0  0  0
   -5.2945   -0.2440   -0.4040 N   0  0  0  0  0  0  0  0  0  0  0  0
   -6.4005    0.7093   -0.3403 C   0  0  0  0  0  0  0  0  0  0  0  0
   -7.6223    0.1666    0.3035 C   0  0  0  0  0  0  0  0  0  0  0  0
   -3.9639    0.1869   -0.5801 C   0  0  0  0  0  0  0  0  0  0  0  0
   -3.6480    1.5164   -0.7960 C   0  0  0  0  0  0  0  0  0  0  0  0
   -2.3743    1.9675   -0.9654 C   0  0  0  0  0  0  0  0  0  0  0  0
   -1.2984    1.0547   -0.9239 C   0  0  0  0  0  0  0  0  0  0  0  0
    0.0106    1.5237   -1.1278 N   0  0  0  0  0  0  0  0  0  0  0  0
    1.1692    0.8853   -0.6751 C   0  0  0  0  0  0  0  0  0  0  0  0
    1.2812   -0.2381    0.0241 N   0  0  0  0  0  0  0  0  0  0  0  0
    2.4025   -0.8062    0.4314 C   0  0  0  0  0  0  0  0  0  0  0  0
    3.5974   -0.1781    0.1039 C   0  0  0  0  0  0  0  0  0  0  0  0
    4.8098   -0.7087    0.4928 C   0  0  0  0  0  0  0  0  0  0  0  0
    5.9919   -0.0524    0.1472 C   0  0  0  0  0  0  0  0  0  0  0  0
    7.2876   -0.5892    0.5446 C   0  0  0  0  0  0  0  0  0  0  0  0
    7.9793   -1.4710   -0.2585 C   0  0  0  0  0  0  0  0  0  0  0  0
    7.2646   -1.9364   -1.7799 Cl  0  0  0  0  0  0  0  0  0  0  0  0
    9.2089   -1.9621    0.1522 C   0  0  0  0  0  0  0  0  0  0  0  0
    9.7411   -1.5907    1.3273 N   0  0  0  0  0  0  0  0  0  0  0  0
    9.1012   -0.7367    2.1356 C   0  0  0  0  0  0  0  0  0  0  0  0
    7.8752   -0.2379    1.7414 C   0  0  0  0  0  0  0  0  0  0  0  0
    7.0417    0.8726    2.7903 Cl  0  0  0  0  0  0  0  0  0  0  0  0
    5.8371    1.1102   -0.5784 C   0  0  0  0  0  0  0  0  0  0  0  0
    6.9093    1.7167   -0.8985 O   0  0  0  0  0  0  0  0  0  0  0  0
    4.6845    1.6361   -0.9613 N   0  0  0  0  0  0  0  0  0  0  0  0
    4.5841    2.8744   -1.7308 C   0  0  0  0  0  0  0  0  0  0  0  0
    3.5292    0.9965   -0.6247 C   0  0  0  0  0  0  0  0  0  0  0  0
    2.3507    1.4994   -0.9947 N   0  0  0  0  0  0  0  0  0  0  0  0
   -1.6031   -0.2548   -0.7127 C   0  0  0  0  0  0  0  0  0  0  0  0
   -2.9252   -0.7012   -0.5395 C   0  0  0  0  0  0  0  0  0  0  0  0
   -9.2411   -0.4662    2.1979 H   0  0  0  0  0  0  0  0  0  0  0  0
   -9.1039   -2.0762    1.3026 H   0  0  0  0  0  0  0  0  0  0  0  0
   -8.3317   -1.8141    2.8992 H   0  0  0  0  0  0  0  0  0  0  0  0
   -5.6058   -1.6005    1.9078 H   0  0  0  0  0  0  0  0  0  0  0  0
   -6.7417   -2.7682    1.1871 H   0  0  0  0  0  0  0  0  0  0  0  0
   -6.5321   -1.8402   -1.0056 H   0  0  0  0  0  0  0  0  0  0  0  0
   -4.9173   -2.3597   -0.3386 H   0  0  0  0  0  0  0  0  0  0  0  0
   -6.0259    1.5691    0.2758 H   0  0  0  0  0  0  0  0  0  0  0  0
   -6.5587    1.0662   -1.3780 H   0  0  0  0  0  0  0  0  0  0  0  0
   -8.2658   -0.2745   -0.4988 H   0  0  0  0  0  0  0  0  0  0  0  0
   -8.2221    0.9953    0.7446 H   0  0  0  0  0  0  0  0  0  0  0  0
   -4.4683    2.2509   -0.8339 H   0  0  0  0  0  0  0  0  0  0  0  0
   -2.1152    2.9971   -1.1338 H   0  0  0  0  0  0  0  0  0  0  0  0
    0.0980    2.4479   -1.6791 H   0  0  0  0  0  0  0  0  0  0  0  0
    2.4592   -1.7205    0.9987 H   0  0  0  0  0  0  0  0  0  0  0  0
    4.8834   -1.6156    1.0564 H   0  0  0  0  0  0  0  0  0  0  0  0
    9.7385   -2.6455   -0.4767 H   0  0  0  0  0  0  0  0  0  0  0  0
    9.5759   -0.4715    3.0708 H   0  0  0  0  0  0  0  0  0  0  0  0
    5.5897    3.3501   -1.7353 H   0  0  0  0  0  0  0  0  0  0  0  0
    3.9066    3.5829   -1.2160 H   0  0  0  0  0  0  0  0  0  0  0  0
    4.2940    2.6769   -2.7786 H   0  0  0  0  0  0  0  0  0  0  0  0
   -0.8450   -1.0311   -0.6844 H   0  0  0  0  0  0  0  0  0  0  0  0
   -3.0444   -1.7620   -0.3766 H   0  0  0  0  0  0  0  0  0  0  0  0
  1  2  1  0
  2  3  1  0
  3  4  1  0
  4  5  1  0
  5  6  1  0
  6  7  1  0
  5  8  1  0
  8  9  2  0
  9 10  1  0
 10 11  2  0
 11 12  1  0
 12 13  1  0
 13 14  2  0
 14 15  1  0
 15 16  2  0
 16 17  1  0
 17 18  2  0
 18 19  1  0
 19 20  2  0
 20 21  1  0
 20 22  1  0
 22 23  2  0
 23 24  1  0
 24 25  2  0
 25 26  1  0
 18 27  1  0
 27 28  2  0
 27 29  1  0
 29 30  1  0
 29 31  1  0
 31 32  2  0
 11 33  1  0
 33 34  2  0
  7  2  1  0
 34  8  1  0
 32 13  1  0
 31 16  1  0
 25 19  1  0
  1 35  1  0
  1 36  1  0
  1 37  1  0
  3 38  1  0
  3 39  1  0
  4 40  1  0
  4 41  1  0
  6 42  1  0
  6 43  1  0
  7 44  1  0
  7 45  1  0
  9 46  1  0
 10 47  1  0
 12 48  1  0
 15 49  1  0
 17 50  1  0
 22 51  1  0
 24 52  1  0
 30 53  1  0
 30 54  1  0
 30 55  1  0
 33 56  1  0
 34 57  1  0
M  END
$$$$
[H]OC(=O)C([H])([H])[C@@]([H])(C(=O)O[H])N([H])C(=O)[C@@]([H])(N([H])C(=O)[C@@]([H])(N([H])C(=O)[C@@]1([H])N(C(=O)[C@@]([H])(N([H])[H])C([H])([H])c2c([H])c([H])c([H])c([H])c2[H])C([H])([H])C([H])([H])C1([H])[H])C([H])([H])c1c([H])c([H])c([H])c([H])c1[H])C([H])(C([H])([H])[H])C([H])([H])[H]
     RDKit          3D

 86 88  0  0  0  0  0  0  0  0999 V2000
    5.0958    3.0704    0.3081 C   0  0  0  0  0  0  0  0  0  0  0  0
    4.5771    2.1136   -0.7291 C   0  0  0  0  0  0  0  0  0  0  0  0
    5.6292    1.6054   -1.6566 C   0  0  0  0  0  0  0  0  0  0  0  0
    3.6730    1.0749   -0.2120 C   0  0  2  0  0  0  0  0  0  0  0  0
    2.4700    1.6690    0.4070 N   0  0  0  0  0  0  0  0  0  0  0  0
    1.2006    1.1568    0.2368 C   0  0  0  0  0  0  0  0  0  0  0  0
    1.1986    0.0566   -0.5202 O   0  0  0  0  0  0  0  0  0  0  0  0
   -0.1134    1.5095    0.6771 C   0  0  2  0  0  0  0  0  0  0  0  0
   -0.3953    2.7181    1.4275 C   0  0  0  0  0  0  0  0  0  0  0  0
   -0.1255    3.9852    0.7511 C   0  0  0  0  0  0  0  0  0  0  0  0
   -1.0567    4.3713   -0.2222 C   0  0  0  0  0  0  0  0  0  0  0  0
   -0.8862    5.5729   -0.8363 C   0  0  0  0  0  0  0  0  0  0  0  0
    0.1737    6.3766   -0.5029 C   0  0  0  0  0  0  0  0  0  0  0  0
    1.0950    5.9854    0.4668 C   0  0  0  0  0  0  0  0  0  0  0  0
    0.9238    4.7755    1.0854 C   0  0  0  0  0  0  0  0  0  0  0  0
   -0.8559    0.3722    1.2343 N   0  0  0  0  0  0  0  0  0  0  0  0
   -1.8167   -0.3825    0.4822 C   0  0  0  0  0  0  0  0  0  0  0  0
   -2.0025   -0.0361   -0.6932 O   0  0  0  0  0  0  0  0  0  0  0  0
   -2.5417   -1.5015    1.0696 C   0  0  2  0  0  0  0  0  0  0  0  0
   -1.5566   -2.6392    1.4400 C   0  0  0  0  0  0  0  0  0  0  0  0
   -1.3231   -3.2385    0.0512 C   0  0  0  0  0  0  0  0  0  0  0  0
   -2.5758   -2.9246   -0.7496 C   0  0  0  0  0  0  0  0  0  0  0  0
   -3.4130   -2.2417    0.2049 N   0  0  0  0  0  0  0  0  0  0  0  0
   -4.8299   -2.3406    0.2446 C   0  0  0  0  0  0  0  0  0  0  0  0
   -5.4482   -1.6771    1.1079 O   0  0  0  0  0  0  0  0  0  0  0  0
   -5.6050   -3.1961   -0.6789 C   0  0  1  0  0  0  0  0  0  0  0  0
   -6.9771   -3.3081   -0.1500 N   0  0  0  0  0  0  0  0  0  0  0  0
   -5.6774   -2.6396   -2.1006 C   0  0  0  0  0  0  0  0  0  0  0  0
   -6.3542   -1.3388   -2.0766 C   0  0  0  0  0  0  0  0  0  0  0  0
   -5.6540   -0.1820   -1.8884 C   0  0  0  0  0  0  0  0  0  0  0  0
   -6.3411    1.0314   -1.8790 C   0  0  0  0  0  0  0  0  0  0  0  0
   -7.7029    1.0665   -2.0569 C   0  0  0  0  0  0  0  0  0  0  0  0
   -8.4200   -0.1109   -2.2497 C   0  0  0  0  0  0  0  0  0  0  0  0
   -7.7315   -1.2851   -2.2552 C   0  0  0  0  0  0  0  0  0  0  0  0
    4.2128    0.0064    0.6254 C   0  0  0  0  0  0  0  0  0  0  0  0
    3.5316   -0.2845    1.6960 O   0  0  0  0  0  0  0  0  0  0  0  0
    5.3663   -0.7634    0.4405 N   0  0  0  0  0  0  0  0  0  0  0  0
    5.7067   -1.8263    1.4184 C   0  0  1  0  0  0  0  0  0  0  0  0
    6.1661   -3.0456    0.6694 C   0  0  0  0  0  0  0  0  0  0  0  0
    6.5237   -4.1908    1.5055 C   0  0  0  0  0  0  0  0  0  0  0  0
    5.5237   -5.0887    1.9009 O   0  0  0  0  0  0  0  0  0  0  0  0
    7.7001   -4.4197    1.8999 O   0  0  0  0  0  0  0  0  0  0  0  0
    6.7537   -1.2996    2.3179 C   0  0  0  0  0  0  0  0  0  0  0  0
    7.1814   -2.0595    3.3788 O   0  0  0  0  0  0  0  0  0  0  0  0
    7.2457   -0.1755    2.1208 O   0  0  0  0  0  0  0  0  0  0  0  0
    4.2580    3.7830    0.5467 H   0  0  0  0  0  0  0  0  0  0  0  0
    5.9260    3.6890   -0.0442 H   0  0  0  0  0  0  0  0  0  0  0  0
    5.2765    2.5359    1.2566 H   0  0  0  0  0  0  0  0  0  0  0  0
    3.9104    2.7766   -1.3963 H   0  0  0  0  0  0  0  0  0  0  0  0
    5.7429    2.3371   -2.5033 H   0  0  0  0  0  0  0  0  0  0  0  0
    5.2174    0.6636   -2.1162 H   0  0  0  0  0  0  0  0  0  0  0  0
    6.5809    1.4741   -1.1422 H   0  0  0  0  0  0  0  0  0  0  0  0
    3.2212    0.5251   -1.1098 H   0  0  0  0  0  0  0  0  0  0  0  0
    2.6781    2.4848    0.9985 H   0  0  0  0  0  0  0  0  0  0  0  0
   -0.6715    1.6603   -0.3864 H   0  0  0  0  0  0  0  0  0  0  0  0
   -1.5113    2.7487    1.6791 H   0  0  0  0  0  0  0  0  0  0  0  0
    0.0575    2.6959    2.4614 H   0  0  0  0  0  0  0  0  0  0  0  0
   -1.8837    3.7032   -0.4562 H   0  0  0  0  0  0  0  0  0  0  0  0
   -1.6072    5.8716   -1.5917 H   0  0  0  0  0  0  0  0  0  0  0  0
    0.3081    7.3291   -0.9874 H   0  0  0  0  0  0  0  0  0  0  0  0
    1.9223    6.6249    0.7189 H   0  0  0  0  0  0  0  0  0  0  0  0
    1.6269    4.4281    1.8627 H   0  0  0  0  0  0  0  0  0  0  0  0
   -0.6817    0.0986    2.2090 H   0  0  0  0  0  0  0  0  0  0  0  0
   -3.0546   -1.1405    1.9876 H   0  0  0  0  0  0  0  0  0  0  0  0
   -2.1413   -3.3035    2.0833 H   0  0  0  0  0  0  0  0  0  0  0  0
   -0.6492   -2.2665    1.9021 H   0  0  0  0  0  0  0  0  0  0  0  0
   -0.4183   -2.7970   -0.4319 H   0  0  0  0  0  0  0  0  0  0  0  0
   -1.1466   -4.3055    0.1709 H   0  0  0  0  0  0  0  0  0  0  0  0
   -3.0482   -3.8521   -1.1393 H   0  0  0  0  0  0  0  0  0  0  0  0
   -2.3886   -2.2772   -1.6028 H   0  0  0  0  0  0  0  0  0  0  0  0
   -5.2277   -4.2305   -0.7635 H   0  0  0  0  0  0  0  0  0  0  0  0
   -7.0815   -4.1358    0.4709 H   0  0  0  0  0  0  0  0  0  0  0  0
   -7.1852   -2.4744    0.4525 H   0  0  0  0  0  0  0  0  0  0  0  0
   -4.6259   -2.5325   -2.4382 H   0  0  0  0  0  0  0  0  0  0  0  0
   -6.2309   -3.4022   -2.6844 H   0  0  0  0  0  0  0  0  0  0  0  0
   -4.5985   -0.2446   -1.7578 H   0  0  0  0  0  0  0  0  0  0  0  0
   -5.7814    1.9413   -1.7292 H   0  0  0  0  0  0  0  0  0  0  0  0
   -8.2301    1.9912   -2.0504 H   0  0  0  0  0  0  0  0  0  0  0  0
   -9.5028   -0.0402   -2.3871 H   0  0  0  0  0  0  0  0  0  0  0  0
   -8.2499   -2.2319   -2.3997 H   0  0  0  0  0  0  0  0  0  0  0  0
    6.0254   -0.6665   -0.3356 H   0  0  0  0  0  0  0  0  0  0  0  0
    4.8190   -2.0900    2.0248 H   0  0  0  0  0  0  0  0  0  0  0  0
    5.4574   -3.3375   -0.1348 H   0  0  0  0  0  0  0  0  0  0  0  0
    7.1293   -2.7211    0.1559 H   0  0  0  0  0  0  0  0  0  0  0  0
    5.4027   -5.8998    1.2946 H   0  0  0  0  0  0  0  0  0  0  0  0
    7.8114   -1.7348    4.0778 H   0  0  0  0  0  0  0  0  0  0  0  0
  1  2  1  0
  2  3  1  0
  2  4  1  0
  4  5  1  0
  5  6  1  0
  6  7  2  0
  6  8  1  0
  8  9  1  0
  9 10  1  0
 10 11  2  0
 11 12  1  0
 12 13  2  0
 13 14  1  0
 14 15  2  0
  8 16  1  0
 16 17  1  0
 17 18  2  0
 17 19  1  0
 19 20  1  0
 20 21  1  0
 21 22  1  0
 22 23  1  0
 23 24  1  0
 24 25  2  0
 24 26  1  0
 26 27  1  0
 26 28  1  0
 28 29  1  0
 29 30  2  0
 30 31  1  0
 31 32  2  0
 32 33  1  0
 33 34  2  0
  4 35  1  0
 35 36  2  0
 35 37  1  0
 37 38  1  0
 38 39  1  0
 39 40  1  0
 40 41  1  0
 40 42  2  0
 38 43  1  0
 43 44  1  0
 43 45  2  0
 15 10  1  0
 23 19  1  0
 34 29  1  0
  1 46  1  0
  1 47  1  0
  1 48  1  0
  2 49  1  0
  3 50  1  0
  3 51  1  0
  3 52  1  0
  4 53  1  6
  5 54  1  0
  8 55  1  6
  9 56  1  0
  9 57  1  0
 11 58  1  0
 12 59  1  0
 13 60  1  0
 14 61  1  0
 15 62  1  0
 16 63  1  0
 19 64  1  1
 20 65  1  0
 20 66  1  0
 21 67  1  0
 21 68  1  0
 22 69  1  0
 22 70  1  0
 26 71  1  6
 27 72  1  0
 27 73  1  0
 28 74  1  0
 28 75  1  0
 30 76  1  0
 31 77  1  0
 32 78  1  0
 33 79  1  0
 34 80  1  0
 37 81  1  0
 38 82  1  1
 39 83  1  0
 39 84  1  0
 41 85  1  0
 44 86  1  0
M  END
$$$$
[H]c1nc2c(c([H])c1[H])c([H])c([H])n2-c1c([H])c([H])c(OC([H])([H])[H])c([H])c1[H]
     RDKit          3D

 29 31  0  0  0  0  0  0  0  0999 V2000
    5.1159    0.4886   -0.0562 C   0  0  0  0  0  0  0  0  0  0  0  0
    4.4212   -0.7165    0.1873 O   0  0  0  0  0  0  0  0  0  0  0  0
    3.0454   -0.7683    0.0602 C   0  0  0  0  0  0  0  0  0  0  0  0
    2.3080   -1.9098    0.2828 C   0  0  0  0  0  0  0  0  0  0  0  0
    0.9196   -1.9107    0.1411 C   0  0  0  0  0  0  0  0  0  0  0  0
    0.2647   -0.7630   -0.2254 C   0  0  0  0  0  0  0  0  0  0  0  0
    0.9996    0.3971   -0.4531 C   0  0  0  0  0  0  0  0  0  0  0  0
    2.3660    0.3706   -0.3065 C   0  0  0  0  0  0  0  0  0  0  0  0
   -1.1550   -0.7368   -0.3774 N   0  0  0  0  0  0  0  0  0  0  0  0
   -1.9392   -1.6934   -0.9319 C   0  0  0  0  0  0  0  0  0  0  0  0
   -3.2599   -1.2968   -0.8929 C   0  0  0  0  0  0  0  0  0  0  0  0
   -3.2576   -0.0566   -0.2918 C   0  0  0  0  0  0  0  0  0  0  0  0
   -4.2491    0.8543    0.0346 C   0  0  0  0  0  0  0  0  0  0  0  0
   -3.9106    2.0456    0.6511 C   0  0  0  0  0  0  0  0  0  0  0  0
   -2.6010    2.3575    0.9541 C   0  0  0  0  0  0  0  0  0  0  0  0
   -1.6629    1.4555    0.6259 N   0  0  0  0  0  0  0  0  0  0  0  0
   -1.9582    0.2765    0.0204 C   0  0  0  0  0  0  0  0  0  0  0  0
    6.2018    0.3586   -0.0364 H   0  0  0  0  0  0  0  0  0  0  0  0
    4.8348    1.2692    0.6921 H   0  0  0  0  0  0  0  0  0  0  0  0
    4.8034    0.8174   -1.0859 H   0  0  0  0  0  0  0  0  0  0  0  0
    2.8558   -2.8056    0.5726 H   0  0  0  0  0  0  0  0  0  0  0  0
    0.3862   -2.8455    0.3305 H   0  0  0  0  0  0  0  0  0  0  0  0
    0.5372    1.3297   -0.7438 H   0  0  0  0  0  0  0  0  0  0  0  0
    2.9126    1.3027   -0.4939 H   0  0  0  0  0  0  0  0  0  0  0  0
   -1.5488   -2.6323   -1.3415 H   0  0  0  0  0  0  0  0  0  0  0  0
   -4.1277   -1.8292   -1.2516 H   0  0  0  0  0  0  0  0  0  0  0  0
   -5.2641    0.5844   -0.2140 H   0  0  0  0  0  0  0  0  0  0  0  0
   -4.6908    2.7555    0.9045 H   0  0  0  0  0  0  0  0  0  0  0  0
   -2.3473    3.3011    1.4407 H   0  0  0  0  0  0  0  0  0  0  0  0
  1  2  1  0
  2  3  1  0
  3  4  2  0
  4  5  1  0
  5  6  2  0
  6  7  1  0
  7  8  2  0
  6  9  1  0
  9 10  1  0
 10 11  2  0
 11 12  1  0
 12 13  2  0
 13 14  1  0
 14 15  2  0
 15 16  1  0
 16 17  2  0
  8  3  1  0
 17  9  1  0
 17 12  1  0
  1 18  1  0
  1 19  1  0
  1 20  1  0
  4 21  1  0
  5 22  1  0
  7 23  1  0
  8 24  1  0
 10 25  1  0
 11 26  1  0
 13 27  1  0
 14 28  1  0
 15 29  1  0
M  END
$$$$
[H]N=C(N([H])[H])N([H])C([H])([H])C([H])([H])C([H])([H])[C@@]([H])(C(=O)c1nc([H])c([H])s1)N([H])C(=O)[C@@]([H])(N([H])C(=O)[C@@]([H])(N([H])[H])C([H])([H])c1c([H])c([H])c(O[H])c([H])c1[H])C([H])([H])C([H])(C([H])([H])[H])C([H])([H])[H]
     RDKit          3D

 71 72  0  0  0  0  0  0  0  0999 V2000
   -0.4268   -5.4313    0.6625 C   0  0  0  0  0  0  0  0  0  0  0  0
   -0.9561   -4.1023    0.0684 C   0  0  0  0  0  0  0  0  0  0  0  0
   -0.2697   -3.8950   -1.2390 C   0  0  0  0  0  0  0  0  0  0  0  0
   -0.7429   -3.0864    1.1076 C   0  0  0  0  0  0  0  0  0  0  0  0
   -1.1602   -1.6814    0.8456 C   0  0  2  0  0  0  0  0  0  0  0  0
   -2.5399   -1.5432    0.5205 N   0  0  0  0  0  0  0  0  0  0  0  0
   -3.5104   -1.3093    1.5305 C   0  0  0  0  0  0  0  0  0  0  0  0
   -3.1498   -1.2139    2.7601 O   0  0  0  0  0  0  0  0  0  0  0  0
   -4.9625   -1.1692    1.2746 C   0  0  1  0  0  0  0  0  0  0  0  0
   -5.6666   -1.6133    2.5075 N   0  0  0  0  0  0  0  0  0  0  0  0
   -5.3604    0.2748    1.0910 C   0  0  0  0  0  0  0  0  0  0  0  0
   -4.7354    1.0057    0.0066 C   0  0  0  0  0  0  0  0  0  0  0  0
   -5.2452    0.9797   -1.2771 C   0  0  0  0  0  0  0  0  0  0  0  0
   -4.6634    1.7274   -2.3029 C   0  0  0  0  0  0  0  0  0  0  0  0
   -3.5648    2.4983   -2.0163 C   0  0  0  0  0  0  0  0  0  0  0  0
   -2.9426    3.2675   -3.0052 O   0  0  0  0  0  0  0  0  0  0  0  0
   -3.0351    2.5426   -0.7450 C   0  0  0  0  0  0  0  0  0  0  0  0
   -3.6248    1.7971    0.2513 C   0  0  0  0  0  0  0  0  0  0  0  0
   -0.2847   -0.8805   -0.0138 C   0  0  0  0  0  0  0  0  0  0  0  0
   -0.7813   -0.2189   -1.0032 O   0  0  0  0  0  0  0  0  0  0  0  0
    1.1102   -0.7638    0.1673 N   0  0  0  0  0  0  0  0  0  0  0  0
    1.9081    0.1048   -0.7472 C   0  0  1  0  0  0  0  0  0  0  0  0
    1.9908    1.4598   -0.2208 C   0  0  0  0  0  0  0  0  0  0  0  0
    2.6161    2.5471   -0.9883 C   0  0  0  0  0  0  0  0  0  0  0  0
    2.5423    3.8909   -0.2333 C   0  0  0  0  0  0  0  0  0  0  0  0
    3.1946    3.8703    1.0343 N   0  0  0  0  0  0  0  0  0  0  0  0
    4.5893    3.7771    1.2390 C   0  0  0  0  0  0  0  0  0  0  0  0
    5.4411    4.4096    0.2634 N   0  0  0  0  0  0  0  0  0  0  0  0
    5.1408    3.1670    2.2314 N   0  0  0  0  0  0  0  0  0  0  0  0
    2.9700   -0.6776   -1.2768 C   0  0  0  0  0  0  0  0  0  0  0  0
    2.5642   -1.8144   -1.8295 O   0  0  0  0  0  0  0  0  0  0  0  0
    4.4151   -0.5367   -1.3526 C   0  0  0  0  0  0  0  0  0  0  0  0
    5.2218   -1.3699   -2.0165 N   0  0  0  0  0  0  0  0  0  0  0  0
    6.5061   -1.2211   -1.9710 C   0  0  0  0  0  0  0  0  0  0  0  0
    6.9987   -0.1830   -1.2204 C   0  0  0  0  0  0  0  0  0  0  0  0
    5.5615    0.5018   -0.6353 S   0  0  0  0  0  0  0  0  0  0  0  0
   -1.2230   -5.9603    1.2220 H   0  0  0  0  0  0  0  0  0  0  0  0
    0.3830   -5.2070    1.4063 H   0  0  0  0  0  0  0  0  0  0  0  0
    0.0360   -6.0442   -0.1218 H   0  0  0  0  0  0  0  0  0  0  0  0
   -2.0318   -4.3291   -0.1360 H   0  0  0  0  0  0  0  0  0  0  0  0
   -0.5731   -4.7318   -1.9427 H   0  0  0  0  0  0  0  0  0  0  0  0
    0.8383   -3.9965   -1.1273 H   0  0  0  0  0  0  0  0  0  0  0  0
   -0.5331   -2.9455   -1.7229 H   0  0  0  0  0  0  0  0  0  0  0  0
   -1.2353   -3.4294    2.0651 H   0  0  0  0  0  0  0  0  0  0  0  0
    0.3710   -3.0468    1.3165 H   0  0  0  0  0  0  0  0  0  0  0  0
   -1.0835   -1.1728    1.8972 H   0  0  0  0  0  0  0  0  0  0  0  0
   -2.8570   -1.6127   -0.4572 H   0  0  0  0  0  0  0  0  0  0  0  0
   -5.3284   -1.7831    0.4489 H   0  0  0  0  0  0  0  0  0  0  0  0
   -5.3607   -2.5999    2.6895 H   0  0  0  0  0  0  0  0  0  0  0  0
   -5.2317   -1.0306    3.2716 H   0  0  0  0  0  0  0  0  0  0  0  0
   -5.1649    0.8406    2.0513 H   0  0  0  0  0  0  0  0  0  0  0  0
   -6.4794    0.3332    0.9846 H   0  0  0  0  0  0  0  0  0  0  0  0
   -6.1182    0.3657   -1.5004 H   0  0  0  0  0  0  0  0  0  0  0  0
   -5.0701    1.7039   -3.3175 H   0  0  0  0  0  0  0  0  0  0  0  0
   -3.2348    4.2230   -3.1721 H   0  0  0  0  0  0  0  0  0  0  0  0
   -2.1598    3.1631   -0.5356 H   0  0  0  0  0  0  0  0  0  0  0  0
   -3.2414    1.8050    1.2606 H   0  0  0  0  0  0  0  0  0  0  0  0
    1.5774   -1.2759    0.9298 H   0  0  0  0  0  0  0  0  0  0  0  0
    1.1397    0.2051   -1.6313 H   0  0  0  0  0  0  0  0  0  0  0  0
    0.9261    1.8221    0.0133 H   0  0  0  0  0  0  0  0  0  0  0  0
    2.4224    1.4305    0.8465 H   0  0  0  0  0  0  0  0  0  0  0  0
    3.6184    2.4460   -1.3085 H   0  0  0  0  0  0  0  0  0  0  0  0
    1.9087    2.7481   -1.8722 H   0  0  0  0  0  0  0  0  0  0  0  0
    3.1204    4.6009   -0.8956 H   0  0  0  0  0  0  0  0  0  0  0  0
    1.5206    4.2765   -0.2135 H   0  0  0  0  0  0  0  0  0  0  0  0
    2.6053    3.9281    1.8996 H   0  0  0  0  0  0  0  0  0  0  0  0
    6.4208    4.0933    0.1609 H   0  0  0  0  0  0  0  0  0  0  0  0
    5.0888    5.1785   -0.3407 H   0  0  0  0  0  0  0  0  0  0  0  0
    4.5312    2.7011    2.9473 H   0  0  0  0  0  0  0  0  0  0  0  0
    7.2117   -1.9049   -2.5203 H   0  0  0  0  0  0  0  0  0  0  0  0
    8.0581    0.0953   -1.0679 H   0  0  0  0  0  0  0  0  0  0  0  0
  1  2  1  0
  2  3  1  0
  2  4  1  0
  4  5  1  0
  5  6  1  0
  6  7  1  0
  7  8  2  0
  7  9  1  0
  9 10  1  0
  9 11  1  0
 11 12  1  0
 12 13  2  0
 13 14  1  0
 14 15  2  0
 15 16  1  0
 15 17  1  0
 17 18  2  0
  5 19  1  0
 19 20  2  0
 19 21  1  0
 21 22  1  0
 22 23  1  0
 23 24  1  0
 24 25  1  0
 25 26  1  0
 26 27  1  0
 27 28  1  0
 27 29  2  3
 22 30  1  0
 30 31  2  0
 30 32  1  0
 32 33  2  0
 33 34  1  0
 34 35  2  0
 35 36  1  0
 18 12  1  0
 36 32  1  0
  1 37  1  0
  1 38  1  0
  1 39  1  0
  2 40  1  0
  3 41  1  0
  3 42  1  0
  3 43  1  0
  4 44  1  0
  4 45  1  0
  5 46  1  1
  6 47  1  0
  9 48  1  6
 10 49  1  0
 10 50  1  0
 11 51  1  0
 11 52  1  0
 13 53  1  0
 14 54  1  0
 16 55  1  0
 17 56  1  0
 18 57  1  0
 21 58  1  0
 22 59  1  6
 23 60  1  0
 23 61  1  0
 24 62  1  0
 24 63  1  0
 25 64  1  0
 25 65  1  0
 26 66  1  0
 28 67  1  0
 28 68  1  0
 29 69  1  0
 34 70  1  0
 35 71  1  0
M  END
$$$$
[H]c1c([H])c(N([H])C(=O)N([H])C2([H])C([H])([H])C([H])([H])N(C(=O)C3([H])C([H])([H])C3([H])[H])C([H])([H])C2([H])[H])c([H])c([H])c1OC(F)(F)F
     RDKit          3D

 46 48  0  0  0  0  0  0  0  0999 V2000
    9.6574    2.0394   -1.3752 F   0  0  0  0  0  0  0  0  0  0  0  0
    8.3159    1.7643   -1.5188 C   0  0  0  0  0  0  0  0  0  0  0  0
    8.1625    0.9839   -2.6469 F   0  0  0  0  0  0  0  0  0  0  0  0
    7.5567    2.9041   -1.6934 F   0  0  0  0  0  0  0  0  0  0  0  0
    7.8815    1.0747   -0.3616 O   0  0  0  0  0  0  0  0  0  0  0  0
    6.5540    0.6657   -0.2292 C   0  0  0  0  0  0  0  0  0  0  0  0
    5.6242    1.4931    0.3518 C   0  0  0  0  0  0  0  0  0  0  0  0
    4.3109    1.0675    0.4736 C   0  0  0  0  0  0  0  0  0  0  0  0
    3.9607   -0.1695    0.0128 C   0  0  0  0  0  0  0  0  0  0  0  0
    2.6420   -0.6903    0.0618 N   0  0  0  0  0  0  0  0  0  0  0  0
    1.5031    0.1281    0.1310 C   0  0  0  0  0  0  0  0  0  0  0  0
    1.5227    1.3766    0.1399 O   0  0  0  0  0  0  0  0  0  0  0  0
    0.2236   -0.5493    0.1957 N   0  0  0  0  0  0  0  0  0  0  0  0
   -0.9878    0.2228    0.2683 C   0  0  0  0  0  0  0  0  0  0  0  0
   -1.9086   -0.0074   -0.8858 C   0  0  0  0  0  0  0  0  0  0  0  0
   -3.2624   -0.5275   -0.5498 C   0  0  0  0  0  0  0  0  0  0  0  0
   -3.8169   -0.0509    0.6719 N   0  0  0  0  0  0  0  0  0  0  0  0
   -3.0050    0.6074    1.6764 C   0  0  0  0  0  0  0  0  0  0  0  0
   -1.6371   -0.0336    1.6088 C   0  0  0  0  0  0  0  0  0  0  0  0
   -5.1973   -0.2071    0.9505 C   0  0  0  0  0  0  0  0  0  0  0  0
   -5.7348    0.1969    2.0128 O   0  0  0  0  0  0  0  0  0  0  0  0
   -6.0656   -0.8698   -0.0327 C   0  0  0  0  0  0  0  0  0  0  0  0
   -7.0895   -1.8011    0.5692 C   0  0  0  0  0  0  0  0  0  0  0  0
   -7.5223   -0.5363   -0.1028 C   0  0  0  0  0  0  0  0  0  0  0  0
    4.9119   -1.0165   -0.5812 C   0  0  0  0  0  0  0  0  0  0  0  0
    6.1978   -0.5727   -0.6882 C   0  0  0  0  0  0  0  0  0  0  0  0
    5.8903    2.4918    0.7269 H   0  0  0  0  0  0  0  0  0  0  0  0
    3.6012    1.7479    0.9596 H   0  0  0  0  0  0  0  0  0  0  0  0
    2.5145   -1.7587    0.0489 H   0  0  0  0  0  0  0  0  0  0  0  0
    0.1661   -1.5857    0.1908 H   0  0  0  0  0  0  0  0  0  0  0  0
   -0.7127    1.2968    0.2619 H   0  0  0  0  0  0  0  0  0  0  0  0
   -1.9915    0.9004   -1.5522 H   0  0  0  0  0  0  0  0  0  0  0  0
   -1.4182   -0.7772   -1.5519 H   0  0  0  0  0  0  0  0  0  0  0  0
   -3.9356   -0.2345   -1.4101 H   0  0  0  0  0  0  0  0  0  0  0  0
   -3.3089   -1.6559   -0.5541 H   0  0  0  0  0  0  0  0  0  0  0  0
   -3.4224    0.3598    2.6744 H   0  0  0  0  0  0  0  0  0  0  0  0
   -2.9719    1.6846    1.5292 H   0  0  0  0  0  0  0  0  0  0  0  0
   -1.7379   -1.1012    1.8244 H   0  0  0  0  0  0  0  0  0  0  0  0
   -1.0193    0.4173    2.4107 H   0  0  0  0  0  0  0  0  0  0  0  0
   -5.6490   -1.2501   -0.9917 H   0  0  0  0  0  0  0  0  0  0  0  0
   -7.2738   -2.7746    0.1096 H   0  0  0  0  0  0  0  0  0  0  0  0
   -7.2064   -1.8144    1.6805 H   0  0  0  0  0  0  0  0  0  0  0  0
   -7.8687    0.3264    0.5225 H   0  0  0  0  0  0  0  0  0  0  0  0
   -8.0375   -0.5644   -1.0831 H   0  0  0  0  0  0  0  0  0  0  0  0
    4.6380   -2.0001   -0.9480 H   0  0  0  0  0  0  0  0  0  0  0  0
    6.9457   -1.2005   -1.1385 H   0  0  0  0  0  0  0  0  0  0  0  0
  1  2  1  0
  2  3  1  0
  2  4  1  0
  2  5  1  0
  5  6  1  0
  6  7  2  0
  7  8  1  0
  8  9  2  0
  9 10  1  0
 10 11  1  0
 11 12  2  0
 11 13  1  0
 13 14  1  0
 14 15  1  0
 15 16  1  0
 16 17  1  0
 17 18  1  0
 18 19  1  0
 17 20  1  0
 20 21  2  0
 20 22  1  0
 22 23  1  0
 23 24  1  0
  9 25  1  0
 25 26  2  0
 26  6  1  0
 19 14  1  0
 24 22  1  0
  7 27  1  0
  8 28  1  0
 10 29  1  0
 13 30  1  0
 14 31  1  0
 15 32  1  0
 15 33  1  0
 16 34  1  0
 16 35  1  0
 18 36  1  0
 18 37  1  0
 19 38  1  0
 19 39  1  0
 22 40  1  0
 23 41  1  0
 23 42  1  0
 24 43  1  0
 24 44  1  0
 25 45  1  0
 26 46  1  0
M  END
$$$$
[H]Oc1c(F)c(C([H])([H])[C@]2([H])C([H])([H])C([H])([H])C([H])([H])[C@@]2([H])C(=O)N([H])C2(c3c([H])c([H])c(Br)c([H])c3[H])C([H])([H])C2([H])[H])c([H])c([H])c1OC([H])([H])[H]
     RDKit          3D

 54 57  0  0  0  0  0  0  0  0999 V2000
    6.9690    2.2606    2.1957 C   0  0  0  0  0  0  0  0  0  0  0  0
    6.7564    1.1520    1.3478 O   0  0  0  0  0  0  0  0  0  0  0  0
    5.5882    0.9228    0.6775 C   0  0  0  0  0  0  0  0  0  0  0  0
    4.5239    1.8104    0.8032 C   0  0  0  0  0  0  0  0  0  0  0  0
    3.3736    1.5485    0.1244 C   0  0  0  0  0  0  0  0  0  0  0  0
    3.2037    0.4226   -0.7013 C   0  0  0  0  0  0  0  0  0  0  0  0
    1.8975    0.2432   -1.3119 C   0  0  0  0  0  0  0  0  0  0  0  0
    0.8495   -0.4990   -0.5911 C   0  0  2  0  0  0  0  0  0  0  0  0
    1.1331   -1.8984   -0.2611 C   0  0  0  0  0  0  0  0  0  0  0  0
    0.7899   -2.6651   -1.5188 C   0  0  0  0  0  0  0  0  0  0  0  0
   -0.0151   -1.7306   -2.4019 C   0  0  0  0  0  0  0  0  0  0  0  0
   -0.3731   -0.5538   -1.5178 C   0  0  1  0  0  0  0  0  0  0  0  0
   -1.6310   -0.7222   -0.8111 C   0  0  0  0  0  0  0  0  0  0  0  0
   -2.4391   -1.5837   -1.3357 O   0  0  0  0  0  0  0  0  0  0  0  0
   -2.0968   -0.0900    0.3482 N   0  0  0  0  0  0  0  0  0  0  0  0
   -3.4068   -0.3783    0.9115 C   0  0  0  0  0  0  0  0  0  0  0  0
   -3.5903   -1.8559    1.2295 C   0  0  0  0  0  0  0  0  0  0  0  0
   -3.4404   -0.8784    2.3214 C   0  0  0  0  0  0  0  0  0  0  0  0
   -4.5780    0.4540    0.5529 C   0  0  0  0  0  0  0  0  0  0  0  0
   -5.4151    0.1480   -0.4815 C   0  0  0  0  0  0  0  0  0  0  0  0
   -6.5167    0.9452   -0.7896 C   0  0  0  0  0  0  0  0  0  0  0  0
   -6.7913    2.0679   -0.0557 C   0  0  0  0  0  0  0  0  0  0  0  0
   -8.3091    3.1286   -0.5028 Br  0  0  0  0  0  0  0  0  0  0  0  0
   -5.9517    2.3951    0.9986 C   0  0  0  0  0  0  0  0  0  0  0  0
   -4.8741    1.5998    1.2855 C   0  0  0  0  0  0  0  0  0  0  0  0
    4.2523   -0.4337   -0.8173 C   0  0  0  0  0  0  0  0  0  0  0  0
    4.1964   -1.5095   -1.6452 F   0  0  0  0  0  0  0  0  0  0  0  0
    5.4454   -0.1733   -0.1195 C   0  0  0  0  0  0  0  0  0  0  0  0
    6.5020   -1.0741   -0.2586 O   0  0  0  0  0  0  0  0  0  0  0  0
    7.2433    3.1448    1.5751 H   0  0  0  0  0  0  0  0  0  0  0  0
    6.0504    2.4402    2.8238 H   0  0  0  0  0  0  0  0  0  0  0  0
    7.8171    2.0708    2.9025 H   0  0  0  0  0  0  0  0  0  0  0  0
    4.6014    2.6980    1.4307 H   0  0  0  0  0  0  0  0  0  0  0  0
    2.5280    2.2158    0.2005 H   0  0  0  0  0  0  0  0  0  0  0  0
    2.0418   -0.2615   -2.3111 H   0  0  0  0  0  0  0  0  0  0  0  0
    1.4626    1.2644   -1.5865 H   0  0  0  0  0  0  0  0  0  0  0  0
    0.4882    0.0837    0.3232 H   0  0  0  0  0  0  0  0  0  0  0  0
    0.4460   -2.2747    0.5613 H   0  0  0  0  0  0  0  0  0  0  0  0
    2.1462   -2.0535    0.1112 H   0  0  0  0  0  0  0  0  0  0  0  0
    1.7354   -2.9977   -1.9757 H   0  0  0  0  0  0  0  0  0  0  0  0
    0.1948   -3.5701   -1.2627 H   0  0  0  0  0  0  0  0  0  0  0  0
    0.6445   -1.4088   -3.2296 H   0  0  0  0  0  0  0  0  0  0  0  0
   -0.8810   -2.2187   -2.8500 H   0  0  0  0  0  0  0  0  0  0  0  0
   -0.3749    0.3467   -2.1246 H   0  0  0  0  0  0  0  0  0  0  0  0
   -1.5384    0.6308    0.8949 H   0  0  0  0  0  0  0  0  0  0  0  0
   -2.7611   -2.5446    1.0825 H   0  0  0  0  0  0  0  0  0  0  0  0
   -4.5665   -2.2698    0.9079 H   0  0  0  0  0  0  0  0  0  0  0  0
   -4.3856   -0.7267    2.9178 H   0  0  0  0  0  0  0  0  0  0  0  0
   -2.5332   -0.8594    2.9235 H   0  0  0  0  0  0  0  0  0  0  0  0
   -5.1989   -0.7366   -1.0608 H   0  0  0  0  0  0  0  0  0  0  0  0
   -7.1529    0.6872   -1.5941 H   0  0  0  0  0  0  0  0  0  0  0  0
   -6.1940    3.2814    1.5615 H   0  0  0  0  0  0  0  0  0  0  0  0
   -4.2357    1.8809    2.1172 H   0  0  0  0  0  0  0  0  0  0  0  0
    6.3701   -1.8754   -0.8526 H   0  0  0  0  0  0  0  0  0  0  0  0
  1  2  1  0
  2  3  1  0
  3  4  2  0
  4  5  1  0
  5  6  2  0
  6  7  1  0
  7  8  1  0
  8  9  1  0
  9 10  1  0
 10 11  1  0
 11 12  1  0
 12 13  1  0
 13 14  2  0
 13 15  1  0
 15 16  1  0
 16 17  1  0
 17 18  1  0
 16 19  1  0
 19 20  2  0
 20 21  1  0
 21 22  2  0
 22 23  1  0
 22 24  1  0
 24 25  2  0
  6 26  1  0
 26 27  1  0
 26 28  2  0
 28 29  1  0
 28  3  1  0
 12  8  1  0
 18 16  1  0
 25 19  1  0
  1 30  1  0
  1 31  1  0
  1 32  1  0
  4 33  1  0
  5 34  1  0
  7 35  1  0
  7 36  1  0
  8 37  1  1
  9 38  1  0
  9 39  1  0
 10 40  1  0
 10 41  1  0
 11 42  1  0
 11 43  1  0
 12 44  1  6
 15 45  1  0
 17 46  1  0
 17 47  1  0
 18 48  1  0
 18 49  1  0
 20 50  1  0
 21 51  1  0
 24 52  1  0
 25 53  1  0
 29 54  1  0
M  END
$$$$
[H]O[C@]1([H])[C@]([H])(O[H])[C@@]([H])(O[H])[C@]([H])(O[H])[C@]([H])(O[H])[C@]([H])(O[H])[C@@]1([H])C([H])([H])[H]
     RDKit          3D

 30 30  0  0  0  0  0  0  0  0999 V2000
   -2.0847   -1.8060   -0.1650 C   0  0  0  0  0  0  0  0  0  0  0  0
   -0.9414   -0.8278   -0.0866 C   0  0  2  0  0  0  0  0  0  0  0  0
    0.3257   -1.4734    0.4118 C   0  0  1  0  0  0  0  0  0  0  0  0
    0.2611   -2.8419    0.4883 O   0  0  0  0  0  0  0  0  0  0  0  0
    1.4450   -1.0010   -0.5263 C   0  0  1  0  0  0  0  0  0  0  0  0
    0.9651   -1.1660   -1.8135 O   0  0  0  0  0  0  0  0  0  0  0  0
    1.8050    0.4077   -0.1901 C   0  0  1  0  0  0  0  0  0  0  0  0
    2.8420    0.7985   -1.0465 O   0  0  0  0  0  0  0  0  0  0  0  0
    0.6894    1.3898   -0.3602 C   0  0  2  0  0  0  0  0  0  0  0  0
    1.3154    2.6639   -0.3893 O   0  0  0  0  0  0  0  0  0  0  0  0
   -0.2618    1.4122    0.7890 C   0  0  1  0  0  0  0  0  0  0  0  0
   -0.9464    2.6482    0.7324 O   0  0  0  0  0  0  0  0  0  0  0  0
   -1.2554    0.3199    0.8302 C   0  0  1  0  0  0  0  0  0  0  0  0
   -2.5711    0.7715    0.6254 O   0  0  0  0  0  0  0  0  0  0  0  0
   -2.9598   -1.2310   -0.5727 H   0  0  0  0  0  0  0  0  0  0  0  0
   -2.2977   -2.3247    0.7672 H   0  0  0  0  0  0  0  0  0  0  0  0
   -1.8182   -2.5255   -0.9936 H   0  0  0  0  0  0  0  0  0  0  0  0
   -0.8274   -0.4338   -1.1382 H   0  0  0  0  0  0  0  0  0  0  0  0
    0.6233   -1.0984    1.4224 H   0  0  0  0  0  0  0  0  0  0  0  0
    0.7113   -3.2279    1.2808 H   0  0  0  0  0  0  0  0  0  0  0  0
    2.3375   -1.6318   -0.3292 H   0  0  0  0  0  0  0  0  0  0  0  0
    1.6111   -0.9952   -2.5183 H   0  0  0  0  0  0  0  0  0  0  0  0
    2.1354    0.4417    0.8576 H   0  0  0  0  0  0  0  0  0  0  0  0
    3.0775    1.7436   -0.9363 H   0  0  0  0  0  0  0  0  0  0  0  0
    0.1810    1.3250   -1.3468 H   0  0  0  0  0  0  0  0  0  0  0  0
    0.6899    3.3602   -0.7048 H   0  0  0  0  0  0  0  0  0  0  0  0
    0.3494    1.4731    1.7232 H   0  0  0  0  0  0  0  0  0  0  0  0
   -1.5333    2.6775    1.5395 H   0  0  0  0  0  0  0  0  0  0  0  0
   -1.2625   -0.0980    1.8798 H   0  0  0  0  0  0  0  0  0  0  0  0
   -2.6053    1.2497   -0.2300 H   0  0  0  0  0  0  0  0  0  0  0  0
  1  2  1  0
  2  3  1  0
  3  4  1  0
  3  5  1  0
  5  6  1  0
  5  7  1  0
  7  8  1  0
  7  9  1  0
  9 10  1  0
  9 11  1  0
 11 12  1  0
 11 13  1  0
 13 14  1  0
 13  2  1  0
  1 15  1  0
  1 16  1  0
  1 17  1  0
  2 18  1  6
  3 19  1  1
  4 20  1  0
  5 21  1  6
  6 22  1  0
  7 23  1  1
  8 24  1  0
  9 25  1  6
 10 26  1  0
 11 27  1  1
 12 28  1  0
 13 29  1  1
 14 30  1  0
M  END
$$$$
[H]C1=C(c2c([H])c([H])c(OC([H])([H])C([H])([H])[H])c([H])c2[H])C([H])([H])C([H])([H])C([H])([H])C1([H])[H]
     RDKit          3D

 33 34  0  0  0  0  0  0  0  0999 V2000
    6.0819   -0.0442   -0.2758 C   0  0  0  0  0  0  0  0  0  0  0  0
    4.6193   -0.1732   -0.5413 C   0  0  0  0  0  0  0  0  0  0  0  0
    3.8111    0.4148    0.4309 O   0  0  0  0  0  0  0  0  0  0  0  0
    2.4250    0.3949    0.3529 C   0  0  0  0  0  0  0  0  0  0  0  0
    1.6072    0.9563    1.2797 C   0  0  0  0  0  0  0  0  0  0  0  0
    0.2154    0.8984    1.1372 C   0  0  0  0  0  0  0  0  0  0  0  0
   -0.3909    0.2777    0.0645 C   0  0  0  0  0  0  0  0  0  0  0  0
    0.4796   -0.2809   -0.8558 C   0  0  0  0  0  0  0  0  0  0  0  0
    1.8513   -0.2288   -0.7237 C   0  0  0  0  0  0  0  0  0  0  0  0
   -1.8406    0.2144   -0.0899 C   0  0  0  0  0  0  0  0  0  0  0  0
   -2.4477   -0.3753   -1.1060 C   0  0  0  0  0  0  0  0  0  0  0  0
   -3.9452   -0.3582   -1.1254 C   0  0  0  0  0  0  0  0  0  0  0  0
   -4.3561   -0.9866    0.1891 C   0  0  0  0  0  0  0  0  0  0  0  0
   -3.8818   -0.1207    1.3043 C   0  0  0  0  0  0  0  0  0  0  0  0
   -2.7973    0.8217    0.8966 C   0  0  0  0  0  0  0  0  0  0  0  0
    6.6185    0.3901   -1.1237 H   0  0  0  0  0  0  0  0  0  0  0  0
    6.4897   -1.0504   -0.0493 H   0  0  0  0  0  0  0  0  0  0  0  0
    6.2211    0.5692    0.6585 H   0  0  0  0  0  0  0  0  0  0  0  0
    4.3985    0.3271   -1.5124 H   0  0  0  0  0  0  0  0  0  0  0  0
    4.3214   -1.2337   -0.6398 H   0  0  0  0  0  0  0  0  0  0  0  0
    2.0612    1.4482    2.1290 H   0  0  0  0  0  0  0  0  0  0  0  0
   -0.3587    1.3594    1.9018 H   0  0  0  0  0  0  0  0  0  0  0  0
    0.0692   -0.7812   -1.7179 H   0  0  0  0  0  0  0  0  0  0  0  0
    2.4384   -0.7055   -1.5139 H   0  0  0  0  0  0  0  0  0  0  0  0
   -1.8841   -0.8413   -1.8753 H   0  0  0  0  0  0  0  0  0  0  0  0
   -4.3430    0.6656   -1.2396 H   0  0  0  0  0  0  0  0  0  0  0  0
   -4.3262   -1.0147   -1.9464 H   0  0  0  0  0  0  0  0  0  0  0  0
   -5.4479   -1.1704    0.2407 H   0  0  0  0  0  0  0  0  0  0  0  0
   -3.8423   -1.9859    0.2209 H   0  0  0  0  0  0  0  0  0  0  0  0
   -4.7648    0.4246    1.7330 H   0  0  0  0  0  0  0  0  0  0  0  0
   -3.4582   -0.7904    2.0934 H   0  0  0  0  0  0  0  0  0  0  0  0
   -3.3089    1.6411    0.3047 H   0  0  0  0  0  0  0  0  0  0  0  0
   -2.3151    1.3377    1.7265 H   0  0  0  0  0  0  0  0  0  0  0  0
  1  2  1  0
  2  3  1  0
  3  4  1  0
  4  5  2  0
  5  6  1  0
  6  7  2  0
  7  8  1  0
  8  9  2  0
  7 10  1  0
 10 11  2  0
 11 12  1  0
 12 13  1  0
 13 14  1  0
 14 15  1  0
  9  4  1  0
 15 10  1  0
  1 16  1  0
  1 17  1  0
  1 18  1  0
  2 19  1  0
  2 20  1  0
  5 21  1  0
  6 22  1  0
  8 23  1  0
  9 24  1  0
 11 25  1  0
 12 26  1  0
 12 27  1  0
 13 28  1  0
 13 29  1  0
 14 30  1  0
 14 31  1  0
 15 32  1  0
 15 33  1  0
M  END
$$$$
[H]c1nc2c([H])c(OC([H])([H])C([H])([H])C([H])([H])N3C([H])([H])C([H])([H])N(C([H])([H])[H])C([H])([H])C3([H])[H])c(OC([H])([H])[H])c([H])c2c(N([H])c2c([H])c(OC([H])([H])[H])c(OC([H])([H])[H])c(OC([H])([H])[H])c2[H])c1C#N
     RDKit          3D

 73 76  0  0  0  0  0  0  0  0999 V2000
   -4.5732    0.7761   -2.9596 C   0  0  0  0  0  0  0  0  0  0  0  0
   -5.3704   -0.2440   -2.3936 O   0  0  0  0  0  0  0  0  0  0  0  0
   -5.2482   -0.4642   -1.0219 C   0  0  0  0  0  0  0  0  0  0  0  0
   -4.3924    0.2707   -0.2334 C   0  0  0  0  0  0  0  0  0  0  0  0
   -4.3138    0.0091    1.1105 C   0  0  0  0  0  0  0  0  0  0  0  0
   -3.4555    0.7343    1.9599 N   0  0  0  0  0  0  0  0  0  0  0  0
   -2.6482    1.8014    1.4447 C   0  0  0  0  0  0  0  0  0  0  0  0
   -3.1768    3.0875    1.4532 C   0  0  0  0  0  0  0  0  0  0  0  0
   -2.3896    4.1053    0.9529 C   0  0  0  0  0  0  0  0  0  0  0  0
   -1.1490    3.8517    0.4732 N   0  0  0  0  0  0  0  0  0  0  0  0
   -0.6380    2.5986    0.4665 C   0  0  0  0  0  0  0  0  0  0  0  0
    0.6361    2.3428   -0.0289 C   0  0  0  0  0  0  0  0  0  0  0  0
    1.1657    1.0702   -0.0423 C   0  0  0  0  0  0  0  0  0  0  0  0
    2.4383    0.8889   -0.5493 O   0  0  0  0  0  0  0  0  0  0  0  0
    3.1809    1.9683   -1.0415 C   0  0  0  0  0  0  0  0  0  0  0  0
    4.5590    1.5683   -1.5566 C   0  0  0  0  0  0  0  0  0  0  0  0
    5.3756    0.9339   -0.4614 C   0  0  0  0  0  0  0  0  0  0  0  0
    4.6969   -0.2708   -0.0171 N   0  0  0  0  0  0  0  0  0  0  0  0
    5.3961   -0.8234    1.1580 C   0  0  0  0  0  0  0  0  0  0  0  0
    6.7957   -1.2063    0.8368 C   0  0  0  0  0  0  0  0  0  0  0  0
    7.0420   -1.8070   -0.4152 N   0  0  0  0  0  0  0  0  0  0  0  0
    8.4034   -1.6879   -0.8772 C   0  0  0  0  0  0  0  0  0  0  0  0
    6.0706   -1.7332   -1.4323 C   0  0  0  0  0  0  0  0  0  0  0  0
    4.7041   -1.2871   -1.0638 C   0  0  0  0  0  0  0  0  0  0  0  0
    0.3997    0.0197    0.4544 C   0  0  0  0  0  0  0  0  0  0  0  0
    0.9681   -1.2462    0.4228 O   0  0  0  0  0  0  0  0  0  0  0  0
    0.2510   -2.3576    0.9081 C   0  0  0  0  0  0  0  0  0  0  0  0
   -0.8628    0.2651    0.9469 C   0  0  0  0  0  0  0  0  0  0  0  0
   -1.3853    1.5385    0.9570 C   0  0  0  0  0  0  0  0  0  0  0  0
   -4.4996    3.3532    1.9655 C   0  0  0  0  0  0  0  0  0  0  0  0
   -5.5517    3.5647    2.3705 N   0  0  0  0  0  0  0  0  0  0  0  0
   -5.1014   -0.9901    1.6328 C   0  0  0  0  0  0  0  0  0  0  0  0
   -5.9687   -1.7443    0.8715 C   0  0  0  0  0  0  0  0  0  0  0  0
   -6.7686   -2.7538    1.3855 O   0  0  0  0  0  0  0  0  0  0  0  0
   -6.8240   -3.1564    2.7210 C   0  0  0  0  0  0  0  0  0  0  0  0
   -6.0349   -1.4646   -0.4913 C   0  0  0  0  0  0  0  0  0  0  0  0
   -6.8998   -2.2118   -1.2725 O   0  0  0  0  0  0  0  0  0  0  0  0
   -6.4114   -3.4049   -1.8650 C   0  0  0  0  0  0  0  0  0  0  0  0
   -4.8277    0.9484   -4.0321 H   0  0  0  0  0  0  0  0  0  0  0  0
   -4.7643    1.7144   -2.3630 H   0  0  0  0  0  0  0  0  0  0  0  0
   -3.5132    0.4474   -2.8614 H   0  0  0  0  0  0  0  0  0  0  0  0
   -3.8016    1.0357   -0.6894 H   0  0  0  0  0  0  0  0  0  0  0  0
   -3.4168    0.4828    2.9669 H   0  0  0  0  0  0  0  0  0  0  0  0
   -2.8030    5.1080    0.9603 H   0  0  0  0  0  0  0  0  0  0  0  0
    1.2088    3.1712   -0.4073 H   0  0  0  0  0  0  0  0  0  0  0  0
    3.3476    2.7093   -0.2083 H   0  0  0  0  0  0  0  0  0  0  0  0
    2.6375    2.5387   -1.8230 H   0  0  0  0  0  0  0  0  0  0  0  0
    5.0782    2.4750   -1.9625 H   0  0  0  0  0  0  0  0  0  0  0  0
    4.4016    0.9201   -2.4371 H   0  0  0  0  0  0  0  0  0  0  0  0
    6.3823    0.7306   -0.8885 H   0  0  0  0  0  0  0  0  0  0  0  0
    5.5078    1.5844    0.4017 H   0  0  0  0  0  0  0  0  0  0  0  0
    5.4185    0.0087    1.8906 H   0  0  0  0  0  0  0  0  0  0  0  0
    4.8091   -1.6900    1.4843 H   0  0  0  0  0  0  0  0  0  0  0  0
    7.4903   -0.3172    0.9266 H   0  0  0  0  0  0  0  0  0  0  0  0
    7.1454   -1.8752    1.6801 H   0  0  0  0  0  0  0  0  0  0  0  0
    8.8602   -2.7068   -0.7747 H   0  0  0  0  0  0  0  0  0  0  0  0
    8.3716   -1.4624   -1.9654 H   0  0  0  0  0  0  0  0  0  0  0  0
    9.0051   -0.9503   -0.3354 H   0  0  0  0  0  0  0  0  0  0  0  0
    6.4504   -0.9877   -2.1970 H   0  0  0  0  0  0  0  0  0  0  0  0
    6.0002   -2.6825   -2.0402 H   0  0  0  0  0  0  0  0  0  0  0  0
    4.0831   -0.9762   -1.9008 H   0  0  0  0  0  0  0  0  0  0  0  0
    4.1770   -2.1715   -0.6003 H   0  0  0  0  0  0  0  0  0  0  0  0
    0.2084   -2.3327    2.0286 H   0  0  0  0  0  0  0  0  0  0  0  0
   -0.8178   -2.3482    0.5697 H   0  0  0  0  0  0  0  0  0  0  0  0
    0.7432   -3.3131    0.6510 H   0  0  0  0  0  0  0  0  0  0  0  0
   -1.4290   -0.5672    1.3251 H   0  0  0  0  0  0  0  0  0  0  0  0
   -5.0471   -1.2116    2.7107 H   0  0  0  0  0  0  0  0  0  0  0  0
   -7.8326   -3.5967    2.8902 H   0  0  0  0  0  0  0  0  0  0  0  0
   -6.6524   -2.2658    3.3638 H   0  0  0  0  0  0  0  0  0  0  0  0
   -6.0327   -3.9222    2.8855 H   0  0  0  0  0  0  0  0  0  0  0  0
   -6.0979   -4.1465   -1.1022 H   0  0  0  0  0  0  0  0  0  0  0  0
   -7.2035   -3.8916   -2.4728 H   0  0  0  0  0  0  0  0  0  0  0  0
   -5.5067   -3.1541   -2.4423 H   0  0  0  0  0  0  0  0  0  0  0  0
  1  2  1  0
  2  3  1  0
  3  4  2  0
  4  5  1  0
  5  6  1  0
  6  7  1  0
  7  8  2  0
  8  9  1  0
  9 10  2  0
 10 11  1  0
 11 12  2  0
 12 13  1  0
 13 14  1  0
 14 15  1  0
 15 16  1  0
 16 17  1  0
 17 18  1  0
 18 19  1  0
 19 20  1  0
 20 21  1  0
 21 22  1  0
 21 23  1  0
 23 24  1  0
 13 25  2  0
 25 26  1  0
 26 27  1  0
 25 28  1  0
 28 29  2  0
  8 30  1  0
 30 31  3  0
  5 32  2  0
 32 33  1  0
 33 34  1  0
 34 35  1  0
 33 36  2  0
 36 37  1  0
 37 38  1  0
 36  3  1  0
 29  7  1  0
 29 11  1  0
 24 18  1  0
  1 39  1  0
  1 40  1  0
  1 41  1  0
  4 42  1  0
  6 43  1  0
  9 44  1  0
 12 45  1  0
 15 46  1  0
 15 47  1  0
 16 48  1  0
 16 49  1  0
 17 50  1  0
 17 51  1  0
 19 52  1  0
 19 53  1  0
 20 54  1  0
 20 55  1  0
 22 56  1  0
 22 57  1  0
 22 58  1  0
 23 59  1  0
 23 60  1  0
 24 61  1  0
 24 62  1  0
 27 63  1  0
 27 64  1  0
 27 65  1  0
 28 66  1  0
 32 67  1  0
 35 68  1  0
 35 69  1  0
 35 70  1  0
 38 71  1  0
 38 72  1  0
 38 73  1  0
M  END
$$$$
[H]c1nc(Oc2c([H])c([H])c(N([H])C(=O)N([H])c3c([H])c([H])c(C([H])([H])N4C([H])([H])C([H])([H])N(C([H])([H])C([H])([H])[H])C([H])([H])C4([H])[H])c(C(F)(F)F)c3[H])c([H])c2[H])c([H])c(N([H])C([H])([H])[H])n1
     RDKit          3D

 68 71  0  0  0  0  0  0  0  0999 V2000
  -10.2990   -0.3201   -0.2443 C   0  0  0  0  0  0  0  0  0  0  0  0
   -9.0487    0.5002   -0.4280 C   0  0  0  0  0  0  0  0  0  0  0  0
   -8.1793   -0.0359   -1.4572 N   0  0  0  0  0  0  0  0  0  0  0  0
   -7.0305    0.8062   -1.5517 C   0  0  0  0  0  0  0  0  0  0  0  0
   -5.7154    0.1130   -1.2911 C   0  0  0  0  0  0  0  0  0  0  0  0
   -5.7379   -0.8228   -0.2229 N   0  0  0  0  0  0  0  0  0  0  0  0
   -5.1553   -0.4373    1.0060 C   0  0  0  0  0  0  0  0  0  0  0  0
   -3.7153   -0.2169    1.0542 C   0  0  0  0  0  0  0  0  0  0  0  0
   -2.9459   -0.4458   -0.0457 C   0  0  0  0  0  0  0  0  0  0  0  0
   -1.5554   -0.2549    0.0222 C   0  0  0  0  0  0  0  0  0  0  0  0
   -0.9188    0.1543    1.1522 C   0  0  0  0  0  0  0  0  0  0  0  0
    0.4451    0.3547    1.3623 N   0  0  0  0  0  0  0  0  0  0  0  0
    1.4499   -0.2261    0.5465 C   0  0  0  0  0  0  0  0  0  0  0  0
    1.1958   -0.9699   -0.4220 O   0  0  0  0  0  0  0  0  0  0  0  0
    2.8063    0.0526    0.8476 N   0  0  0  0  0  0  0  0  0  0  0  0
    3.8841   -0.4730    0.1219 C   0  0  0  0  0  0  0  0  0  0  0  0
    5.0696    0.2695    0.1595 C   0  0  0  0  0  0  0  0  0  0  0  0
    6.1724   -0.1959   -0.5017 C   0  0  0  0  0  0  0  0  0  0  0  0
    6.1984   -1.3743   -1.2203 C   0  0  0  0  0  0  0  0  0  0  0  0
    7.3559   -1.8175   -1.8874 O   0  0  0  0  0  0  0  0  0  0  0  0
    8.4788   -0.9936   -1.7796 C   0  0  0  0  0  0  0  0  0  0  0  0
    9.3306   -1.0781   -0.6992 C   0  0  0  0  0  0  0  0  0  0  0  0
   10.4383   -0.2312   -0.6411 C   0  0  0  0  0  0  0  0  0  0  0  0
   11.3426   -0.2777    0.4449 N   0  0  0  0  0  0  0  0  0  0  0  0
   12.4721    0.6190    0.4560 C   0  0  0  0  0  0  0  0  0  0  0  0
   10.6148    0.6290   -1.6528 N   0  0  0  0  0  0  0  0  0  0  0  0
    9.7904    0.7181   -2.7086 C   0  0  0  0  0  0  0  0  0  0  0  0
    8.7293   -0.1014   -2.7527 N   0  0  0  0  0  0  0  0  0  0  0  0
    5.0337   -2.0940   -1.2508 C   0  0  0  0  0  0  0  0  0  0  0  0
    3.8935   -1.6380   -0.5818 C   0  0  0  0  0  0  0  0  0  0  0  0
   -1.7503    0.3770    2.2572 C   0  0  0  0  0  0  0  0  0  0  0  0
   -3.1090    0.2069    2.2445 C   0  0  0  0  0  0  0  0  0  0  0  0
   -3.9076    0.4692    3.4596 C   0  0  0  0  0  0  0  0  0  0  0  0
   -3.0267    0.8724    4.4765 F   0  0  0  0  0  0  0  0  0  0  0  0
   -4.5531   -0.6222    3.9660 F   0  0  0  0  0  0  0  0  0  0  0  0
   -4.7451    1.5847    3.3219 F   0  0  0  0  0  0  0  0  0  0  0  0
   -6.9874   -1.4884    0.0062 C   0  0  0  0  0  0  0  0  0  0  0  0
   -7.8513   -1.4181   -1.2341 C   0  0  0  0  0  0  0  0  0  0  0  0
  -10.0056   -1.2236    0.3376 H   0  0  0  0  0  0  0  0  0  0  0  0
  -11.0156    0.2828    0.3494 H   0  0  0  0  0  0  0  0  0  0  0  0
  -10.7451   -0.5533   -1.2099 H   0  0  0  0  0  0  0  0  0  0  0  0
   -9.3902    1.5064   -0.7967 H   0  0  0  0  0  0  0  0  0  0  0  0
   -8.5282    0.6942    0.5188 H   0  0  0  0  0  0  0  0  0  0  0  0
   -6.9427    1.2787   -2.5729 H   0  0  0  0  0  0  0  0  0  0  0  0
   -7.0852    1.6803   -0.8419 H   0  0  0  0  0  0  0  0  0  0  0  0
   -5.3787   -0.3639   -2.2424 H   0  0  0  0  0  0  0  0  0  0  0  0
   -4.9782    0.9378   -1.0987 H   0  0  0  0  0  0  0  0  0  0  0  0
   -5.3596   -1.2873    1.7313 H   0  0  0  0  0  0  0  0  0  0  0  0
   -5.7610    0.3966    1.4141 H   0  0  0  0  0  0  0  0  0  0  0  0
   -3.3300   -0.7898   -1.0118 H   0  0  0  0  0  0  0  0  0  0  0  0
   -0.9627   -0.4277   -0.8741 H   0  0  0  0  0  0  0  0  0  0  0  0
    0.7597    0.9698    2.1611 H   0  0  0  0  0  0  0  0  0  0  0  0
    3.0013    0.6928    1.6707 H   0  0  0  0  0  0  0  0  0  0  0  0
    5.0877    1.2125    0.7209 H   0  0  0  0  0  0  0  0  0  0  0  0
    7.0847    0.3965   -0.4601 H   0  0  0  0  0  0  0  0  0  0  0  0
    9.1416   -1.7902    0.0899 H   0  0  0  0  0  0  0  0  0  0  0  0
   11.2010   -0.9471    1.2284 H   0  0  0  0  0  0  0  0  0  0  0  0
   12.6067    1.1140   -0.5277 H   0  0  0  0  0  0  0  0  0  0  0  0
   13.4237    0.0623    0.6491 H   0  0  0  0  0  0  0  0  0  0  0  0
   12.3043    1.3858    1.2464 H   0  0  0  0  0  0  0  0  0  0  0  0
    9.9776    1.4417   -3.5159 H   0  0  0  0  0  0  0  0  0  0  0  0
    5.0003   -3.0327   -1.8043 H   0  0  0  0  0  0  0  0  0  0  0  0
    3.0130   -2.2945   -0.6480 H   0  0  0  0  0  0  0  0  0  0  0  0
   -1.3081    0.7006    3.1773 H   0  0  0  0  0  0  0  0  0  0  0  0
   -7.5417   -1.0573    0.8567 H   0  0  0  0  0  0  0  0  0  0  0  0
   -6.7530   -2.5420    0.2777 H   0  0  0  0  0  0  0  0  0  0  0  0
   -7.2335   -1.7544   -2.0856 H   0  0  0  0  0  0  0  0  0  0  0  0
   -8.7522   -2.0077   -1.0717 H   0  0  0  0  0  0  0  0  0  0  0  0
  1  2  1  0
  2  3  1  0
  3  4  1  0
  4  5  1  0
  5  6  1  0
  6  7  1  0
  7  8  1  0
  8  9  2  0
  9 10  1  0
 10 11  2  0
 11 12  1  0
 12 13  1  0
 13 14  2  0
 13 15  1  0
 15 16  1  0
 16 17  2  0
 17 18  1  0
 18 19  2  0
 19 20  1  0
 20 21  1  0
 21 22  2  0
 22 23  1  0
 23 24  1  0
 24 25  1  0
 23 26  2  0
 26 27  1  0
 27 28  2  0
 19 29  1  0
 29 30  2  0
 11 31  1  0
 31 32  2  0
 32 33  1  0
 33 34  1  0
 33 35  1  0
 33 36  1  0
  6 37  1  0
 37 38  1  0
 38  3  1  0
 32  8  1  0
 30 16  1  0
 28 21  1  0
  1 39  1  0
  1 40  1  0
  1 41  1  0
  2 42  1  0
  2 43  1  0
  4 44  1  0
  4 45  1  0
  5 46  1  0
  5 47  1  0
  7 48  1  0
  7 49  1  0
  9 50  1  0
 10 51  1  0
 12 52  1  0
 15 53  1  0
 17 54  1  0
 18 55  1  0
 22 56  1  0
 24 57  1  0
 25 58  1  0
 25 59  1  0
 25 60  1  0
 27 61  1  0
 29 62  1  0
 30 63  1  0
 31 64  1  0
 37 65  1  0
 37 66  1  0
 38 67  1  0
 38 68  1  0
M  END
$$$$
[H]c1c([H])c([H])c(C([H])([H])[C@@]([H])(C(=O)N([H])[C@]([H])(c2c([H])c([H])c(C(F)(F)F)c([H])c2[H])C([H])([H])[H])N([H])C(=O)c2c([H])c([H])c(C(F)(F)F)c([H])c2[H])c([H])c1[H]
     RDKit          3D

 58 60  0  0  0  0  0  0  0  0999 V2000
    4.4563   -2.2533    1.6475 C   0  0  0  0  0  0  0  0  0  0  0  0
    3.5113   -1.1024    1.5026 C   0  0  2  0  0  0  0  0  0  0  0  0
    2.2882   -1.5553    0.8888 N   0  0  0  0  0  0  0  0  0  0  0  0
    1.0283   -1.0230    1.1474 C   0  0  0  0  0  0  0  0  0  0  0  0
    0.9373   -0.0480    1.9628 O   0  0  0  0  0  0  0  0  0  0  0  0
   -0.2555   -1.4692    0.5671 C   0  0  2  0  0  0  0  0  0  0  0  0
   -0.1958   -2.6404   -0.3432 C   0  0  0  0  0  0  0  0  0  0  0  0
   -1.5134   -2.9854   -0.9136 C   0  0  0  0  0  0  0  0  0  0  0  0
   -1.9013   -2.4247   -2.1369 C   0  0  0  0  0  0  0  0  0  0  0  0
   -3.1369   -2.6858   -2.6944 C   0  0  0  0  0  0  0  0  0  0  0  0
   -4.0360   -3.5173   -2.0577 C   0  0  0  0  0  0  0  0  0  0  0  0
   -3.6656   -4.0780   -0.8516 C   0  0  0  0  0  0  0  0  0  0  0  0
   -2.4367   -3.7966   -0.3298 C   0  0  0  0  0  0  0  0  0  0  0  0
   -1.1574   -0.4086    0.2027 N   0  0  0  0  0  0  0  0  0  0  0  0
   -2.1104    0.1553    1.0887 C   0  0  0  0  0  0  0  0  0  0  0  0
   -2.1456   -0.2933    2.2629 O   0  0  0  0  0  0  0  0  0  0  0  0
   -3.0315    1.2046    0.7174 C   0  0  0  0  0  0  0  0  0  0  0  0
   -2.9121    2.5255    1.0682 C   0  0  0  0  0  0  0  0  0  0  0  0
   -3.8655    3.4799    0.6815 C   0  0  0  0  0  0  0  0  0  0  0  0
   -4.9390    3.1041   -0.0591 C   0  0  0  0  0  0  0  0  0  0  0  0
   -5.0876    1.7950   -0.4259 C   0  0  0  0  0  0  0  0  0  0  0  0
   -4.1487    0.8763   -0.0401 C   0  0  0  0  0  0  0  0  0  0  0  0
   -5.9527    4.1382   -0.4460 C   0  0  0  0  0  0  0  0  0  0  0  0
   -5.4438    5.1337   -1.2316 F   0  0  0  0  0  0  0  0  0  0  0  0
   -6.3614    4.7328    0.7588 F   0  0  0  0  0  0  0  0  0  0  0  0
   -7.0479    3.5394   -1.0115 F   0  0  0  0  0  0  0  0  0  0  0  0
    4.1549    0.0359    0.7778 C   0  0  0  0  0  0  0  0  0  0  0  0
    4.8152    1.0149    1.5278 C   0  0  0  0  0  0  0  0  0  0  0  0
    5.4339    2.1110    0.9705 C   0  0  0  0  0  0  0  0  0  0  0  0
    5.3973    2.2483   -0.4016 C   0  0  0  0  0  0  0  0  0  0  0  0
    4.7589    1.3097   -1.1721 C   0  0  0  0  0  0  0  0  0  0  0  0
    4.1329    0.1951   -0.5813 C   0  0  0  0  0  0  0  0  0  0  0  0
    6.0924    3.4513   -0.9476 C   0  0  0  0  0  0  0  0  0  0  0  0
    7.4327    3.2834   -0.5813 F   0  0  0  0  0  0  0  0  0  0  0  0
    5.9235    3.6336   -2.2829 F   0  0  0  0  0  0  0  0  0  0  0  0
    5.6639    4.5312   -0.1806 F   0  0  0  0  0  0  0  0  0  0  0  0
    5.1750   -2.1568    2.4761 H   0  0  0  0  0  0  0  0  0  0  0  0
    3.8581   -3.1829    1.8639 H   0  0  0  0  0  0  0  0  0  0  0  0
    4.9724   -2.4747    0.6756 H   0  0  0  0  0  0  0  0  0  0  0  0
    3.2697   -0.6816    2.5252 H   0  0  0  0  0  0  0  0  0  0  0  0
    2.3911   -2.3451    0.1983 H   0  0  0  0  0  0  0  0  0  0  0  0
   -0.7722   -1.9044    1.5296 H   0  0  0  0  0  0  0  0  0  0  0  0
    0.1407   -3.5752    0.2096 H   0  0  0  0  0  0  0  0  0  0  0  0
    0.5241   -2.5582   -1.1872 H   0  0  0  0  0  0  0  0  0  0  0  0
   -1.2577   -1.7845   -2.6863 H   0  0  0  0  0  0  0  0  0  0  0  0
   -3.4233   -2.2541   -3.6395 H   0  0  0  0  0  0  0  0  0  0  0  0
   -4.9970   -3.7061   -2.5020 H   0  0  0  0  0  0  0  0  0  0  0  0
   -4.4136   -4.7308   -0.3806 H   0  0  0  0  0  0  0  0  0  0  0  0
   -2.1923   -4.2636    0.6356 H   0  0  0  0  0  0  0  0  0  0  0  0
   -1.1144   -0.0223   -0.7690 H   0  0  0  0  0  0  0  0  0  0  0  0
   -2.0651    2.8367    1.6509 H   0  0  0  0  0  0  0  0  0  0  0  0
   -3.6981    4.5040    0.9904 H   0  0  0  0  0  0  0  0  0  0  0  0
   -5.9623    1.5178   -1.0262 H   0  0  0  0  0  0  0  0  0  0  0  0
   -4.2984   -0.1412   -0.3511 H   0  0  0  0  0  0  0  0  0  0  0  0
    4.8425    0.9105    2.5951 H   0  0  0  0  0  0  0  0  0  0  0  0
    5.9477    2.8617    1.5777 H   0  0  0  0  0  0  0  0  0  0  0  0
    4.7562    1.4666   -2.2514 H   0  0  0  0  0  0  0  0  0  0  0  0
    3.6348   -0.5339   -1.2187 H   0  0  0  0  0  0  0  0  0  0  0  0
  1  2  1  0
  2  3  1  0
  3  4  1  0
  4  5  2  0
  4  6  1  0
  6  7  1  0
  7  8  1  0
  8  9  2  0
  9 10  1  0
 10 11  2  0
 11 12  1  0
 12 13  2  0
  6 14  1  0
 14 15  1  0
 15 16  2  0
 15 17  1  0
 17 18  2  0
 18 19  1  0
 19 20  2  0
 20 21  1  0
 21 22  2  0
 20 23  1  0
 23 24  1  0
 23 25  1  0
 23 26  1  0
  2 27  1  0
 27 28  2  0
 28 29  1  0
 29 30  2  0
 30 31  1  0
 31 32  2  0
 30 33  1  0
 33 34  1  0
 33 35  1  0
 33 36  1  0
 13  8  1  0
 22 17  1  0
 32 27  1  0
  1 37  1  0
  1 38  1  0
  1 39  1  0
  2 40  1  1
  3 41  1  0
  6 42  1  1
  7 43  1  0
  7 44  1  0
  9 45  1  0
 10 46  1  0
 11 47  1  0
 12 48  1  0
 13 49  1  0
 14 50  1  0
 18 51  1  0
 19 52  1  0
 21 53  1  0
 22 54  1  0
 28 55  1  0
 29 56  1  0
 31 57  1  0
 32 58  1  0
M  END
$$$$
[H]c1nc(N([H])[H])c(C(F)(F)F)nc1-c1c([H])c([H])c(S(=O)(=O)N([H])[C@]([H])(c2c([H])c([H])c([H])c([H])c2[H])C([H])(C([H])([H])[H])C([H])([H])[H])c([H])c1[H]
     RDKit          3D

 52 54  0  0  0  0  0  0  0  0999 V2000
   -4.6759    0.2149    2.5564 C   0  0  0  0  0  0  0  0  0  0  0  0
   -4.4922   -0.5391    1.2418 C   0  0  0  0  0  0  0  0  0  0  0  0
   -4.5330   -1.9957    1.6117 C   0  0  0  0  0  0  0  0  0  0  0  0
   -3.1651   -0.2046    0.5762 C   0  0  2  0  0  0  0  0  0  0  0  0
   -3.0581    1.1841    0.3088 N   0  0  0  0  0  0  0  0  0  0  0  0
   -1.8789    2.0807    1.1135 S   0  0  0  0  0  0  0  0  0  0  0  0
   -2.1442    2.0801    2.6200 O   0  0  0  0  0  0  0  0  0  0  0  0
   -1.9779    3.5597    0.6978 O   0  0  0  0  0  0  0  0  0  0  0  0
   -0.2268    1.6150    0.8223 C   0  0  0  0  0  0  0  0  0  0  0  0
    0.5346    2.2026   -0.1957 C   0  0  0  0  0  0  0  0  0  0  0  0
    1.8336    1.8358   -0.4207 C   0  0  0  0  0  0  0  0  0  0  0  0
    2.4670    0.8743    0.3335 C   0  0  0  0  0  0  0  0  0  0  0  0
    1.7334    0.2780    1.3460 C   0  0  0  0  0  0  0  0  0  0  0  0
    0.4207    0.6582    1.5644 C   0  0  0  0  0  0  0  0  0  0  0  0
    3.8724    0.5158    0.0601 C   0  0  0  0  0  0  0  0  0  0  0  0
    4.5748   -0.4325    0.7328 C   0  0  0  0  0  0  0  0  0  0  0  0
    5.8780   -0.7131    0.4227 N   0  0  0  0  0  0  0  0  0  0  0  0
    6.4821   -0.0193   -0.5897 C   0  0  0  0  0  0  0  0  0  0  0  0
    7.8374   -0.2938   -0.9329 N   0  0  0  0  0  0  0  0  0  0  0  0
    5.7662    0.9425   -1.2706 C   0  0  0  0  0  0  0  0  0  0  0  0
    4.4982    1.1878   -0.9395 N   0  0  0  0  0  0  0  0  0  0  0  0
    6.3826    1.7168   -2.3780 C   0  0  0  0  0  0  0  0  0  0  0  0
    5.4534    2.5957   -2.8825 F   0  0  0  0  0  0  0  0  0  0  0  0
    7.5358    2.3570   -1.9679 F   0  0  0  0  0  0  0  0  0  0  0  0
    6.7601    0.8550   -3.4075 F   0  0  0  0  0  0  0  0  0  0  0  0
   -3.0743   -0.9661   -0.6901 C   0  0  0  0  0  0  0  0  0  0  0  0
   -4.1230   -1.6024   -1.2914 C   0  0  0  0  0  0  0  0  0  0  0  0
   -4.0509   -2.3416   -2.4651 C   0  0  0  0  0  0  0  0  0  0  0  0
   -2.8398   -2.4644   -3.1024 C   0  0  0  0  0  0  0  0  0  0  0  0
   -1.7669   -1.8403   -2.5290 C   0  0  0  0  0  0  0  0  0  0  0  0
   -1.8455   -1.1123   -1.3693 C   0  0  0  0  0  0  0  0  0  0  0  0
   -4.8967    1.2683    2.4475 H   0  0  0  0  0  0  0  0  0  0  0  0
   -3.9005   -0.0650    3.2913 H   0  0  0  0  0  0  0  0  0  0  0  0
   -5.6232   -0.2399    2.9909 H   0  0  0  0  0  0  0  0  0  0  0  0
   -5.3070   -0.2549    0.5974 H   0  0  0  0  0  0  0  0  0  0  0  0
   -5.5755   -2.3581    1.4122 H   0  0  0  0  0  0  0  0  0  0  0  0
   -4.3717   -2.0865    2.7100 H   0  0  0  0  0  0  0  0  0  0  0  0
   -3.7793   -2.6243    1.1144 H   0  0  0  0  0  0  0  0  0  0  0  0
   -2.3352   -0.4855    1.2685 H   0  0  0  0  0  0  0  0  0  0  0  0
   -3.1201    1.4458   -0.7019 H   0  0  0  0  0  0  0  0  0  0  0  0
    0.0068    2.9574   -0.7761 H   0  0  0  0  0  0  0  0  0  0  0  0
    2.3971    2.3027   -1.2123 H   0  0  0  0  0  0  0  0  0  0  0  0
    2.2187   -0.4766    1.9381 H   0  0  0  0  0  0  0  0  0  0  0  0
   -0.1168    0.1521    2.3805 H   0  0  0  0  0  0  0  0  0  0  0  0
    4.1040   -0.9813    1.5339 H   0  0  0  0  0  0  0  0  0  0  0  0
    8.6129    0.0904   -0.3390 H   0  0  0  0  0  0  0  0  0  0  0  0
    8.1227   -0.8720   -1.7619 H   0  0  0  0  0  0  0  0  0  0  0  0
   -5.1243   -1.5299   -0.8348 H   0  0  0  0  0  0  0  0  0  0  0  0
   -4.9327   -2.8165   -2.8717 H   0  0  0  0  0  0  0  0  0  0  0  0
   -2.7743   -3.0392   -4.0201 H   0  0  0  0  0  0  0  0  0  0  0  0
   -0.8131   -1.9630   -3.0703 H   0  0  0  0  0  0  0  0  0  0  0  0
   -0.9695   -0.6530   -0.9674 H   0  0  0  0  0  0  0  0  0  0  0  0
  1  2  1  0
  2  3  1  0
  2  4  1  0
  4  5  1  0
  5  6  1  0
  6  7  2  0
  6  8  2  0
  6  9  1  0
  9 10  2  0
 10 11  1  0
 11 12  2  0
 12 13  1  0
 13 14  2  0
 12 15  1  0
 15 16  2  0
 16 17  1  0
 17 18  2  0
 18 19  1  0
 18 20  1  0
 20 21  2  0
 20 22  1  0
 22 23  1  0
 22 24  1  0
 22 25  1  0
  4 26  1  0
 26 27  2  0
 27 28  1  0
 28 29  2  0
 29 30  1  0
 30 31  2  0
 14  9  1  0
 21 15  1  0
 31 26  1  0
  1 32  1  0
  1 33  1  0
  1 34  1  0
  2 35  1  0
  3 36  1  0
  3 37  1  0
  3 38  1  0
  4 39  1  1
  5 40  1  0
 10 41  1  0
 11 42  1  0
 13 43  1  0
 14 44  1  0
 16 45  1  0
 19 46  1  0
 19 47  1  0
 27 48  1  0
 28 49  1  0
 29 50  1  0
 30 51  1  0
 31 52  1  0
M  END
$$$$
[H]O[C@@]1([H])C([H])([H])C([H])([H])[C@@]2(C([H])([H])[H])[C@]([H])(C([H])([H])C([H])([H])[C@]3([H])C([H])([H])[C@]4(C([H])([H])[H])C(=O)C([H])([H])C([H])([H])[C@@]4([H])C([H])([H])[C@@]23[H])C1([H])[H]
     RDKit          3D

 51 54  0  0  0  0  0  0  0  0999 V2000
   -2.9310    1.0313    1.6685 C   0  0  0  0  0  0  0  0  0  0  0  0
   -2.8411   -0.0902    0.6663 C   0  0  2  0  0  0  0  0  0  0  0  0
   -1.9696   -1.2005    1.1073 C   0  0  0  0  0  0  0  0  0  0  0  0
   -0.5428   -0.6900    1.1591 C   0  0  1  0  0  0  0  0  0  0  0  0
    0.3454   -1.7024    1.8176 C   0  0  0  0  0  0  0  0  0  0  0  0
    1.8082   -1.4294    1.6066 C   0  0  0  0  0  0  0  0  0  0  0  0
    2.0739   -1.2648    0.1525 C   0  0  2  0  0  0  0  0  0  0  0  0
    3.5414   -1.1211   -0.1373 C   0  0  0  0  0  0  0  0  0  0  0  0
    4.0873    0.1837    0.3376 C   0  0  1  0  0  0  0  0  0  0  0  0
    5.3639    0.3359   -0.2497 O   0  0  0  0  0  0  0  0  0  0  0  0
    3.2840    1.3780   -0.0353 C   0  0  0  0  0  0  0  0  0  0  0  0
    1.8071    1.2185    0.2094 C   0  0  0  0  0  0  0  0  0  0  0  0
    1.3295   -0.0702   -0.3979 C   0  0  1  0  0  0  0  0  0  0  0  0
    1.6422   -0.0397   -1.8955 C   0  0  0  0  0  0  0  0  0  0  0  0
   -0.1256   -0.3133   -0.2239 C   0  0  2  0  0  0  0  0  0  0  0  0
   -0.9758    0.9103   -0.6036 C   0  0  0  0  0  0  0  0  0  0  0  0
   -2.3566    0.4126   -0.6989 C   0  0  2  0  0  0  0  0  0  0  0  0
   -3.4283    1.3734   -1.0289 C   0  0  0  0  0  0  0  0  0  0  0  0
   -4.6840    0.5585   -0.6771 C   0  0  0  0  0  0  0  0  0  0  0  0
   -4.2211   -0.4661    0.2972 C   0  0  0  0  0  0  0  0  0  0  0  0
   -4.8296   -1.4229    0.7190 O   0  0  0  0  0  0  0  0  0  0  0  0
   -3.2076    0.5601    2.6381 H   0  0  0  0  0  0  0  0  0  0  0  0
   -2.0257    1.6146    1.7938 H   0  0  0  0  0  0  0  0  0  0  0  0
   -3.7610    1.7209    1.4002 H   0  0  0  0  0  0  0  0  0  0  0  0
   -2.2476   -1.4807    2.1603 H   0  0  0  0  0  0  0  0  0  0  0  0
   -2.0796   -2.0693    0.4464 H   0  0  0  0  0  0  0  0  0  0  0  0
   -0.5301    0.2286    1.7798 H   0  0  0  0  0  0  0  0  0  0  0  0
    0.1588   -1.6267    2.9258 H   0  0  0  0  0  0  0  0  0  0  0  0
    0.0943   -2.7358    1.5357 H   0  0  0  0  0  0  0  0  0  0  0  0
    2.1827   -0.5802    2.2073 H   0  0  0  0  0  0  0  0  0  0  0  0
    2.3618   -2.3322    1.9555 H   0  0  0  0  0  0  0  0  0  0  0  0
    1.6955   -2.1649   -0.3776 H   0  0  0  0  0  0  0  0  0  0  0  0
    4.0569   -1.9259    0.4658 H   0  0  0  0  0  0  0  0  0  0  0  0
    3.7804   -1.3635   -1.1899 H   0  0  0  0  0  0  0  0  0  0  0  0
    4.2901    0.0992    1.4345 H   0  0  0  0  0  0  0  0  0  0  0  0
    5.2817    0.7435   -1.1520 H   0  0  0  0  0  0  0  0  0  0  0  0
    3.5265    1.7144   -1.0596 H   0  0  0  0  0  0  0  0  0  0  0  0
    3.6182    2.2244    0.6348 H   0  0  0  0  0  0  0  0  0  0  0  0
    1.5559    1.2995    1.2642 H   0  0  0  0  0  0  0  0  0  0  0  0
    1.2949    2.0450   -0.3364 H   0  0  0  0  0  0  0  0  0  0  0  0
    1.3118   -1.0302   -2.2874 H   0  0  0  0  0  0  0  0  0  0  0  0
    1.0957    0.7337   -2.4301 H   0  0  0  0  0  0  0  0  0  0  0  0
    2.7241    0.1381   -2.0758 H   0  0  0  0  0  0  0  0  0  0  0  0
   -0.4228   -1.1358   -0.9148 H   0  0  0  0  0  0  0  0  0  0  0  0
   -0.7883    1.6534    0.1773 H   0  0  0  0  0  0  0  0  0  0  0  0
   -0.6376    1.3535   -1.5580 H   0  0  0  0  0  0  0  0  0  0  0  0
   -2.4060   -0.4383   -1.3989 H   0  0  0  0  0  0  0  0  0  0  0  0
   -3.4018    2.3341   -0.5111 H   0  0  0  0  0  0  0  0  0  0  0  0
   -3.4082    1.5676   -2.1248 H   0  0  0  0  0  0  0  0  0  0  0  0
   -5.0135    0.0630   -1.6242 H   0  0  0  0  0  0  0  0  0  0  0  0
   -5.4766    1.1983   -0.2863 H   0  0  0  0  0  0  0  0  0  0  0  0
  2  1  1  1
  2  3  1  0
  3  4  1  0
  4  5  1  0
  5  6  1  0
  6  7  1  0
  7  8  1  0
  8  9  1  0
  9 10  1  0
  9 11  1  0
 11 12  1  0
 12 13  1  0
 13 14  1  6
 13 15  1  0
 15 16  1  0
 16 17  1  0
 17 18  1  0
 18 19  1  0
 19 20  1  0
 20 21  2  0
 17  2  1  0
 20  2  1  0
 15  4  1  0
 13  7  1  0
  1 22  1  0
  1 23  1  0
  1 24  1  0
  3 25  1  0
  3 26  1  0
  4 27  1  1
  5 28  1  0
  5 29  1  0
  6 30  1  0
  6 31  1  0
  7 32  1  6
  8 33  1  0
  8 34  1  0
  9 35  1  1
 10 36  1  0
 11 37  1  0
 11 38  1  0
 12 39  1  0
 12 40  1  0
 14 41  1  0
 14 42  1  0
 14 43  1  0
 15 44  1  6
 16 45  1  0
 16 46  1  0
 17 47  1  6
 18 48  1  0
 18 49  1  0
 19 50  1  0
 19 51  1  0
M  END
$$$$
[H]c1sc(C([H])([H])[H])nc1C#Cc1c([H])sc(C#N)c1[H]
     RDKit          3D

 21 22  0  0  0  0  0  0  0  0999 V2000
   -4.6416    0.1836   -1.8386 C   0  0  0  0  0  0  0  0  0  0  0  0
   -3.7047    0.3466   -0.6625 C   0  0  0  0  0  0  0  0  0  0  0  0
   -2.3987    0.1711   -0.6185 N   0  0  0  0  0  0  0  0  0  0  0  0
   -1.7500    0.3605    0.4989 C   0  0  0  0  0  0  0  0  0  0  0  0
   -2.4987    0.7432    1.5912 C   0  0  0  0  0  0  0  0  0  0  0  0
   -4.0729    0.8031    0.9376 S   0  0  0  0  0  0  0  0  0  0  0  0
   -0.2892    0.1653    0.5522 C   0  0  0  0  0  0  0  0  0  0  0  0
    0.9037    0.0100    0.6169 C   0  0  0  0  0  0  0  0  0  0  0  0
    2.3572   -0.1920    0.7223 C   0  0  0  0  0  0  0  0  0  0  0  0
    2.9300   -0.7978    1.8119 C   0  0  0  0  0  0  0  0  0  0  0  0
    4.5909   -0.7813    1.4397 S   0  0  0  0  0  0  0  0  0  0  0  0
    4.5278   -0.0133   -0.0774 C   0  0  0  0  0  0  0  0  0  0  0  0
    3.1882    0.2141   -0.2565 C   0  0  0  0  0  0  0  0  0  0  0  0
    5.6419    0.3106   -0.9502 C   0  0  0  0  0  0  0  0  0  0  0  0
    6.5206    0.5778   -1.6628 N   0  0  0  0  0  0  0  0  0  0  0  0
   -5.5602   -0.3191   -1.4421 H   0  0  0  0  0  0  0  0  0  0  0  0
   -4.8377    1.1923   -2.2223 H   0  0  0  0  0  0  0  0  0  0  0  0
   -4.0923   -0.4530   -2.5574 H   0  0  0  0  0  0  0  0  0  0  0  0
   -2.1236    0.9474    2.6124 H   0  0  0  0  0  0  0  0  0  0  0  0
    2.4237   -1.1963    2.7092 H   0  0  0  0  0  0  0  0  0  0  0  0
    2.8857    0.7209   -1.2042 H   0  0  0  0  0  0  0  0  0  0  0  0
  1  2  1  0
  2  3  2  0
  3  4  1  0
  4  5  2  0
  5  6  1  0
  4  7  1  0
  7  8  3  0
  8  9  1  0
  9 10  2  0
 10 11  1  0
 11 12  1  0
 12 13  2  0
 12 14  1  0
 14 15  3  0
  6  2  1  0
 13  9  1  0
  1 16  1  0
  1 17  1  0
  1 18  1  0
  5 19  1  0
 10 20  1  0
 13 21  1  0
M  END
$$$$
[H]c1c([H])c(N2C(N([H])[H])=NC(N([H])[H])=NC2(C([H])([H])[H])C([H])([H])[H])c([H])c(C([H])([H])Oc2c([H])c([H])c(Cl)c([H])c2Cl)c1[H]
     RDKit          3D

 45 47  0  0  0  0  0  0  0  0999 V2000
   -1.9259    1.3722    1.5757 C   0  0  0  0  0  0  0  0  0  0  0  0
   -2.6889    1.1423    0.2741 C   0  0  0  0  0  0  0  0  0  0  0  0
   -2.3681    2.2573   -0.6986 C   0  0  0  0  0  0  0  0  0  0  0  0
   -4.0928    1.2451    0.5970 N   0  0  0  0  0  0  0  0  0  0  0  0
   -4.9788    0.3523    0.4214 C   0  0  0  0  0  0  0  0  0  0  0  0
   -6.3375    0.5550    0.7748 N   0  0  0  0  0  0  0  0  0  0  0  0
   -4.6199   -0.9105   -0.1510 N   0  0  0  0  0  0  0  0  0  0  0  0
   -3.3947   -1.1357   -0.4864 C   0  0  0  0  0  0  0  0  0  0  0  0
   -3.0360   -2.4074   -1.0624 N   0  0  0  0  0  0  0  0  0  0  0  0
   -2.3749   -0.1529   -0.3019 N   0  0  0  0  0  0  0  0  0  0  0  0
   -1.0513   -0.4993   -0.7048 C   0  0  0  0  0  0  0  0  0  0  0  0
   -0.6107   -0.2423   -1.9888 C   0  0  0  0  0  0  0  0  0  0  0  0
    0.6604   -0.5627   -2.4135 C   0  0  0  0  0  0  0  0  0  0  0  0
    1.5249   -1.1618   -1.5250 C   0  0  0  0  0  0  0  0  0  0  0  0
    1.1401   -1.4466   -0.2173 C   0  0  0  0  0  0  0  0  0  0  0  0
    2.0562   -2.0940    0.7628 C   0  0  0  0  0  0  0  0  0  0  0  0
    3.3990   -1.9391    0.4750 O   0  0  0  0  0  0  0  0  0  0  0  0
    4.0965   -0.7600    0.4037 C   0  0  0  0  0  0  0  0  0  0  0  0
    3.5183    0.4498    0.6321 C   0  0  0  0  0  0  0  0  0  0  0  0
    4.2408    1.6262    0.5560 C   0  0  0  0  0  0  0  0  0  0  0  0
    5.5766    1.6062    0.2450 C   0  0  0  0  0  0  0  0  0  0  0  0
    6.5091    3.1069    0.1455 Cl  0  0  0  0  0  0  0  0  0  0  0  0
    6.1843    0.3911    0.0098 C   0  0  0  0  0  0  0  0  0  0  0  0
    5.4629   -0.7585    0.0874 C   0  0  0  0  0  0  0  0  0  0  0  0
    6.2348   -2.2849   -0.2100 Cl  0  0  0  0  0  0  0  0  0  0  0  0
   -0.1456   -1.1002    0.1436 C   0  0  0  0  0  0  0  0  0  0  0  0
   -0.9651    1.8765    1.3386 H   0  0  0  0  0  0  0  0  0  0  0  0
   -2.5242    2.0454    2.2573 H   0  0  0  0  0  0  0  0  0  0  0  0
   -1.7658    0.4478    2.1401 H   0  0  0  0  0  0  0  0  0  0  0  0
   -2.8127    1.9503   -1.6778 H   0  0  0  0  0  0  0  0  0  0  0  0
   -1.2917    2.4547   -0.7546 H   0  0  0  0  0  0  0  0  0  0  0  0
   -2.8916    3.1862   -0.3936 H   0  0  0  0  0  0  0  0  0  0  0  0
   -6.7288    0.2468    1.6851 H   0  0  0  0  0  0  0  0  0  0  0  0
   -6.9708    1.0277    0.1052 H   0  0  0  0  0  0  0  0  0  0  0  0
   -3.5243   -3.2351   -0.6594 H   0  0  0  0  0  0  0  0  0  0  0  0
   -2.3551   -2.5370   -1.8152 H   0  0  0  0  0  0  0  0  0  0  0  0
   -1.2692    0.2269   -2.7053 H   0  0  0  0  0  0  0  0  0  0  0  0
    0.9624   -0.3365   -3.4481 H   0  0  0  0  0  0  0  0  0  0  0  0
    2.5319   -1.4278   -1.8238 H   0  0  0  0  0  0  0  0  0  0  0  0
    1.8353   -1.6199    1.7632 H   0  0  0  0  0  0  0  0  0  0  0  0
    1.7554   -3.1590    0.9014 H   0  0  0  0  0  0  0  0  0  0  0  0
    2.4900    0.5445    0.8874 H   0  0  0  0  0  0  0  0  0  0  0  0
    3.7670    2.5758    0.7396 H   0  0  0  0  0  0  0  0  0  0  0  0
    7.2439    0.3958   -0.2352 H   0  0  0  0  0  0  0  0  0  0  0  0
   -0.4657   -1.3118    1.1535 H   0  0  0  0  0  0  0  0  0  0  0  0
  1  2  1  0
  2  3  1  0
  2  4  1  0
  4  5  2  0
  5  6  1  0
  5  7  1  0
  7  8  2  0
  8  9  1  0
  8 10  1  0
 10 11  1  0
 11 12  2  0
 12 13  1  0
 13 14  2  0
 14 15  1  0
 15 16  1  0
 16 17  1  0
 17 18  1  0
 18 19  2  0
 19 20  1  0
 20 21  2  0
 21 22  1  0
 21 23  1  0
 23 24  2  0
 24 25  1  0
 15 26  2  0
 10  2  1  0
 26 11  1  0
 24 18  1  0
  1 27  1  0
  1 28  1  0
  1 29  1  0
  3 30  1  0
  3 31  1  0
  3 32  1  0
  6 33  1  0
  6 34  1  0
  9 35  1  0
  9 36  1  0
 12 37  1  0
 13 38  1  0
 14 39  1  0
 16 40  1  0
 16 41  1  0
 19 42  1  0
 20 43  1  0
 23 44  1  0
 26 45  1  0
M  END
$$$$
[H]c1nc2n(-c3c([H])c([H])c(OC([H])([H])[H])c([H])c3[H])c([H])c(C([H])([H])c3c([H])c([H])c(Cl)c([H])c3[H])n2c1[H]
     RDKit          3D

 40 43  0  0  0  0  0  0  0  0999 V2000
    6.4069    1.8956   -0.9181 C   0  0  0  0  0  0  0  0  0  0  0  0
    6.0823    0.6667   -0.3063 O   0  0  0  0  0  0  0  0  0  0  0  0
    4.7519    0.3385   -0.0836 C   0  0  0  0  0  0  0  0  0  0  0  0
    4.4053   -0.8550    0.5120 C   0  0  0  0  0  0  0  0  0  0  0  0
    3.0989   -1.2207    0.7517 C   0  0  0  0  0  0  0  0  0  0  0  0
    2.0791   -0.3524    0.3790 C   0  0  0  0  0  0  0  0  0  0  0  0
    2.3885    0.8500   -0.2192 C   0  0  0  0  0  0  0  0  0  0  0  0
    3.7275    1.1860   -0.4460 C   0  0  0  0  0  0  0  0  0  0  0  0
    0.7113   -0.7164    0.6208 N   0  0  0  0  0  0  0  0  0  0  0  0
   -0.2450    0.0556    1.1674 C   0  0  0  0  0  0  0  0  0  0  0  0
   -1.4394   -0.6308    1.2429 C   0  0  0  0  0  0  0  0  0  0  0  0
   -2.7421   -0.1779    1.7673 C   0  0  0  0  0  0  0  0  0  0  0  0
   -3.5945    0.4551    0.7376 C   0  0  0  0  0  0  0  0  0  0  0  0
   -3.4652    1.8240    0.5703 C   0  0  0  0  0  0  0  0  0  0  0  0
   -4.2151    2.4735   -0.3559 C   0  0  0  0  0  0  0  0  0  0  0  0
   -5.1060    1.7614   -1.1289 C   0  0  0  0  0  0  0  0  0  0  0  0
   -6.0481    2.6472   -2.3080 Cl  0  0  0  0  0  0  0  0  0  0  0  0
   -5.2637    0.3946   -0.9917 C   0  0  0  0  0  0  0  0  0  0  0  0
   -4.4905   -0.2446   -0.0433 C   0  0  0  0  0  0  0  0  0  0  0  0
   -1.1765   -1.8559    0.7201 N   0  0  0  0  0  0  0  0  0  0  0  0
   -1.7256   -3.0541    0.4302 C   0  0  0  0  0  0  0  0  0  0  0  0
   -0.7460   -3.8461   -0.1302 C   0  0  0  0  0  0  0  0  0  0  0  0
    0.3712   -3.1136   -0.1675 N   0  0  0  0  0  0  0  0  0  0  0  0
    0.1166   -1.8959    0.3503 C   0  0  0  0  0  0  0  0  0  0  0  0
    6.3576    2.6893   -0.1173 H   0  0  0  0  0  0  0  0  0  0  0  0
    5.7652    2.1130   -1.7746 H   0  0  0  0  0  0  0  0  0  0  0  0
    7.4732    1.8554   -1.2663 H   0  0  0  0  0  0  0  0  0  0  0  0
    5.2077   -1.5287    0.8006 H   0  0  0  0  0  0  0  0  0  0  0  0
    2.8402   -2.1474    1.2137 H   0  0  0  0  0  0  0  0  0  0  0  0
    1.5991    1.5304   -0.5117 H   0  0  0  0  0  0  0  0  0  0  0  0
    3.9177    2.1231   -0.9097 H   0  0  0  0  0  0  0  0  0  0  0  0
   -0.1297    1.0865    1.5149 H   0  0  0  0  0  0  0  0  0  0  0  0
   -3.2958   -1.0821    2.1564 H   0  0  0  0  0  0  0  0  0  0  0  0
   -2.6518    0.4996    2.6403 H   0  0  0  0  0  0  0  0  0  0  0  0
   -2.7676    2.3933    1.1728 H   0  0  0  0  0  0  0  0  0  0  0  0
   -4.1152    3.5370   -0.4866 H   0  0  0  0  0  0  0  0  0  0  0  0
   -5.9602   -0.1351   -1.6018 H   0  0  0  0  0  0  0  0  0  0  0  0
   -4.5652   -1.3271    0.1178 H   0  0  0  0  0  0  0  0  0  0  0  0
   -2.7522   -3.3304    0.6105 H   0  0  0  0  0  0  0  0  0  0  0  0
   -0.8045   -4.8617   -0.4876 H   0  0  0  0  0  0  0  0  0  0  0  0
  1  2  1  0
  2  3  1  0
  3  4  2  0
  4  5  1  0
  5  6  2  0
  6  7  1  0
  7  8  2  0
  6  9  1  0
  9 10  1  0
 10 11  2  0
 11 12  1  0
 12 13  1  0
 13 14  2  0
 14 15  1  0
 15 16  2  0
 16 17  1  0
 16 18  1  0
 18 19  2  0
 11 20  1  0
 20 21  1  0
 21 22  2  0
 22 23  1  0
 23 24  2  0
  8  3  1  0
 24  9  1  0
 19 13  1  0
 24 20  1  0
  1 25  1  0
  1 26  1  0
  1 27  1  0
  4 28  1  0
  5 29  1  0
  7 30  1  0
  8 31  1  0
 10 32  1  0
 12 33  1  0
 12 34  1  0
 14 35  1  0
 15 36  1  0
 18 37  1  0
 19 38  1  0
 21 39  1  0
 22 40  1  0
M  END
$$$$
[H]Oc1c([H])c([H])c2c(c1[H])-c1nc(N([H])C3([H])C([H])([H])C([H])([H])N([H])C([H])([H])C3([H])[H])nc([H])c1N([H])N=C2[H]
     RDKit          3D

 41 44  0  0  0  0  0  0  0  0999 V2000
    4.4239    2.9330    1.8239 O   0  0  0  0  0  0  0  0  0  0  0  0
    4.3586    1.7873    1.0649 C   0  0  0  0  0  0  0  0  0  0  0  0
    5.5351    1.1904    0.6657 C   0  0  0  0  0  0  0  0  0  0  0  0
    5.4473    0.0453   -0.0929 C   0  0  0  0  0  0  0  0  0  0  0  0
    4.2213   -0.5052   -0.4539 C   0  0  0  0  0  0  0  0  0  0  0  0
    3.0556    0.1080   -0.0440 C   0  0  0  0  0  0  0  0  0  0  0  0
    3.1173    1.2530    0.7147 C   0  0  0  0  0  0  0  0  0  0  0  0
    1.6874   -0.3138   -0.3193 C   0  0  0  0  0  0  0  0  0  0  0  0
    1.2558   -1.4108   -1.0520 C   0  0  0  0  0  0  0  0  0  0  0  0
   -0.0905   -1.6386   -1.1974 C   0  0  0  0  0  0  0  0  0  0  0  0
   -0.9589   -0.7988   -0.6299 N   0  0  0  0  0  0  0  0  0  0  0  0
   -0.5549    0.2577    0.0760 C   0  0  0  0  0  0  0  0  0  0  0  0
   -1.5142    1.1361    0.6700 N   0  0  0  0  0  0  0  0  0  0  0  0
   -2.9409    0.9856    0.5827 C   0  0  0  0  0  0  0  0  0  0  0  0
   -3.4166   -0.2643    1.2268 C   0  0  0  0  0  0  0  0  0  0  0  0
   -4.8183   -0.6545    0.8697 C   0  0  0  0  0  0  0  0  0  0  0  0
   -5.3344   -0.0077   -0.3053 N   0  0  0  0  0  0  0  0  0  0  0  0
   -4.2967    0.0683   -1.3330 C   0  0  0  0  0  0  0  0  0  0  0  0
   -3.3169    1.1095   -0.8783 C   0  0  0  0  0  0  0  0  0  0  0  0
    0.7599    0.4850    0.2211 N   0  0  0  0  0  0  0  0  0  0  0  0
    2.0356   -2.3919   -1.7136 N   0  0  0  0  0  0  0  0  0  0  0  0
    3.4498   -2.4837   -1.7693 N   0  0  0  0  0  0  0  0  0  0  0  0
    4.3413   -1.7100   -1.2527 C   0  0  0  0  0  0  0  0  0  0  0  0
    4.4533    2.9579    2.8255 H   0  0  0  0  0  0  0  0  0  0  0  0
    6.4952    1.6181    0.9462 H   0  0  0  0  0  0  0  0  0  0  0  0
    6.3657   -0.4438   -0.4199 H   0  0  0  0  0  0  0  0  0  0  0  0
    2.1948    1.7076    1.0187 H   0  0  0  0  0  0  0  0  0  0  0  0
   -0.4822   -2.4841   -1.7619 H   0  0  0  0  0  0  0  0  0  0  0  0
   -1.1407    1.9566    1.2134 H   0  0  0  0  0  0  0  0  0  0  0  0
   -3.4296    1.8374    1.1338 H   0  0  0  0  0  0  0  0  0  0  0  0
   -2.7807   -1.1416    1.1110 H   0  0  0  0  0  0  0  0  0  0  0  0
   -3.4213   -0.0620    2.3424 H   0  0  0  0  0  0  0  0  0  0  0  0
   -5.5315   -0.4425    1.6934 H   0  0  0  0  0  0  0  0  0  0  0  0
   -4.9018   -1.7628    0.6878 H   0  0  0  0  0  0  0  0  0  0  0  0
   -6.1719   -0.5180   -0.6219 H   0  0  0  0  0  0  0  0  0  0  0  0
   -4.8115    0.4760   -2.2515 H   0  0  0  0  0  0  0  0  0  0  0  0
   -3.8672   -0.9243   -1.5213 H   0  0  0  0  0  0  0  0  0  0  0  0
   -3.8206    2.1072   -1.0528 H   0  0  0  0  0  0  0  0  0  0  0  0
   -2.4472    1.0896   -1.5629 H   0  0  0  0  0  0  0  0  0  0  0  0
    1.4969   -3.1310   -2.2173 H   0  0  0  0  0  0  0  0  0  0  0  0
    5.3537   -2.0203   -1.4549 H   0  0  0  0  0  0  0  0  0  0  0  0
  1  2  1  0
  2  3  2  0
  3  4  1  0
  4  5  2  0
  5  6  1  0
  6  7  2  0
  6  8  1  0
  8  9  2  0
  9 10  1  0
 10 11  2  0
 11 12  1  0
 12 13  1  0
 13 14  1  0
 14 15  1  0
 15 16  1  0
 16 17  1  0
 17 18  1  0
 18 19  1  0
 12 20  2  0
  9 21  1  0
 21 22  1  0
 22 23  2  0
  7  2  1  0
 20  8  1  0
 23  5  1  0
 19 14  1  0
  1 24  1  0
  3 25  1  0
  4 26  1  0
  7 27  1  0
 10 28  1  0
 13 29  1  0
 14 30  1  0
 15 31  1  0
 15 32  1  0
 16 33  1  0
 16 34  1  0
 17 35  1  0
 18 36  1  0
 18 37  1  0
 19 38  1  0
 19 39  1  0
 21 40  1  0
 23 41  1  0
M  END
$$$$
