[H]Oc1c([H])c([H])c(C([H])=C2C(=O)N([H])C([H])([H])C([H])([H])N2c2c([H])nc([H])c([H])c2[H])c(C([H])([H])N2C([H])([H])C([H])([H])C([H])([H])[C@]2([H])c2c([H])c([H])c([H])c([H])c2[H])c1Br
     RDKit          3D

 61 65  0  0  0  0  0  0  0  0999 V2000
   -3.1135   -4.1876    0.8908 Br  0  0  0  0  0  0  0  0  0  0  0  0
   -1.3754   -3.9376    0.0976 C   0  0  0  0  0  0  0  0  0  0  0  0
   -0.5857   -4.9837   -0.2297 C   0  0  0  0  0  0  0  0  0  0  0  0
   -0.9920   -6.3021   -0.0067 O   0  0  0  0  0  0  0  0  0  0  0  0
    0.6611   -4.7929   -0.8004 C   0  0  0  0  0  0  0  0  0  0  0  0
    1.0946   -3.5183   -1.0339 C   0  0  0  0  0  0  0  0  0  0  0  0
    0.2846   -2.3829   -0.6995 C   0  0  0  0  0  0  0  0  0  0  0  0
    0.8965   -1.0974   -0.9970 C   0  0  0  0  0  0  0  0  0  0  0  0
    1.7023   -0.5137   -0.1527 C   0  0  0  0  0  0  0  0  0  0  0  0
    2.2836    0.7457   -0.5089 N   0  0  0  0  0  0  0  0  0  0  0  0
    2.6776    1.7009    0.5237 C   0  0  0  0  0  0  0  0  0  0  0  0
    3.4085    0.9890    1.6369 C   0  0  0  0  0  0  0  0  0  0  0  0
    2.8755   -0.2675    2.0082 N   0  0  0  0  0  0  0  0  0  0  0  0
    2.0296   -1.0191    1.1683 C   0  0  0  0  0  0  0  0  0  0  0  0
    1.5495   -2.1274    1.5479 O   0  0  0  0  0  0  0  0  0  0  0  0
    2.5354    1.0665   -1.8415 C   0  0  0  0  0  0  0  0  0  0  0  0
    2.4025    2.3794   -2.2362 C   0  0  0  0  0  0  0  0  0  0  0  0
    2.6738    2.7816   -3.5362 C   0  0  0  0  0  0  0  0  0  0  0  0
    3.0860    1.8305   -4.4437 C   0  0  0  0  0  0  0  0  0  0  0  0
    3.2174    0.5524   -4.0666 N   0  0  0  0  0  0  0  0  0  0  0  0
    2.9459    0.1702   -2.7796 C   0  0  0  0  0  0  0  0  0  0  0  0
   -0.9156   -2.5847   -0.1508 C   0  0  0  0  0  0  0  0  0  0  0  0
   -1.8804   -1.6238    0.2986 C   0  0  0  0  0  0  0  0  0  0  0  0
   -1.7949   -0.2407    0.1515 N   0  0  0  0  0  0  0  0  0  0  0  0
   -2.0037    0.2442   -1.1977 C   0  0  0  0  0  0  0  0  0  0  0  0
   -3.4438    0.7789   -1.2421 C   0  0  0  0  0  0  0  0  0  0  0  0
   -3.6801    1.2539    0.1542 C   0  0  0  0  0  0  0  0  0  0  0  0
   -2.7834    0.4161    1.0142 C   0  0  2  0  0  0  0  0  0  0  0  0
   -2.0917    1.2971    1.9557 C   0  0  0  0  0  0  0  0  0  0  0  0
   -2.4385    1.1632    3.3069 C   0  0  0  0  0  0  0  0  0  0  0  0
   -1.8628    1.9711    4.2590 C   0  0  0  0  0  0  0  0  0  0  0  0
   -0.9322    2.9257    3.8803 C   0  0  0  0  0  0  0  0  0  0  0  0
   -0.6230    3.0230    2.5592 C   0  0  0  0  0  0  0  0  0  0  0  0
   -1.1772    2.2296    1.5609 C   0  0  0  0  0  0  0  0  0  0  0  0
   -1.8816   -6.4632    0.3988 H   0  0  0  0  0  0  0  0  0  0  0  0
    1.2573   -5.6380   -1.0464 H   0  0  0  0  0  0  0  0  0  0  0  0
    2.0627   -3.2945   -1.4802 H   0  0  0  0  0  0  0  0  0  0  0  0
    0.7008   -0.6041   -1.9556 H   0  0  0  0  0  0  0  0  0  0  0  0
    3.4276    2.3785    0.0610 H   0  0  0  0  0  0  0  0  0  0  0  0
    1.8541    2.3391    0.8507 H   0  0  0  0  0  0  0  0  0  0  0  0
    3.3768    1.6720    2.5269 H   0  0  0  0  0  0  0  0  0  0  0  0
    4.5082    0.9109    1.3859 H   0  0  0  0  0  0  0  0  0  0  0  0
    3.1279   -0.6552    2.9707 H   0  0  0  0  0  0  0  0  0  0  0  0
    2.0820    3.1239   -1.5294 H   0  0  0  0  0  0  0  0  0  0  0  0
    2.5793    3.8022   -3.8760 H   0  0  0  0  0  0  0  0  0  0  0  0
    3.3031    2.1394   -5.4744 H   0  0  0  0  0  0  0  0  0  0  0  0
    3.0689   -0.8916   -2.5076 H   0  0  0  0  0  0  0  0  0  0  0  0
   -2.9527   -1.9611   -0.0308 H   0  0  0  0  0  0  0  0  0  0  0  0
   -2.0127   -1.8229    1.4356 H   0  0  0  0  0  0  0  0  0  0  0  0
   -1.3279    1.0520   -1.4734 H   0  0  0  0  0  0  0  0  0  0  0  0
   -1.9868   -0.5474   -1.9706 H   0  0  0  0  0  0  0  0  0  0  0  0
   -4.1624   -0.0217   -1.4668 H   0  0  0  0  0  0  0  0  0  0  0  0
   -3.5595    1.5485   -2.0176 H   0  0  0  0  0  0  0  0  0  0  0  0
   -4.7258    1.1015    0.5077 H   0  0  0  0  0  0  0  0  0  0  0  0
   -3.4068    2.3483    0.2088 H   0  0  0  0  0  0  0  0  0  0  0  0
   -3.3741   -0.3861    1.5520 H   0  0  0  0  0  0  0  0  0  0  0  0
   -3.1724    0.4103    3.6073 H   0  0  0  0  0  0  0  0  0  0  0  0
   -2.1289    1.8706    5.3139 H   0  0  0  0  0  0  0  0  0  0  0  0
   -0.4826    3.5586    4.6214 H   0  0  0  0  0  0  0  0  0  0  0  0
    0.1057    3.7618    2.2152 H   0  0  0  0  0  0  0  0  0  0  0  0
   -0.9103    2.3287    0.5144 H   0  0  0  0  0  0  0  0  0  0  0  0
  1  2  1  0
  2  3  2  0
  3  4  1  0
  3  5  1  0
  5  6  2  0
  6  7  1  0
  7  8  1  0
  8  9  2  3
  9 10  1  0
 10 11  1  0
 11 12  1  0
 12 13  1  0
 13 14  1  0
 14 15  2  0
 10 16  1  0
 16 17  2  0
 17 18  1  0
 18 19  2  0
 19 20  1  0
 20 21  2  0
  7 22  2  0
 22 23  1  0
 23 24  1  0
 24 25  1  0
 25 26  1  0
 26 27  1  0
 27 28  1  0
 28 29  1  0
 29 30  2  0
 30 31  1  0
 31 32  2  0
 32 33  1  0
 33 34  2  0
 22  2  1  0
 28 24  1  0
 34 29  1  0
 14  9  1  0
 21 16  1  0
  4 35  1  0
  5 36  1  0
  6 37  1  0
  8 38  1  0
 11 39  1  0
 11 40  1  0
 12 41  1  0
 12 42  1  0
 13 43  1  0
 17 44  1  0
 18 45  1  0
 19 46  1  0
 21 47  1  0
 23 48  1  0
 23 49  1  0
 25 50  1  0
 25 51  1  0
 26 52  1  0
 26 53  1  0
 27 54  1  0
 27 55  1  0
 28 56  1  1
 30 57  1  0
 31 58  1  0
 32 59  1  0
 33 60  1  0
 34 61  1  0
M  END
$$$$
[H]C(=O)c1nn([H])c2c([H])c([H])c(-c3c([H])c([H])nc(N([H])[C@@]4([H])N([H])C([H])([H])C([H])([H])C4([H])[H])c3[H])c([H])c12
     RDKit          3D

 40 43  0  0  0  0  0  0  0  0999 V2000
    3.7479    3.0635    0.4861 O   0  0  0  0  0  0  0  0  0  0  0  0
    4.8685    2.7107    0.0844 C   0  0  0  0  0  0  0  0  0  0  0  0
    5.0918    1.3159   -0.2561 C   0  0  0  0  0  0  0  0  0  0  0  0
    6.2584    0.7885   -0.7056 N   0  0  0  0  0  0  0  0  0  0  0  0
    6.1179   -0.4920   -0.9162 N   0  0  0  0  0  0  0  0  0  0  0  0
    4.8545   -0.8622   -0.6150 C   0  0  0  0  0  0  0  0  0  0  0  0
    4.2164   -2.0841   -0.6660 C   0  0  0  0  0  0  0  0  0  0  0  0
    2.9092   -2.1791   -0.2968 C   0  0  0  0  0  0  0  0  0  0  0  0
    2.2400   -1.0460    0.1248 C   0  0  0  0  0  0  0  0  0  0  0  0
    2.8655    0.1874    0.1818 C   0  0  0  0  0  0  0  0  0  0  0  0
    4.1835    0.2711   -0.1929 C   0  0  0  0  0  0  0  0  0  0  0  0
    0.8471   -1.1609    0.5195 C   0  0  0  0  0  0  0  0  0  0  0  0
    0.3379   -2.2982    1.1016 C   0  0  0  0  0  0  0  0  0  0  0  0
   -1.0124   -2.3620    1.4659 C   0  0  0  0  0  0  0  0  0  0  0  0
   -1.7901   -1.2890    1.2326 N   0  0  0  0  0  0  0  0  0  0  0  0
   -1.3450   -0.1638    0.6714 C   0  0  0  0  0  0  0  0  0  0  0  0
   -2.1590    0.9606    0.4263 N   0  0  0  0  0  0  0  0  0  0  0  0
   -3.5559    0.8931    0.7990 C   0  0  2  0  0  0  0  0  0  0  0  0
   -4.2293   -0.1997    0.0339 C   0  0  0  0  0  0  0  0  0  0  0  0
   -5.6299    0.3284   -0.2182 C   0  0  0  0  0  0  0  0  0  0  0  0
   -5.4820    1.8247   -0.1477 C   0  0  0  0  0  0  0  0  0  0  0  0
   -4.2603    2.1196    0.5251 N   0  0  0  0  0  0  0  0  0  0  0  0
   -0.0041   -0.0993    0.3091 C   0  0  0  0  0  0  0  0  0  0  0  0
    5.6905    3.4320   -0.0175 H   0  0  0  0  0  0  0  0  0  0  0  0
    6.8369   -1.1687   -1.2625 H   0  0  0  0  0  0  0  0  0  0  0  0
    4.7700   -2.9753   -1.0059 H   0  0  0  0  0  0  0  0  0  0  0  0
    2.3694   -3.1386   -0.3253 H   0  0  0  0  0  0  0  0  0  0  0  0
    2.3437    1.0621    0.5090 H   0  0  0  0  0  0  0  0  0  0  0  0
    1.0207   -3.1236    1.2596 H   0  0  0  0  0  0  0  0  0  0  0  0
   -1.3670   -3.2577    1.9129 H   0  0  0  0  0  0  0  0  0  0  0  0
   -1.7517    1.8294   -0.0199 H   0  0  0  0  0  0  0  0  0  0  0  0
   -3.6866    0.6709    1.8772 H   0  0  0  0  0  0  0  0  0  0  0  0
   -3.6983   -0.4274   -0.9135 H   0  0  0  0  0  0  0  0  0  0  0  0
   -4.2755   -1.1711    0.5971 H   0  0  0  0  0  0  0  0  0  0  0  0
   -6.2523   -0.0521    0.6259 H   0  0  0  0  0  0  0  0  0  0  0  0
   -5.9866   -0.0512   -1.1725 H   0  0  0  0  0  0  0  0  0  0  0  0
   -5.4731    2.2490   -1.1689 H   0  0  0  0  0  0  0  0  0  0  0  0
   -6.3112    2.2533    0.4825 H   0  0  0  0  0  0  0  0  0  0  0  0
   -3.6696    2.8323    0.0445 H   0  0  0  0  0  0  0  0  0  0  0  0
    0.3702    0.8096   -0.1476 H   0  0  0  0  0  0  0  0  0  0  0  0
  1  2  2  0
  2  3  1  0
  3  4  2  0
  4  5  1  0
  5  6  1  0
  6  7  2  0
  7  8  1  0
  8  9  2  0
  9 10  1  0
 10 11  2  0
  9 12  1  0
 12 13  2  0
 13 14  1  0
 14 15  2  0
 15 16  1  0
 16 17  1  0
 17 18  1  0
 18 19  1  0
 19 20  1  0
 20 21  1  0
 21 22  1  0
 16 23  2  0
 11  3  1  0
 23 12  1  0
 11  6  1  0
 22 18  1  0
  2 24  1  0
  5 25  1  0
  7 26  1  0
  8 27  1  0
 10 28  1  0
 13 29  1  0
 14 30  1  0
 17 31  1  0
 18 32  1  1
 19 33  1  0
 19 34  1  0
 20 35  1  0
 20 36  1  0
 21 37  1  0
 21 38  1  0
 22 39  1  0
 23 40  1  0
M  END
$$$$
[H]OC([H])([H])c1c([H])c([H])c(C(F)(F)F)c(-c2nc3c(N4C([H])([H])[C@]([H])(C([H])([H])[H])N([H])[C@]([H])(C([H])([H])[H])C4([H])[H])c([H])c([H])c([H])c3n2[H])c1[H]
     RDKit          3D

 52 55  0  0  0  0  0  0  0  0999 V2000
   -3.1164   -3.1384    0.0822 C   0  0  0  0  0  0  0  0  0  0  0  0
   -3.0015   -2.0819   -0.9955 C   0  0  2  0  0  0  0  0  0  0  0  0
   -1.7284   -1.2959   -0.8113 C   0  0  0  0  0  0  0  0  0  0  0  0
   -2.0975    0.0714   -0.5223 N   0  0  0  0  0  0  0  0  0  0  0  0
   -3.1271    0.2313    0.4797 C   0  0  0  0  0  0  0  0  0  0  0  0
   -4.3983   -0.3721   -0.0426 C   0  0  2  0  0  0  0  0  0  0  0  0
   -5.2411   -0.9787    1.0598 C   0  0  0  0  0  0  0  0  0  0  0  0
   -4.1697   -1.2726   -1.1269 N   0  0  0  0  0  0  0  0  0  0  0  0
   -1.5225    1.2020   -1.1472 C   0  0  0  0  0  0  0  0  0  0  0  0
   -2.2877    2.1101   -1.8839 C   0  0  0  0  0  0  0  0  0  0  0  0
   -1.6963    3.2016   -2.4803 C   0  0  0  0  0  0  0  0  0  0  0  0
   -0.3307    3.3600   -2.3220 C   0  0  0  0  0  0  0  0  0  0  0  0
    0.4222    2.4649   -1.5961 C   0  0  0  0  0  0  0  0  0  0  0  0
    1.7544    2.3673   -1.2782 N   0  0  0  0  0  0  0  0  0  0  0  0
    2.0326    1.3158   -0.5395 C   0  0  0  0  0  0  0  0  0  0  0  0
    0.7870    0.6935   -0.3742 N   0  0  0  0  0  0  0  0  0  0  0  0
   -0.1549    1.3786   -1.0004 C   0  0  0  0  0  0  0  0  0  0  0  0
    3.2110    0.7759    0.1199 C   0  0  0  0  0  0  0  0  0  0  0  0
    3.1666   -0.5726    0.5337 C   0  0  0  0  0  0  0  0  0  0  0  0
    4.1299   -1.2010    1.2396 C   0  0  0  0  0  0  0  0  0  0  0  0
    4.0324   -2.6244    1.6466 C   0  0  0  0  0  0  0  0  0  0  0  0
    2.8691   -3.2226    1.2305 O   0  0  0  0  0  0  0  0  0  0  0  0
    5.2401   -0.4662    1.5808 C   0  0  0  0  0  0  0  0  0  0  0  0
    5.3541    0.8497    1.2133 C   0  0  0  0  0  0  0  0  0  0  0  0
    4.3158    1.4774    0.4674 C   0  0  0  0  0  0  0  0  0  0  0  0
    4.5924    2.8697    0.1067 C   0  0  0  0  0  0  0  0  0  0  0  0
    4.8180    3.0463   -1.2332 F   0  0  0  0  0  0  0  0  0  0  0  0
    3.6589    3.7504    0.6495 F   0  0  0  0  0  0  0  0  0  0  0  0
    5.7895    3.2779    0.7269 F   0  0  0  0  0  0  0  0  0  0  0  0
   -3.1862   -2.6950    1.0850 H   0  0  0  0  0  0  0  0  0  0  0  0
   -3.9087   -3.8518   -0.1609 H   0  0  0  0  0  0  0  0  0  0  0  0
   -2.1565   -3.7146    0.0653 H   0  0  0  0  0  0  0  0  0  0  0  0
   -2.8814   -2.6455   -1.9610 H   0  0  0  0  0  0  0  0  0  0  0  0
   -1.0331   -1.3852   -1.6630 H   0  0  0  0  0  0  0  0  0  0  0  0
   -1.1896   -1.6738    0.1030 H   0  0  0  0  0  0  0  0  0  0  0  0
   -2.8372   -0.3417    1.4012 H   0  0  0  0  0  0  0  0  0  0  0  0
   -3.2441    1.2784    0.8100 H   0  0  0  0  0  0  0  0  0  0  0  0
   -5.0069    0.4858   -0.4555 H   0  0  0  0  0  0  0  0  0  0  0  0
   -5.6445   -1.9747    0.7422 H   0  0  0  0  0  0  0  0  0  0  0  0
   -4.6702   -1.0579    2.0225 H   0  0  0  0  0  0  0  0  0  0  0  0
   -6.1341   -0.3660    1.3014 H   0  0  0  0  0  0  0  0  0  0  0  0
   -4.9725   -1.8704   -1.3362 H   0  0  0  0  0  0  0  0  0  0  0  0
   -3.3603    1.9137   -1.9614 H   0  0  0  0  0  0  0  0  0  0  0  0
   -2.3283    3.8735   -3.0379 H   0  0  0  0  0  0  0  0  0  0  0  0
    0.1474    4.1999   -2.7764 H   0  0  0  0  0  0  0  0  0  0  0  0
    2.3896    3.0904   -1.6608 H   0  0  0  0  0  0  0  0  0  0  0  0
    2.2881   -1.1245    0.2476 H   0  0  0  0  0  0  0  0  0  0  0  0
    4.1925   -2.6764    2.7397 H   0  0  0  0  0  0  0  0  0  0  0  0
    4.9085   -3.1632    1.1854 H   0  0  0  0  0  0  0  0  0  0  0  0
    3.0559   -3.9500    0.5786 H   0  0  0  0  0  0  0  0  0  0  0  0
    6.0240   -0.9737    2.1549 H   0  0  0  0  0  0  0  0  0  0  0  0
    6.2457    1.4050    1.4981 H   0  0  0  0  0  0  0  0  0  0  0  0
  1  2  1  0
  2  3  1  0
  3  4  1  0
  4  5  1  0
  5  6  1  0
  6  7  1  0
  6  8  1  0
  4  9  1  0
  9 10  2  0
 10 11  1  0
 11 12  2  0
 12 13  1  0
 13 14  1  0
 14 15  1  0
 15 16  2  0
 16 17  1  0
 15 18  1  0
 18 19  2  0
 19 20  1  0
 20 21  1  0
 21 22  1  0
 20 23  2  0
 23 24  1  0
 24 25  2  0
 25 26  1  0
 26 27  1  0
 26 28  1  0
 26 29  1  0
  8  2  1  0
 17  9  1  0
 25 18  1  0
 17 13  2  0
  1 30  1  0
  1 31  1  0
  1 32  1  0
  2 33  1  6
  3 34  1  0
  3 35  1  0
  5 36  1  0
  5 37  1  0
  6 38  1  6
  7 39  1  0
  7 40  1  0
  7 41  1  0
  8 42  1  0
 10 43  1  0
 11 44  1  0
 12 45  1  0
 14 46  1  0
 19 47  1  0
 21 48  1  0
 21 49  1  0
 22 50  1  0
 23 51  1  0
 24 52  1  0
M  END
$$$$
[H]OC1([H])C([H])([H])C([H])([H])N(c2c([H])c3c([H])c(Sc4c([H])c([H])c([H])c([H])c4[H])c([H])nc3n2[H])C([H])([H])C1([H])[H]
     RDKit          3D

 42 45  0  0  0  0  0  0  0  0999 V2000
   -6.9164    0.6287   -0.7940 O   0  0  0  0  0  0  0  0  0  0  0  0
   -6.1325    0.0715    0.2426 C   0  0  0  0  0  0  0  0  0  0  0  0
   -5.1702    1.1434    0.6985 C   0  0  0  0  0  0  0  0  0  0  0  0
   -4.0309    1.1797   -0.2914 C   0  0  0  0  0  0  0  0  0  0  0  0
   -3.2734   -0.0593   -0.0610 N   0  0  0  0  0  0  0  0  0  0  0  0
   -4.0068   -1.2783    0.0223 C   0  0  0  0  0  0  0  0  0  0  0  0
   -5.4562   -1.1482   -0.2845 C   0  0  0  0  0  0  0  0  0  0  0  0
   -1.8610   -0.0630    0.0800 C   0  0  0  0  0  0  0  0  0  0  0  0
   -1.0912    0.0264    1.2193 C   0  0  0  0  0  0  0  0  0  0  0  0
    0.2491   -0.0104    0.9046 C   0  0  0  0  0  0  0  0  0  0  0  0
    1.4430    0.0408    1.6162 C   0  0  0  0  0  0  0  0  0  0  0  0
    2.6662   -0.0204    0.9826 C   0  0  0  0  0  0  0  0  0  0  0  0
    4.2245    0.0367    1.8808 S   0  0  0  0  0  0  0  0  0  0  0  0
    5.5742   -0.0422    0.7200 C   0  0  0  0  0  0  0  0  0  0  0  0
    6.1372   -1.2235    0.2840 C   0  0  0  0  0  0  0  0  0  0  0  0
    7.1908   -1.2158   -0.6252 C   0  0  0  0  0  0  0  0  0  0  0  0
    7.6915   -0.0265   -1.1072 C   0  0  0  0  0  0  0  0  0  0  0  0
    7.1389    1.1600   -0.6805 C   0  0  0  0  0  0  0  0  0  0  0  0
    6.0798    1.1459    0.2339 C   0  0  0  0  0  0  0  0  0  0  0  0
    2.6406   -0.1355   -0.3996 C   0  0  0  0  0  0  0  0  0  0  0  0
    1.4882   -0.1857   -1.0932 N   0  0  0  0  0  0  0  0  0  0  0  0
    0.2884   -0.1255   -0.4688 C   0  0  0  0  0  0  0  0  0  0  0  0
   -0.9767   -0.1556   -0.9448 N   0  0  0  0  0  0  0  0  0  0  0  0
   -6.9862    1.6089   -0.6583 H   0  0  0  0  0  0  0  0  0  0  0  0
   -6.8373   -0.1448    1.0758 H   0  0  0  0  0  0  0  0  0  0  0  0
   -4.8260    0.9128    1.7215 H   0  0  0  0  0  0  0  0  0  0  0  0
   -5.7340    2.1077    0.6790 H   0  0  0  0  0  0  0  0  0  0  0  0
   -3.3829    2.0606   -0.0768 H   0  0  0  0  0  0  0  0  0  0  0  0
   -4.4367    1.1717   -1.3095 H   0  0  0  0  0  0  0  0  0  0  0  0
   -3.8760   -1.8049    0.9846 H   0  0  0  0  0  0  0  0  0  0  0  0
   -3.5621   -1.9751   -0.7480 H   0  0  0  0  0  0  0  0  0  0  0  0
   -5.6461   -1.2749   -1.3821 H   0  0  0  0  0  0  0  0  0  0  0  0
   -5.9850   -2.0324    0.1806 H   0  0  0  0  0  0  0  0  0  0  0  0
   -1.4803    0.1132    2.2227 H   0  0  0  0  0  0  0  0  0  0  0  0
    1.3967    0.1295    2.6729 H   0  0  0  0  0  0  0  0  0  0  0  0
    5.7205   -2.1472    0.6830 H   0  0  0  0  0  0  0  0  0  0  0  0
    7.6227   -2.1336   -0.9598 H   0  0  0  0  0  0  0  0  0  0  0  0
    8.5093   -0.0615   -1.8108 H   0  0  0  0  0  0  0  0  0  0  0  0
    7.5518    2.0726   -1.0741 H   0  0  0  0  0  0  0  0  0  0  0  0
    5.6602    2.0750    0.5570 H   0  0  0  0  0  0  0  0  0  0  0  0
    3.6165   -0.1821   -0.8801 H   0  0  0  0  0  0  0  0  0  0  0  0
   -1.2223   -0.2386   -1.9543 H   0  0  0  0  0  0  0  0  0  0  0  0
  1  2  1  0
  2  3  1  0
  3  4  1  0
  4  5  1  0
  5  6  1  0
  6  7  1  0
  5  8  1  0
  8  9  2  0
  9 10  1  0
 10 11  2  0
 11 12  1  0
 12 13  1  0
 13 14  1  0
 14 15  2  0
 15 16  1  0
 16 17  2  0
 17 18  1  0
 18 19  2  0
 12 20  2  0
 20 21  1  0
 21 22  2  0
 22 23  1  0
  7  2  1  0
 23  8  1  0
 22 10  1  0
 19 14  1  0
  1 24  1  0
  2 25  1  0
  3 26  1  0
  3 27  1  0
  4 28  1  0
  4 29  1  0
  6 30  1  0
  6 31  1  0
  7 32  1  0
  7 33  1  0
  9 34  1  0
 11 35  1  0
 15 36  1  0
 16 37  1  0
 17 38  1  0
 18 39  1  0
 19 40  1  0
 20 41  1  0
 23 42  1  0
M  END
$$$$
[H]c1nc([H])c(C(=O)N([H])C([H])([H])c2c([H])c([H])c3c([H])c([H])c([H])c([H])c3c2[H])c(N2C([H])([H])C([H])([H])C([H])(N(c3c([H])c([H])c(C([H])([H])[H])c([H])c3[H])C([H])([H])[H])C([H])([H])C2([H])[H])c1[H]
     RDKit          3D

 67 71  0  0  0  0  0  0  0  0999 V2000
   -9.0979    1.9378    0.5395 C   0  0  0  0  0  0  0  0  0  0  0  0
   -7.7935    1.1936    0.5965 C   0  0  0  0  0  0  0  0  0  0  0  0
   -7.8455   -0.1678    0.8205 C   0  0  0  0  0  0  0  0  0  0  0  0
   -6.6277   -0.8871    0.8659 C   0  0  0  0  0  0  0  0  0  0  0  0
   -5.4121   -0.2965    0.6922 C   0  0  0  0  0  0  0  0  0  0  0  0
   -5.4502    1.0587    0.4730 C   0  0  0  0  0  0  0  0  0  0  0  0
   -6.5930    1.8314    0.4175 C   0  0  0  0  0  0  0  0  0  0  0  0
   -4.2109   -1.0287    0.7211 N   0  0  0  0  0  0  0  0  0  0  0  0
   -4.2646   -2.4172    1.2063 C   0  0  0  0  0  0  0  0  0  0  0  0
   -2.9608   -0.4871    0.2885 C   0  0  0  0  0  0  0  0  0  0  0  0
   -1.8463   -1.4820    0.5255 C   0  0  0  0  0  0  0  0  0  0  0  0
   -0.5272   -1.0045   -0.0025 C   0  0  0  0  0  0  0  0  0  0  0  0
   -0.5279   -0.2555   -1.2069 N   0  0  0  0  0  0  0  0  0  0  0  0
   -1.6989    0.6409   -1.4067 C   0  0  0  0  0  0  0  0  0  0  0  0
   -2.9667   -0.1717   -1.1754 C   0  0  0  0  0  0  0  0  0  0  0  0
    0.4209   -0.1773   -2.2395 C   0  0  0  0  0  0  0  0  0  0  0  0
    0.1109   -0.7671   -3.4927 C   0  0  0  0  0  0  0  0  0  0  0  0
    0.9664   -0.6458   -4.5582 C   0  0  0  0  0  0  0  0  0  0  0  0
    2.1393    0.0550   -4.4005 N   0  0  0  0  0  0  0  0  0  0  0  0
    2.4951    0.6393   -3.2358 C   0  0  0  0  0  0  0  0  0  0  0  0
    1.5986    0.4848   -2.2130 C   0  0  0  0  0  0  0  0  0  0  0  0
    1.9575    1.0468   -0.8557 C   0  0  0  0  0  0  0  0  0  0  0  0
    1.6645    2.2590   -0.7326 O   0  0  0  0  0  0  0  0  0  0  0  0
    2.5178    0.2567    0.0496 N   0  0  0  0  0  0  0  0  0  0  0  0
    3.1209   -0.5683    1.0425 C   0  0  0  0  0  0  0  0  0  0  0  0
    4.5751   -0.1803    1.1583 C   0  0  0  0  0  0  0  0  0  0  0  0
    4.9160    0.8434    2.0319 C   0  0  0  0  0  0  0  0  0  0  0  0
    6.1859    1.3056    2.1806 C   0  0  0  0  0  0  0  0  0  0  0  0
    7.1969    0.7463    1.4367 C   0  0  0  0  0  0  0  0  0  0  0  0
    8.5106    1.2202    1.5653 C   0  0  0  0  0  0  0  0  0  0  0  0
    9.5358    0.6813    0.8226 C   0  0  0  0  0  0  0  0  0  0  0  0
    9.2535   -0.3472   -0.0610 C   0  0  0  0  0  0  0  0  0  0  0  0
    7.9326   -0.8020   -0.1710 C   0  0  0  0  0  0  0  0  0  0  0  0
    6.9165   -0.2679    0.5581 C   0  0  0  0  0  0  0  0  0  0  0  0
    5.5918   -0.7337    0.4213 C   0  0  0  0  0  0  0  0  0  0  0  0
   -8.9883    2.9361    0.0873 H   0  0  0  0  0  0  0  0  0  0  0  0
   -9.5816    1.9837    1.5363 H   0  0  0  0  0  0  0  0  0  0  0  0
   -9.8101    1.3888   -0.1639 H   0  0  0  0  0  0  0  0  0  0  0  0
   -8.8082   -0.6341    0.9460 H   0  0  0  0  0  0  0  0  0  0  0  0
   -6.7248   -1.9440    1.0475 H   0  0  0  0  0  0  0  0  0  0  0  0
   -4.4949    1.6048    0.3586 H   0  0  0  0  0  0  0  0  0  0  0  0
   -6.5733    2.8795    0.2368 H   0  0  0  0  0  0  0  0  0  0  0  0
   -4.4454   -3.1470    0.4234 H   0  0  0  0  0  0  0  0  0  0  0  0
   -5.1021   -2.4580    1.9319 H   0  0  0  0  0  0  0  0  0  0  0  0
   -3.3598   -2.6246    1.8335 H   0  0  0  0  0  0  0  0  0  0  0  0
   -2.7357    0.4451    0.8725 H   0  0  0  0  0  0  0  0  0  0  0  0
   -1.7325   -1.5283    1.6636 H   0  0  0  0  0  0  0  0  0  0  0  0
   -2.1327   -2.5013    0.2165 H   0  0  0  0  0  0  0  0  0  0  0  0
    0.2164   -1.8326   -0.0341 H   0  0  0  0  0  0  0  0  0  0  0  0
   -0.1440   -0.3120    0.8257 H   0  0  0  0  0  0  0  0  0  0  0  0
   -1.6603    1.3552   -0.5555 H   0  0  0  0  0  0  0  0  0  0  0  0
   -1.7324    1.1208   -2.3614 H   0  0  0  0  0  0  0  0  0  0  0  0
   -2.8949   -1.1604   -1.7066 H   0  0  0  0  0  0  0  0  0  0  0  0
   -3.8097    0.4336   -1.4887 H   0  0  0  0  0  0  0  0  0  0  0  0
   -0.8323   -1.3253   -3.5338 H   0  0  0  0  0  0  0  0  0  0  0  0
    0.7367   -1.0833   -5.5143 H   0  0  0  0  0  0  0  0  0  0  0  0
    3.4218    1.1822   -3.1672 H   0  0  0  0  0  0  0  0  0  0  0  0
    2.6650    1.3046    0.9368 H   0  0  0  0  0  0  0  0  0  0  0  0
    3.1182   -1.6554    0.7599 H   0  0  0  0  0  0  0  0  0  0  0  0
    2.6290   -0.5269    2.0192 H   0  0  0  0  0  0  0  0  0  0  0  0
    4.1329    1.2938    2.6086 H   0  0  0  0  0  0  0  0  0  0  0  0
    6.4646    2.1069    2.8508 H   0  0  0  0  0  0  0  0  0  0  0  0
    8.6868    2.0195    2.2706 H   0  0  0  0  0  0  0  0  0  0  0  0
   10.5478    1.0363    0.9037 H   0  0  0  0  0  0  0  0  0  0  0  0
   10.0547   -0.7460   -0.6319 H   0  0  0  0  0  0  0  0  0  0  0  0
    7.6886   -1.5986   -0.8574 H   0  0  0  0  0  0  0  0  0  0  0  0
    5.4171   -1.5261   -0.2650 H   0  0  0  0  0  0  0  0  0  0  0  0
  1  2  1  0
  2  3  2  0
  3  4  1  0
  4  5  2  0
  5  6  1  0
  6  7  2  0
  5  8  1  0
  8  9  1  0
  8 10  1  0
 10 11  1  0
 11 12  1  0
 12 13  1  0
 13 14  1  0
 14 15  1  0
 13 16  1  0
 16 17  2  0
 17 18  1  0
 18 19  2  0
 19 20  1  0
 20 21  2  0
 21 22  1  0
 22 23  2  0
 22 24  1  0
 24 25  1  0
 25 26  1  0
 26 27  2  0
 27 28  1  0
 28 29  2  0
 29 30  1  0
 30 31  2  0
 31 32  1  0
 32 33  2  0
 33 34  1  0
 34 35  2  0
  7  2  1  0
 15 10  1  0
 21 16  1  0
 35 26  1  0
 34 29  1  0
  1 36  1  0
  1 37  1  0
  1 38  1  0
  3 39  1  0
  4 40  1  0
  6 41  1  0
  7 42  1  0
  9 43  1  0
  9 44  1  0
  9 45  1  0
 10 46  1  0
 11 47  1  0
 11 48  1  0
 12 49  1  0
 12 50  1  0
 14 51  1  0
 14 52  1  0
 15 53  1  0
 15 54  1  0
 17 55  1  0
 18 56  1  0
 20 57  1  0
 24 58  1  0
 25 59  1  0
 25 60  1  0
 27 61  1  0
 28 62  1  0
 30 63  1  0
 31 64  1  0
 32 65  1  0
 33 66  1  0
 35 67  1  0
M  END
$$$$
[H]OC([H])([H])[C@@]1([H])C([H])([H])OC(=O)N([C@@]2([H])C([H])([H])[C@@]3([H])ON(c4c([H])c([H])c(N([H])[H])c([H])c4[H])C([H])([H])[C@@]23[H])C1([H])[H]
     RDKit          3D

 44 47  0  0  0  0  0  0  0  0999 V2000
    7.4498   -0.2162   -1.2459 N   0  0  0  0  0  0  0  0  0  0  0  0
    6.0989   -0.2977   -0.7782 C   0  0  0  0  0  0  0  0  0  0  0  0
    5.8102   -0.5349    0.5353 C   0  0  0  0  0  0  0  0  0  0  0  0
    4.4959   -0.6030    0.9284 C   0  0  0  0  0  0  0  0  0  0  0  0
    3.4278   -0.4392    0.0380 C   0  0  0  0  0  0  0  0  0  0  0  0
    3.7863   -0.2026   -1.2735 C   0  0  0  0  0  0  0  0  0  0  0  0
    5.1090   -0.1292   -1.6960 C   0  0  0  0  0  0  0  0  0  0  0  0
    2.1087   -0.5187    0.4917 N   0  0  0  0  0  0  0  0  0  0  0  0
    0.8776   -0.3686   -0.2787 C   0  0  0  0  0  0  0  0  0  0  0  0
    0.1689    0.6136    0.5878 C   0  0  1  0  0  0  0  0  0  0  0  0
   -1.2099    0.4396    1.0443 C   0  0  2  0  0  0  0  0  0  0  0  0
   -0.7415   -0.7968    1.8053 C   0  0  0  0  0  0  0  0  0  0  0  0
    0.5754   -0.0102    1.9723 C   0  0  1  0  0  0  0  0  0  0  0  0
    1.6957   -0.7522    1.7404 O   0  0  0  0  0  0  0  0  0  0  0  0
   -2.3578    0.3810    0.2613 N   0  0  0  0  0  0  0  0  0  0  0  0
   -3.5353    1.1885    0.6683 C   0  0  0  0  0  0  0  0  0  0  0  0
   -4.7732    0.5171    0.2017 C   0  0  1  0  0  0  0  0  0  0  0  0
   -5.2379    1.1571   -1.0979 C   0  0  0  0  0  0  0  0  0  0  0  0
   -6.4155    0.5318   -1.5589 O   0  0  0  0  0  0  0  0  0  0  0  0
   -4.6668   -0.9776    0.0152 C   0  0  0  0  0  0  0  0  0  0  0  0
   -3.6517   -1.2914   -0.9560 O   0  0  0  0  0  0  0  0  0  0  0  0
   -2.5464   -0.4031   -0.8932 C   0  0  0  0  0  0  0  0  0  0  0  0
   -1.7304   -0.2958   -1.8419 O   0  0  0  0  0  0  0  0  0  0  0  0
    8.0961    0.5335   -0.9651 H   0  0  0  0  0  0  0  0  0  0  0  0
    7.7826   -0.9519   -1.8980 H   0  0  0  0  0  0  0  0  0  0  0  0
    6.6014   -0.6638    1.2366 H   0  0  0  0  0  0  0  0  0  0  0  0
    4.2307   -0.7922    1.9764 H   0  0  0  0  0  0  0  0  0  0  0  0
    2.9902   -0.0690   -2.0019 H   0  0  0  0  0  0  0  0  0  0  0  0
    5.3019    0.0627   -2.7580 H   0  0  0  0  0  0  0  0  0  0  0  0
    0.3559   -1.3147   -0.3809 H   0  0  0  0  0  0  0  0  0  0  0  0
    1.0885    0.0136   -1.3002 H   0  0  0  0  0  0  0  0  0  0  0  0
    0.5575    1.6626    0.5281 H   0  0  0  0  0  0  0  0  0  0  0  0
   -1.3860    1.2296    1.8811 H   0  0  0  0  0  0  0  0  0  0  0  0
   -0.5947   -1.7098    1.2628 H   0  0  0  0  0  0  0  0  0  0  0  0
   -1.3010   -0.8938    2.7534 H   0  0  0  0  0  0  0  0  0  0  0  0
    0.5695    0.7220    2.7775 H   0  0  0  0  0  0  0  0  0  0  0  0
   -3.4668    2.1952    0.2143 H   0  0  0  0  0  0  0  0  0  0  0  0
   -3.5752    1.2381    1.7803 H   0  0  0  0  0  0  0  0  0  0  0  0
   -5.5920    0.7362    0.9345 H   0  0  0  0  0  0  0  0  0  0  0  0
   -5.5037    2.2190   -0.9577 H   0  0  0  0  0  0  0  0  0  0  0  0
   -4.5089    1.1010   -1.9066 H   0  0  0  0  0  0  0  0  0  0  0  0
   -6.4602    0.5655   -2.5502 H   0  0  0  0  0  0  0  0  0  0  0  0
   -5.6076   -1.4460   -0.2616 H   0  0  0  0  0  0  0  0  0  0  0  0
   -4.3160   -1.4295    0.9657 H   0  0  0  0  0  0  0  0  0  0  0  0
  1  2  1  0
  2  3  2  0
  3  4  1  0
  4  5  2  0
  5  6  1  0
  6  7  2  0
  5  8  1  0
  8  9  1  0
  9 10  1  0
 10 11  1  0
 11 12  1  0
 12 13  1  0
 13 14  1  0
 11 15  1  0
 15 16  1  0
 16 17  1  0
 17 18  1  0
 18 19  1  0
 17 20  1  0
 20 21  1  0
 21 22  1  0
 22 23  2  0
  7  2  1  0
 14  8  1  0
 13 10  1  0
 22 15  1  0
  1 24  1  0
  1 25  1  0
  3 26  1  0
  4 27  1  0
  6 28  1  0
  7 29  1  0
  9 30  1  0
  9 31  1  0
 10 32  1  1
 11 33  1  1
 12 34  1  0
 12 35  1  0
 13 36  1  1
 16 37  1  0
 16 38  1  0
 17 39  1  1
 18 40  1  0
 18 41  1  0
 19 42  1  0
 20 43  1  0
 20 44  1  0
M  END
$$$$
[H]c1nc(OS(=O)(=O)C([H])([H])[H])c([H])c([H])c1N([H])c1nc([H])c(C([H])([H])N2C([H])([H])C([H])([H])C([H])(c3c([H])c([H])c(F)c([H])c3F)C2([H])[H])c([H])c1[H]
     RDKit          3D

 54 57  0  0  0  0  0  0  0  0999 V2000
   -3.1715    1.6809    1.2992 F   0  0  0  0  0  0  0  0  0  0  0  0
   -4.3265    1.0703    1.6163 C   0  0  0  0  0  0  0  0  0  0  0  0
   -4.8947    1.4091    2.8404 C   0  0  0  0  0  0  0  0  0  0  0  0
   -6.0681    0.8248    3.2228 C   0  0  0  0  0  0  0  0  0  0  0  0
   -6.6998    1.0952    4.4058 F   0  0  0  0  0  0  0  0  0  0  0  0
   -6.6670   -0.0882    2.3910 C   0  0  0  0  0  0  0  0  0  0  0  0
   -6.0903   -0.4076    1.1895 C   0  0  0  0  0  0  0  0  0  0  0  0
   -4.8928    0.1626    0.7554 C   0  0  0  0  0  0  0  0  0  0  0  0
   -4.3109   -0.2032   -0.5325 C   0  0  0  0  0  0  0  0  0  0  0  0
   -5.0555   -1.2318   -1.2989 C   0  0  0  0  0  0  0  0  0  0  0  0
   -3.9915   -1.7279   -2.2874 C   0  0  0  0  0  0  0  0  0  0  0  0
   -2.7200   -1.2151   -1.8084 N   0  0  0  0  0  0  0  0  0  0  0  0
   -2.1738   -0.2117   -2.6627 C   0  0  0  0  0  0  0  0  0  0  0  0
   -0.8651    0.2453   -2.1027 C   0  0  0  0  0  0  0  0  0  0  0  0
    0.2069   -0.6124   -2.0970 C   0  0  0  0  0  0  0  0  0  0  0  0
    1.4255   -0.1847   -1.5871 C   0  0  0  0  0  0  0  0  0  0  0  0
    1.5692    1.0769   -1.0909 C   0  0  0  0  0  0  0  0  0  0  0  0
    2.7317    1.5898   -0.5297 N   0  0  0  0  0  0  0  0  0  0  0  0
    3.8978    0.8752   -0.2685 C   0  0  0  0  0  0  0  0  0  0  0  0
    3.9269   -0.3716    0.2653 C   0  0  0  0  0  0  0  0  0  0  0  0
    5.1437   -1.0309    0.4739 C   0  0  0  0  0  0  0  0  0  0  0  0
    6.3110   -0.3939    0.1298 C   0  0  0  0  0  0  0  0  0  0  0  0
    7.5033   -1.0842    0.3531 O   0  0  0  0  0  0  0  0  0  0  0  0
    8.1575   -0.9706    1.9240 S   0  0  0  0  0  0  0  0  0  0  0  0
    7.8683    0.6749    2.5378 C   0  0  0  0  0  0  0  0  0  0  0  0
    7.4448   -1.9740    2.7721 O   0  0  0  0  0  0  0  0  0  0  0  0
    9.6217   -1.2814    1.9172 O   0  0  0  0  0  0  0  0  0  0  0  0
    6.2719    0.8408   -0.3972 N   0  0  0  0  0  0  0  0  0  0  0  0
    5.1204    1.4694   -0.5972 C   0  0  0  0  0  0  0  0  0  0  0  0
    0.4793    1.8861   -1.1199 N   0  0  0  0  0  0  0  0  0  0  0  0
   -0.6959    1.5064   -1.6005 C   0  0  0  0  0  0  0  0  0  0  0  0
   -2.9262   -0.7856   -0.4601 C   0  0  0  0  0  0  0  0  0  0  0  0
   -4.4163    2.1327    3.4956 H   0  0  0  0  0  0  0  0  0  0  0  0
   -7.6009   -0.5691    2.6693 H   0  0  0  0  0  0  0  0  0  0  0  0
   -6.5730   -1.1251    0.5478 H   0  0  0  0  0  0  0  0  0  0  0  0
   -4.2488    0.7129   -1.1582 H   0  0  0  0  0  0  0  0  0  0  0  0
   -5.3466   -2.1305   -0.7220 H   0  0  0  0  0  0  0  0  0  0  0  0
   -5.9534   -0.8670   -1.8215 H   0  0  0  0  0  0  0  0  0  0  0  0
   -4.0099   -2.8178   -2.4009 H   0  0  0  0  0  0  0  0  0  0  0  0
   -4.2744   -1.2965   -3.2757 H   0  0  0  0  0  0  0  0  0  0  0  0
   -2.0841   -0.5173   -3.7150 H   0  0  0  0  0  0  0  0  0  0  0  0
   -2.8593    0.6697   -2.6467 H   0  0  0  0  0  0  0  0  0  0  0  0
    0.1016   -1.6186   -2.4890 H   0  0  0  0  0  0  0  0  0  0  0  0
    2.2463   -0.8633   -1.6184 H   0  0  0  0  0  0  0  0  0  0  0  0
    2.7425    2.6330   -0.2718 H   0  0  0  0  0  0  0  0  0  0  0  0
    3.0012   -0.8593    0.5511 H   0  0  0  0  0  0  0  0  0  0  0  0
    5.1429   -2.0304    0.9025 H   0  0  0  0  0  0  0  0  0  0  0  0
    6.7834    0.8762    2.5075 H   0  0  0  0  0  0  0  0  0  0  0  0
    8.2464    0.7258    3.5694 H   0  0  0  0  0  0  0  0  0  0  0  0
    8.3713    1.4297    1.9301 H   0  0  0  0  0  0  0  0  0  0  0  0
    5.1522    2.4657   -1.0262 H   0  0  0  0  0  0  0  0  0  0  0  0
   -1.5176    2.2119   -1.5881 H   0  0  0  0  0  0  0  0  0  0  0  0
   -2.8762   -1.6922    0.1787 H   0  0  0  0  0  0  0  0  0  0  0  0
   -2.1573   -0.1033   -0.1098 H   0  0  0  0  0  0  0  0  0  0  0  0
  1  2  1  0
  2  3  2  0
  3  4  1  0
  4  5  1  0
  4  6  2  0
  6  7  1  0
  7  8  2  0
  8  9  1  0
  9 10  1  0
 10 11  1  0
 11 12  1  0
 12 13  1  0
 13 14  1  0
 14 15  2  0
 15 16  1  0
 16 17  2  0
 17 18  1  0
 18 19  1  0
 19 20  2  0
 20 21  1  0
 21 22  2  0
 22 23  1  0
 23 24  1  0
 24 25  1  0
 24 26  2  0
 24 27  2  0
 22 28  1  0
 28 29  2  0
 17 30  1  0
 30 31  2  0
 12 32  1  0
  8  2  1  0
 32  9  1  0
 31 14  1  0
 29 19  1  0
  3 33  1  0
  6 34  1  0
  7 35  1  0
  9 36  1  0
 10 37  1  0
 10 38  1  0
 11 39  1  0
 11 40  1  0
 13 41  1  0
 13 42  1  0
 15 43  1  0
 16 44  1  0
 18 45  1  0
 20 46  1  0
 21 47  1  0
 25 48  1  0
 25 49  1  0
 25 50  1  0
 29 51  1  0
 31 52  1  0
 32 53  1  0
 32 54  1  0
M  END
$$$$
[H]OC(=O)C([H])([H])C(=O)N([H])C([H])([H])C([H])([H])C([H])([H])C([H])(C(=O)N([H])c1c([H])nc([H])c([H])c1C([H])([H])[H])N([H])S(=O)(=O)C([H])([H])[H]
     RDKit          3D

 48 48  0  0  0  0  0  0  0  0999 V2000
    0.6338   -0.7387    4.8251 C   0  0  0  0  0  0  0  0  0  0  0  0
    1.2897   -1.7849    3.5523 S   0  0  0  0  0  0  0  0  0  0  0  0
    1.4047   -3.1744    4.1204 O   0  0  0  0  0  0  0  0  0  0  0  0
    2.6626   -1.3178    3.2184 O   0  0  0  0  0  0  0  0  0  0  0  0
    0.2601   -1.8103    2.1547 N   0  0  0  0  0  0  0  0  0  0  0  0
    0.1350   -0.5161    1.5801 C   0  0  0  0  0  0  0  0  0  0  0  0
    0.6520   -0.4532    0.1565 C   0  0  0  0  0  0  0  0  0  0  0  0
   -0.0876   -1.3922   -0.7448 C   0  0  0  0  0  0  0  0  0  0  0  0
    0.4420   -1.3106   -2.1458 C   0  0  0  0  0  0  0  0  0  0  0  0
    1.8478   -1.6591   -2.2236 N   0  0  0  0  0  0  0  0  0  0  0  0
    2.4910   -1.6242   -3.4913 C   0  0  0  0  0  0  0  0  0  0  0  0
    1.8510   -1.2958   -4.5303 O   0  0  0  0  0  0  0  0  0  0  0  0
    3.9314   -1.9847   -3.5495 C   0  0  0  0  0  0  0  0  0  0  0  0
    4.4755   -1.9073   -4.9080 C   0  0  0  0  0  0  0  0  0  0  0  0
    3.7659   -1.5458   -6.0376 O   0  0  0  0  0  0  0  0  0  0  0  0
    5.7032   -2.1986   -5.0498 O   0  0  0  0  0  0  0  0  0  0  0  0
   -1.2710   -0.0060    1.5447 C   0  0  0  0  0  0  0  0  0  0  0  0
   -2.1087   -0.7947    2.0199 O   0  0  0  0  0  0  0  0  0  0  0  0
   -1.6070    1.2436    1.0238 N   0  0  0  0  0  0  0  0  0  0  0  0
   -2.8558    1.8396    0.9267 C   0  0  0  0  0  0  0  0  0  0  0  0
   -4.0463    1.2867    1.3388 C   0  0  0  0  0  0  0  0  0  0  0  0
   -5.2402    1.9444    1.2051 N   0  0  0  0  0  0  0  0  0  0  0  0
   -5.3286    3.1643    0.6667 C   0  0  0  0  0  0  0  0  0  0  0  0
   -4.1763    3.7748    0.2338 C   0  0  0  0  0  0  0  0  0  0  0  0
   -2.9734    3.1237    0.3634 C   0  0  0  0  0  0  0  0  0  0  0  0
   -1.7226    3.7656   -0.0964 C   0  0  0  0  0  0  0  0  0  0  0  0
    0.5899    0.3291    4.4722 H   0  0  0  0  0  0  0  0  0  0  0  0
    1.3662   -0.7451    5.6526 H   0  0  0  0  0  0  0  0  0  0  0  0
   -0.3184   -1.0943    5.2302 H   0  0  0  0  0  0  0  0  0  0  0  0
    0.6303   -2.5379    1.5315 H   0  0  0  0  0  0  0  0  0  0  0  0
    0.7308    0.2057    2.1730 H   0  0  0  0  0  0  0  0  0  0  0  0
    1.7357   -0.6901    0.1125 H   0  0  0  0  0  0  0  0  0  0  0  0
    0.5568    0.5695   -0.2604 H   0  0  0  0  0  0  0  0  0  0  0  0
   -1.1660   -1.2111   -0.7417 H   0  0  0  0  0  0  0  0  0  0  0  0
    0.0478   -2.4652   -0.4212 H   0  0  0  0  0  0  0  0  0  0  0  0
    0.3614   -0.2482   -2.5129 H   0  0  0  0  0  0  0  0  0  0  0  0
   -0.1472   -1.9273   -2.8456 H   0  0  0  0  0  0  0  0  0  0  0  0
    2.3653   -1.9285   -1.3663 H   0  0  0  0  0  0  0  0  0  0  0  0
    4.0612   -3.0233   -3.1846 H   0  0  0  0  0  0  0  0  0  0  0  0
    4.5377   -1.3445   -2.8452 H   0  0  0  0  0  0  0  0  0  0  0  0
    4.1393   -0.7925   -6.6198 H   0  0  0  0  0  0  0  0  0  0  0  0
   -0.7762    1.8066    0.6531 H   0  0  0  0  0  0  0  0  0  0  0  0
   -4.0752    0.3034    1.7866 H   0  0  0  0  0  0  0  0  0  0  0  0
   -6.3056    3.6546    0.5787 H   0  0  0  0  0  0  0  0  0  0  0  0
   -4.2123    4.7596   -0.2056 H   0  0  0  0  0  0  0  0  0  0  0  0
   -1.2593    3.0989   -0.8547 H   0  0  0  0  0  0  0  0  0  0  0  0
   -1.0046    3.9137    0.7483 H   0  0  0  0  0  0  0  0  0  0  0  0
   -1.9857    4.7387   -0.5534 H   0  0  0  0  0  0  0  0  0  0  0  0
  1  2  1  0
  2  3  2  0
  2  4  2  0
  2  5  1  0
  5  6  1  0
  6  7  1  0
  7  8  1  0
  8  9  1  0
  9 10  1  0
 10 11  1  0
 11 12  2  0
 11 13  1  0
 13 14  1  0
 14 15  1  0
 14 16  2  0
  6 17  1  0
 17 18  2  0
 17 19  1  0
 19 20  1  0
 20 21  2  0
 21 22  1  0
 22 23  2  0
 23 24  1  0
 24 25  2  0
 25 26  1  0
 25 20  1  0
  1 27  1  0
  1 28  1  0
  1 29  1  0
  5 30  1  0
  6 31  1  0
  7 32  1  0
  7 33  1  0
  8 34  1  0
  8 35  1  0
  9 36  1  0
  9 37  1  0
 10 38  1  0
 13 39  1  0
 13 40  1  0
 15 41  1  0
 19 42  1  0
 21 43  1  0
 23 44  1  0
 24 45  1  0
 26 46  1  0
 26 47  1  0
 26 48  1  0
M  END
$$$$
[H]c1nc([H])c(-c2oc3c([H])c([H])c(N(C([H])([H])[H])C([H])([H])C4([H])C([H])([H])C4([H])[H])c([H])c3c2[H])c([H])c1[H]
     RDKit          3D

 39 42  0  0  0  0  0  0  0  0999 V2000
    3.2397   -0.9479   -2.4645 C   0  0  0  0  0  0  0  0  0  0  0  0
    2.9568   -0.4080   -1.1330 N   0  0  0  0  0  0  0  0  0  0  0  0
    4.0303    0.2077   -0.3992 C   0  0  0  0  0  0  0  0  0  0  0  0
    3.5838    0.8390    0.8837 C   0  0  0  0  0  0  0  0  0  0  0  0
    4.7591    1.4764    1.6490 C   0  0  0  0  0  0  0  0  0  0  0  0
    3.9628    0.3333    2.2122 C   0  0  0  0  0  0  0  0  0  0  0  0
    1.6424   -0.5502   -0.6386 C   0  0  0  0  0  0  0  0  0  0  0  0
    1.4115   -1.3400    0.4608 C   0  0  0  0  0  0  0  0  0  0  0  0
    0.1618   -1.5174    1.0040 C   0  0  0  0  0  0  0  0  0  0  0  0
   -0.9224   -0.8746    0.4224 C   0  0  0  0  0  0  0  0  0  0  0  0
   -2.2029   -0.8366    0.6904 O   0  0  0  0  0  0  0  0  0  0  0  0
   -2.8642   -0.0694   -0.1575 C   0  0  0  0  0  0  0  0  0  0  0  0
   -1.9380    0.4182   -1.0350 C   0  0  0  0  0  0  0  0  0  0  0  0
   -0.7121   -0.0841   -0.6754 C   0  0  0  0  0  0  0  0  0  0  0  0
    0.5734    0.0775   -1.2049 C   0  0  0  0  0  0  0  0  0  0  0  0
   -4.3044    0.1611   -0.0875 C   0  0  0  0  0  0  0  0  0  0  0  0
   -5.1004   -0.3969    0.8914 C   0  0  0  0  0  0  0  0  0  0  0  0
   -6.4655   -0.1440    0.9513 C   0  0  0  0  0  0  0  0  0  0  0  0
   -7.0589    0.6855    0.0130 C   0  0  0  0  0  0  0  0  0  0  0  0
   -6.2672    1.2204   -0.9334 N   0  0  0  0  0  0  0  0  0  0  0  0
   -4.9252    0.9801   -1.0025 C   0  0  0  0  0  0  0  0  0  0  0  0
    2.8458   -0.2022   -3.1968 H   0  0  0  0  0  0  0  0  0  0  0  0
    2.5943   -1.8374   -2.5946 H   0  0  0  0  0  0  0  0  0  0  0  0
    4.3107   -1.1672   -2.6029 H   0  0  0  0  0  0  0  0  0  0  0  0
    4.7948   -0.5689   -0.1020 H   0  0  0  0  0  0  0  0  0  0  0  0
    4.4768    1.0006   -1.0494 H   0  0  0  0  0  0  0  0  0  0  0  0
    2.7074    1.5361    0.8518 H   0  0  0  0  0  0  0  0  0  0  0  0
    4.6430    2.4643    2.0767 H   0  0  0  0  0  0  0  0  0  0  0  0
    5.7907    1.1909    1.3489 H   0  0  0  0  0  0  0  0  0  0  0  0
    4.4444   -0.6649    2.2982 H   0  0  0  0  0  0  0  0  0  0  0  0
    3.2658    0.5006    3.0726 H   0  0  0  0  0  0  0  0  0  0  0  0
    2.2234   -1.8680    0.9415 H   0  0  0  0  0  0  0  0  0  0  0  0
   -0.0369   -2.1221    1.8571 H   0  0  0  0  0  0  0  0  0  0  0  0
   -2.1263    1.0786   -1.8597 H   0  0  0  0  0  0  0  0  0  0  0  0
    0.6756    0.7135   -2.0722 H   0  0  0  0  0  0  0  0  0  0  0  0
   -4.6208   -1.0432    1.6130 H   0  0  0  0  0  0  0  0  0  0  0  0
   -7.1024   -0.5739    1.7109 H   0  0  0  0  0  0  0  0  0  0  0  0
   -8.1163    0.8811    0.0607 H   0  0  0  0  0  0  0  0  0  0  0  0
   -4.3304    1.4523   -1.8002 H   0  0  0  0  0  0  0  0  0  0  0  0
  1  2  1  0
  2  3  1  0
  3  4  1  0
  4  5  1  0
  5  6  1  0
  2  7  1  0
  7  8  2  0
  8  9  1  0
  9 10  2  0
 10 11  1  0
 11 12  1  0
 12 13  2  0
 13 14  1  0
 14 15  2  0
 12 16  1  0
 16 17  2  0
 17 18  1  0
 18 19  2  0
 19 20  1  0
 20 21  2  0
  6  4  1  0
 15  7  1  0
 21 16  1  0
 14 10  1  0
  1 22  1  0
  1 23  1  0
  1 24  1  0
  3 25  1  0
  3 26  1  0
  4 27  1  0
  5 28  1  0
  5 29  1  0
  6 30  1  0
  6 31  1  0
  8 32  1  0
  9 33  1  0
 13 34  1  0
 15 35  1  0
 17 36  1  0
 18 37  1  0
 19 38  1  0
 21 39  1  0
M  END
$$$$
[H]c1nc(C(=O)N([H])c2nc(N3C([H])([H])C([H])([H])C([H])(N([H])C(=O)c4nc5c([H])c([H])c(F)c([H])c5n4[H])C([H])([H])C3([H])[H])c([H])c([H])c2[H])c([H])c([H])c1[H]
     RDKit          3D

 56 60  0  0  0  0  0  0  0  0999 V2000
    4.3882   -0.5662   -0.6129 O   0  0  0  0  0  0  0  0  0  0  0  0
    5.3797    0.1151   -0.2664 C   0  0  0  0  0  0  0  0  0  0  0  0
    5.2547    1.0565    0.7803 N   0  0  0  0  0  0  0  0  0  0  0  0
    4.0042    1.2220    1.4334 C   0  0  0  0  0  0  0  0  0  0  0  0
    3.8493    2.1442    2.4583 C   0  0  0  0  0  0  0  0  0  0  0  0
    2.6167    2.2463    3.0452 C   0  0  0  0  0  0  0  0  0  0  0  0
    1.5585    1.4652    2.6409 C   0  0  0  0  0  0  0  0  0  0  0  0
    1.7245    0.5328    1.6013 C   0  0  0  0  0  0  0  0  0  0  0  0
    2.9572    0.4776    1.0631 N   0  0  0  0  0  0  0  0  0  0  0  0
    0.6631   -0.2790    1.1824 N   0  0  0  0  0  0  0  0  0  0  0  0
   -0.6021   -0.2389    1.9122 C   0  0  0  0  0  0  0  0  0  0  0  0
   -1.2889   -1.5995    1.6733 C   0  0  0  0  0  0  0  0  0  0  0  0
   -1.6380   -1.6785    0.2228 C   0  0  0  0  0  0  0  0  0  0  0  0
   -0.5084   -1.3449   -0.6655 C   0  0  0  0  0  0  0  0  0  0  0  0
    0.8030   -1.1534    0.0442 C   0  0  0  0  0  0  0  0  0  0  0  0
   -2.8483   -0.9232   -0.0821 N   0  0  0  0  0  0  0  0  0  0  0  0
   -4.0197   -1.5566   -0.5187 C   0  0  0  0  0  0  0  0  0  0  0  0
   -4.0276   -2.8053   -0.6513 O   0  0  0  0  0  0  0  0  0  0  0  0
   -5.2326   -0.7644   -0.8194 C   0  0  0  0  0  0  0  0  0  0  0  0
   -5.3712    0.5673   -0.7368 N   0  0  0  0  0  0  0  0  0  0  0  0
   -6.6253    0.9449   -1.0871 C   0  0  0  0  0  0  0  0  0  0  0  0
   -7.2689    2.1639   -1.1717 C   0  0  0  0  0  0  0  0  0  0  0  0
   -8.5847    2.1956   -1.5745 C   0  0  0  0  0  0  0  0  0  0  0  0
   -9.2474    1.0113   -1.8894 C   0  0  0  0  0  0  0  0  0  0  0  0
  -10.5563    1.0703   -2.2879 F   0  0  0  0  0  0  0  0  0  0  0  0
   -8.6084   -0.2081   -1.8063 C   0  0  0  0  0  0  0  0  0  0  0  0
   -7.2781   -0.2261   -1.3977 C   0  0  0  0  0  0  0  0  0  0  0  0
   -6.4167   -1.2523   -1.2292 N   0  0  0  0  0  0  0  0  0  0  0  0
    6.6643   -0.0883   -0.9702 C   0  0  0  0  0  0  0  0  0  0  0  0
    7.8061    0.5876   -0.6479 C   0  0  0  0  0  0  0  0  0  0  0  0
    8.9604    0.3172   -1.3824 C   0  0  0  0  0  0  0  0  0  0  0  0
    8.9518   -0.6052   -2.4048 C   0  0  0  0  0  0  0  0  0  0  0  0
    7.7688   -1.2658   -2.6951 C   0  0  0  0  0  0  0  0  0  0  0  0
    6.6677   -0.9900   -1.9744 N   0  0  0  0  0  0  0  0  0  0  0  0
    6.0701    1.6546    1.1054 H   0  0  0  0  0  0  0  0  0  0  0  0
    4.7120    2.7289    2.7347 H   0  0  0  0  0  0  0  0  0  0  0  0
    2.5024    2.9713    3.8478 H   0  0  0  0  0  0  0  0  0  0  0  0
    0.5915    1.5646    3.1189 H   0  0  0  0  0  0  0  0  0  0  0  0
   -0.3480   -0.2276    2.9894 H   0  0  0  0  0  0  0  0  0  0  0  0
   -1.2156    0.6060    1.6162 H   0  0  0  0  0  0  0  0  0  0  0  0
   -2.2099   -1.5551    2.3261 H   0  0  0  0  0  0  0  0  0  0  0  0
   -0.5941   -2.3659    2.0144 H   0  0  0  0  0  0  0  0  0  0  0  0
   -1.8773   -2.7854    0.0266 H   0  0  0  0  0  0  0  0  0  0  0  0
   -0.7101   -0.3747   -1.2187 H   0  0  0  0  0  0  0  0  0  0  0  0
   -0.3735   -2.1603   -1.4291 H   0  0  0  0  0  0  0  0  0  0  0  0
    1.1762   -2.1324    0.3567 H   0  0  0  0  0  0  0  0  0  0  0  0
    1.5246   -0.7251   -0.6911 H   0  0  0  0  0  0  0  0  0  0  0  0
   -2.8106    0.1056    0.0373 H   0  0  0  0  0  0  0  0  0  0  0  0
   -6.7614    3.0813   -0.9302 H   0  0  0  0  0  0  0  0  0  0  0  0
   -9.0741    3.1551   -1.6350 H   0  0  0  0  0  0  0  0  0  0  0  0
   -9.0948   -1.1453   -2.0432 H   0  0  0  0  0  0  0  0  0  0  0  0
   -6.6174   -2.2735   -1.3869 H   0  0  0  0  0  0  0  0  0  0  0  0
    7.8096    1.3088    0.1508 H   0  0  0  0  0  0  0  0  0  0  0  0
    9.8639    0.8388   -1.1413 H   0  0  0  0  0  0  0  0  0  0  0  0
    9.8331   -0.8397   -2.9962 H   0  0  0  0  0  0  0  0  0  0  0  0
    7.7075   -2.0023   -3.4912 H   0  0  0  0  0  0  0  0  0  0  0  0
  1  2  2  0
  2  3  1  0
  3  4  1  0
  4  5  2  0
  5  6  1  0
  6  7  2  0
  7  8  1  0
  8  9  2  0
  8 10  1  0
 10 11  1  0
 11 12  1  0
 12 13  1  0
 13 14  1  0
 14 15  1  0
 13 16  1  0
 16 17  1  0
 17 18  2  0
 17 19  1  0
 19 20  2  0
 20 21  1  0
 21 22  2  0
 22 23  1  0
 23 24  2  0
 24 25  1  0
 24 26  1  0
 26 27  2  0
 27 28  1  0
  2 29  1  0
 29 30  2  0
 30 31  1  0
 31 32  2  0
 32 33  1  0
 33 34  2  0
  9  4  1  0
 15 10  1  0
 28 19  1  0
 34 29  1  0
 27 21  1  0
  3 35  1  0
  5 36  1  0
  6 37  1  0
  7 38  1  0
 11 39  1  0
 11 40  1  0
 12 41  1  0
 12 42  1  0
 13 43  1  0
 14 44  1  0
 14 45  1  0
 15 46  1  0
 15 47  1  0
 16 48  1  0
 22 49  1  0
 23 50  1  0
 26 51  1  0
 28 52  1  0
 30 53  1  0
 31 54  1  0
 32 55  1  0
 33 56  1  0
M  END
$$$$
[H]c1c([H])c([H])c(C([H])([H])N([H])C(=O)N([H])c2c([H])c([H])c3c([H])c([H])c([H])c([H])c3c2[H])c([H])c1[H]
     RDKit          3D

 37 39  0  0  0  0  0  0  0  0999 V2000
   -1.1137   -0.5788    1.1370 O   0  0  0  0  0  0  0  0  0  0  0  0
   -0.9884   -1.0492   -0.0005 C   0  0  0  0  0  0  0  0  0  0  0  0
   -2.1572   -1.6526   -0.5847 N   0  0  0  0  0  0  0  0  0  0  0  0
   -3.4181   -1.7045    0.1230 C   0  0  0  0  0  0  0  0  0  0  0  0
   -4.0834   -0.3858    0.0882 C   0  0  0  0  0  0  0  0  0  0  0  0
   -4.1385    0.3837    1.2234 C   0  0  0  0  0  0  0  0  0  0  0  0
   -4.7498    1.6333    1.2359 C   0  0  0  0  0  0  0  0  0  0  0  0
   -5.3030    2.0758    0.0593 C   0  0  0  0  0  0  0  0  0  0  0  0
   -5.2547    1.3214   -1.0732 C   0  0  0  0  0  0  0  0  0  0  0  0
   -4.6388    0.0672   -1.0776 C   0  0  0  0  0  0  0  0  0  0  0  0
    0.2222   -1.0085   -0.7059 N   0  0  0  0  0  0  0  0  0  0  0  0
    1.4033   -0.4227   -0.2044 C   0  0  0  0  0  0  0  0  0  0  0  0
    1.4906    0.4815    0.8184 C   0  0  0  0  0  0  0  0  0  0  0  0
    2.7518    0.9461    1.2091 C   0  0  0  0  0  0  0  0  0  0  0  0
    3.9180    0.5303    0.6035 C   0  0  0  0  0  0  0  0  0  0  0  0
    5.1601    0.9991    1.0025 C   0  0  0  0  0  0  0  0  0  0  0  0
    6.3363    0.5935    0.4091 C   0  0  0  0  0  0  0  0  0  0  0  0
    6.2367   -0.3187   -0.6231 C   0  0  0  0  0  0  0  0  0  0  0  0
    5.0095   -0.7924   -1.0295 C   0  0  0  0  0  0  0  0  0  0  0  0
    3.8310   -0.3813   -0.4294 C   0  0  0  0  0  0  0  0  0  0  0  0
    2.6035   -0.8353   -0.8107 C   0  0  0  0  0  0  0  0  0  0  0  0
   -2.0468   -2.0501   -1.5431 H   0  0  0  0  0  0  0  0  0  0  0  0
   -4.0461   -2.5022   -0.3410 H   0  0  0  0  0  0  0  0  0  0  0  0
   -3.2378   -1.9984    1.1904 H   0  0  0  0  0  0  0  0  0  0  0  0
   -3.7174    0.0701    2.1766 H   0  0  0  0  0  0  0  0  0  0  0  0
   -4.7799    2.2194    2.1407 H   0  0  0  0  0  0  0  0  0  0  0  0
   -5.7800    3.0538    0.0753 H   0  0  0  0  0  0  0  0  0  0  0  0
   -5.7061    1.7189   -1.9695 H   0  0  0  0  0  0  0  0  0  0  0  0
   -4.6427   -0.4667   -2.0149 H   0  0  0  0  0  0  0  0  0  0  0  0
    0.2414   -1.4432   -1.6846 H   0  0  0  0  0  0  0  0  0  0  0  0
    0.6266    0.8525    1.3167 H   0  0  0  0  0  0  0  0  0  0  0  0
    2.8142    1.6616    2.0212 H   0  0  0  0  0  0  0  0  0  0  0  0
    5.2217    1.7114    1.8108 H   0  0  0  0  0  0  0  0  0  0  0  0
    7.3142    0.9723    0.7347 H   0  0  0  0  0  0  0  0  0  0  0  0
    7.1596   -0.6444   -1.0973 H   0  0  0  0  0  0  0  0  0  0  0  0
    4.9157   -1.5062   -1.8360 H   0  0  0  0  0  0  0  0  0  0  0  0
    2.5459   -1.5508   -1.6210 H   0  0  0  0  0  0  0  0  0  0  0  0
  1  2  2  0
  2  3  1  0
  3  4  1  0
  4  5  1  0
  5  6  2  0
  6  7  1  0
  7  8  2  0
  8  9  1  0
  9 10  2  0
  2 11  1  0
 11 12  1  0
 12 13  2  0
 13 14  1  0
 14 15  2  0
 15 16  1  0
 16 17  2  0
 17 18  1  0
 18 19  2  0
 19 20  1  0
 20 21  2  0
 10  5  1  0
 21 12  1  0
 20 15  1  0
  3 22  1  0
  4 23  1  0
  4 24  1  0
  6 25  1  0
  7 26  1  0
  8 27  1  0
  9 28  1  0
 10 29  1  0
 11 30  1  0
 13 31  1  0
 14 32  1  0
 16 33  1  0
 17 34  1  0
 18 35  1  0
 19 36  1  0
 21 37  1  0
M  END
$$$$
[H]c1c(N([H])c2c([H])c([H])c([H])c3c([H])c(C#N)c([H])c([H])c23)nnc(C([H])([H])N([H])C([H])([H])C([H])([H])O[C@]2([H])C([H])([H])C([H])([H])C([H])([H])C([H])([H])[C@]2([H])N([H])C(=O)c2c([H])c([H])c(Cl)c([H])c2Cl)c1[H]
     RDKit          3D

 71 75  0  0  0  0  0  0  0  0999 V2000
   13.7359   -1.0205    0.8817 N   0  0  0  0  0  0  0  0  0  0  0  0
   12.5890   -1.1256    0.7355 C   0  0  0  0  0  0  0  0  0  0  0  0
   11.1615   -1.2380    0.5401 C   0  0  0  0  0  0  0  0  0  0  0  0
   10.3163   -0.4147    1.2367 C   0  0  0  0  0  0  0  0  0  0  0  0
    8.9266   -0.5066    1.0626 C   0  0  0  0  0  0  0  0  0  0  0  0
    8.4150   -1.4169    0.1990 C   0  0  0  0  0  0  0  0  0  0  0  0
    7.0183   -1.5095    0.0147 C   0  0  0  0  0  0  0  0  0  0  0  0
    6.1594   -0.6971    0.7831 N   0  0  0  0  0  0  0  0  0  0  0  0
    4.8051   -0.4852    0.5371 C   0  0  0  0  0  0  0  0  0  0  0  0
    4.0814    0.3104    1.4454 C   0  0  0  0  0  0  0  0  0  0  0  0
    2.7613    0.5559    1.2023 C   0  0  0  0  0  0  0  0  0  0  0  0
    2.1030    0.0565    0.1012 C   0  0  0  0  0  0  0  0  0  0  0  0
    0.6825    0.3250   -0.1628 C   0  0  0  0  0  0  0  0  0  0  0  0
   -0.1444    0.0471    0.9936 N   0  0  0  0  0  0  0  0  0  0  0  0
   -1.5359    0.3251    0.6901 C   0  0  0  0  0  0  0  0  0  0  0  0
   -2.4343    0.0657    1.8568 C   0  0  0  0  0  0  0  0  0  0  0  0
   -3.7689    0.3273    1.5813 O   0  0  0  0  0  0  0  0  0  0  0  0
   -4.0501    1.6157    1.2275 C   0  0  2  0  0  0  0  0  0  0  0  0
   -4.9852    2.2908    2.1962 C   0  0  0  0  0  0  0  0  0  0  0  0
   -5.5175    3.5885    1.6292 C   0  0  0  0  0  0  0  0  0  0  0  0
   -4.6809    4.0820    0.4730 C   0  0  0  0  0  0  0  0  0  0  0  0
   -4.6675    3.1042   -0.6769 C   0  0  0  0  0  0  0  0  0  0  0  0
   -4.5501    1.6668   -0.1966 C   0  0  2  0  0  0  0  0  0  0  0  0
   -5.7828    0.9415   -0.3863 N   0  0  0  0  0  0  0  0  0  0  0  0
   -5.9163   -0.1782   -1.2401 C   0  0  0  0  0  0  0  0  0  0  0  0
   -4.9028   -0.5714   -1.8779 O   0  0  0  0  0  0  0  0  0  0  0  0
   -7.1511   -0.9090   -1.4318 C   0  0  0  0  0  0  0  0  0  0  0  0
   -7.4582   -1.9889   -0.6207 C   0  0  0  0  0  0  0  0  0  0  0  0
   -8.6291   -2.7084   -0.7788 C   0  0  0  0  0  0  0  0  0  0  0  0
   -9.5496   -2.3747   -1.7631 C   0  0  0  0  0  0  0  0  0  0  0  0
  -11.0271   -3.2918   -1.9531 Cl  0  0  0  0  0  0  0  0  0  0  0  0
   -9.2418   -1.2995   -2.5694 C   0  0  0  0  0  0  0  0  0  0  0  0
   -8.0742   -0.5850   -2.4092 C   0  0  0  0  0  0  0  0  0  0  0  0
   -7.6932    0.7783   -3.4371 Cl  0  0  0  0  0  0  0  0  0  0  0  0
    2.8549   -0.6998   -0.7314 N   0  0  0  0  0  0  0  0  0  0  0  0
    4.1288   -0.9374   -0.4979 N   0  0  0  0  0  0  0  0  0  0  0  0
    6.5563   -2.4407   -0.8757 C   0  0  0  0  0  0  0  0  0  0  0  0
    7.4597   -3.2649   -1.5713 C   0  0  0  0  0  0  0  0  0  0  0  0
    8.8087   -3.1740   -1.3913 C   0  0  0  0  0  0  0  0  0  0  0  0
    9.2964   -2.2451   -0.5005 C   0  0  0  0  0  0  0  0  0  0  0  0
   10.6728   -2.1694   -0.3420 C   0  0  0  0  0  0  0  0  0  0  0  0
   10.7126    0.3152    1.9286 H   0  0  0  0  0  0  0  0  0  0  0  0
    8.3450    0.1701    1.6300 H   0  0  0  0  0  0  0  0  0  0  0  0
    6.5808   -0.2100    1.6513 H   0  0  0  0  0  0  0  0  0  0  0  0
    4.5632    0.7133    2.3106 H   0  0  0  0  0  0  0  0  0  0  0  0
    2.2001    1.1720    1.9051 H   0  0  0  0  0  0  0  0  0  0  0  0
    0.5080    1.3663   -0.5036 H   0  0  0  0  0  0  0  0  0  0  0  0
    0.3545   -0.3610   -0.9872 H   0  0  0  0  0  0  0  0  0  0  0  0
    0.1303    0.7188    1.7677 H   0  0  0  0  0  0  0  0  0  0  0  0
   -1.8057   -0.4151   -0.1205 H   0  0  0  0  0  0  0  0  0  0  0  0
   -1.5909    1.3196    0.2595 H   0  0  0  0  0  0  0  0  0  0  0  0
   -2.1458    0.7843    2.6769 H   0  0  0  0  0  0  0  0  0  0  0  0
   -2.3625   -0.9735    2.2259 H   0  0  0  0  0  0  0  0  0  0  0  0
   -3.1114    2.2068    1.2432 H   0  0  0  0  0  0  0  0  0  0  0  0
   -5.8029    1.6405    2.5508 H   0  0  0  0  0  0  0  0  0  0  0  0
   -4.3844    2.5622    3.0896 H   0  0  0  0  0  0  0  0  0  0  0  0
   -5.5573    4.4003    2.3783 H   0  0  0  0  0  0  0  0  0  0  0  0
   -6.5580    3.4459    1.2355 H   0  0  0  0  0  0  0  0  0  0  0  0
   -3.6766    4.3620    0.8163 H   0  0  0  0  0  0  0  0  0  0  0  0
   -5.1660    5.0083    0.1014 H   0  0  0  0  0  0  0  0  0  0  0  0
   -3.8132    3.3888   -1.3294 H   0  0  0  0  0  0  0  0  0  0  0  0
   -5.5772    3.2256   -1.2996 H   0  0  0  0  0  0  0  0  0  0  0  0
   -3.7572    1.1955   -0.8167 H   0  0  0  0  0  0  0  0  0  0  0  0
   -6.6556    1.2352    0.1251 H   0  0  0  0  0  0  0  0  0  0  0  0
   -6.7775   -2.2994    0.1688 H   0  0  0  0  0  0  0  0  0  0  0  0
   -8.8867   -3.5597   -0.1504 H   0  0  0  0  0  0  0  0  0  0  0  0
   -9.9650   -1.0341   -3.3458 H   0  0  0  0  0  0  0  0  0  0  0  0
    5.5007   -2.6183   -1.0858 H   0  0  0  0  0  0  0  0  0  0  0  0
    7.0568   -3.9821   -2.2617 H   0  0  0  0  0  0  0  0  0  0  0  0
    9.5146   -3.8075   -1.9251 H   0  0  0  0  0  0  0  0  0  0  0  0
   11.3551   -2.7987   -0.8726 H   0  0  0  0  0  0  0  0  0  0  0  0
  1  2  3  0
  2  3  1  0
  3  4  2  0
  4  5  1  0
  5  6  2  0
  6  7  1  0
  7  8  1  0
  8  9  1  0
  9 10  2  0
 10 11  1  0
 11 12  2  0
 12 13  1  0
 13 14  1  0
 14 15  1  0
 15 16  1  0
 16 17  1  0
 17 18  1  0
 18 19  1  0
 19 20  1  0
 20 21  1  0
 21 22  1  0
 22 23  1  0
 23 24  1  0
 24 25  1  0
 25 26  2  0
 25 27  1  0
 27 28  2  0
 28 29  1  0
 29 30  2  0
 30 31  1  0
 30 32  1  0
 32 33  2  0
 33 34  1  0
 12 35  1  0
 35 36  2  0
  7 37  2  0
 37 38  1  0
 38 39  2  0
 39 40  1  0
 40 41  2  0
 41  3  1  0
 40  6  1  0
 36  9  1  0
 23 18  1  0
 33 27  1  0
  4 42  1  0
  5 43  1  0
  8 44  1  0
 10 45  1  0
 11 46  1  0
 13 47  1  0
 13 48  1  0
 14 49  1  0
 15 50  1  0
 15 51  1  0
 16 52  1  0
 16 53  1  0
 18 54  1  6
 19 55  1  0
 19 56  1  0
 20 57  1  0
 20 58  1  0
 21 59  1  0
 21 60  1  0
 22 61  1  0
 22 62  1  0
 23 63  1  6
 24 64  1  0
 28 65  1  0
 29 66  1  0
 32 67  1  0
 37 68  1  0
 38 69  1  0
 39 70  1  0
 41 71  1  0
M  END
$$$$
[H]Oc1c([H])c([H])c(N2C([H])([H])C3([H])C([H])([H])N([H])C([H])([H])C3([H])C([H])([H])[C@@]2([H])N([H])C(=O)N([H])c2c([H])c([H])c3c(c2[H])C([H])([H])N([H])C([H])([H])C([H])([H])C2([H])C([H])([H])C([H])([H])C([H])([H])C([H])([H])C32[H])c([H])c1[H]
     RDKit          3D

 75 80  0  0  0  0  0  0  0  0999 V2000
   -5.9316    5.6255    0.7635 O   0  0  0  0  0  0  0  0  0  0  0  0
   -5.5627    4.3016    0.7043 C   0  0  0  0  0  0  0  0  0  0  0  0
   -4.2386    3.9412    0.5783 C   0  0  0  0  0  0  0  0  0  0  0  0
   -3.8419    2.6019    0.5163 C   0  0  0  0  0  0  0  0  0  0  0  0
   -4.7607    1.5789    0.5781 C   0  0  0  0  0  0  0  0  0  0  0  0
   -6.1013    1.9908    0.7068 C   0  0  0  0  0  0  0  0  0  0  0  0
   -6.4971    3.3002    0.7684 C   0  0  0  0  0  0  0  0  0  0  0  0
   -4.4926    0.2181    0.5059 N   0  0  0  0  0  0  0  0  0  0  0  0
   -5.4456   -0.6731    1.2129 C   0  0  0  0  0  0  0  0  0  0  0  0
   -6.1625   -1.3731    0.1220 C   0  0  0  0  0  0  0  0  0  0  0  0
   -7.1125   -2.4339    0.5304 C   0  0  0  0  0  0  0  0  0  0  0  0
   -7.1903   -3.2842   -0.6383 N   0  0  0  0  0  0  0  0  0  0  0  0
   -5.9443   -3.1155   -1.3705 C   0  0  0  0  0  0  0  0  0  0  0  0
   -5.0800   -2.2565   -0.5342 C   0  0  0  0  0  0  0  0  0  0  0  0
   -4.0803   -1.4229   -1.2471 C   0  0  0  0  0  0  0  0  0  0  0  0
   -3.4590   -0.5167   -0.1535 C   0  0  1  0  0  0  0  0  0  0  0  0
   -2.3173    0.1589   -0.6145 N   0  0  0  0  0  0  0  0  0  0  0  0
   -0.9953   -0.1232   -0.1215 C   0  0  0  0  0  0  0  0  0  0  0  0
   -0.9358   -1.0112    0.7447 O   0  0  0  0  0  0  0  0  0  0  0  0
    0.1163    0.5547   -0.5896 N   0  0  0  0  0  0  0  0  0  0  0  0
    1.4596    0.3836   -0.2161 C   0  0  0  0  0  0  0  0  0  0  0  0
    2.4199    1.3360   -0.5753 C   0  0  0  0  0  0  0  0  0  0  0  0
    3.7522    1.2603   -0.2776 C   0  0  0  0  0  0  0  0  0  0  0  0
    4.1880    0.1775    0.4238 C   0  0  0  0  0  0  0  0  0  0  0  0
    5.6318    0.3442    0.6133 C   0  0  0  0  0  0  0  0  0  0  0  0
    6.1519    1.6726    0.9791 C   0  0  0  0  0  0  0  0  0  0  0  0
    7.5192    1.8588    0.3258 C   0  0  0  0  0  0  0  0  0  0  0  0
    7.4992    1.6733   -1.1513 C   0  0  0  0  0  0  0  0  0  0  0  0
    6.8236    0.4304   -1.6113 C   0  0  0  0  0  0  0  0  0  0  0  0
    6.4375   -0.4203   -0.4227 C   0  0  0  0  0  0  0  0  0  0  0  0
    5.6109   -1.6172   -0.8493 C   0  0  0  0  0  0  0  0  0  0  0  0
    5.4715   -2.5586    0.2991 C   0  0  0  0  0  0  0  0  0  0  0  0
    4.1131   -2.9957    0.5650 N   0  0  0  0  0  0  0  0  0  0  0  0
    3.4280   -2.1151    1.5323 C   0  0  0  0  0  0  0  0  0  0  0  0
    3.2646   -0.8206    0.8137 C   0  0  0  0  0  0  0  0  0  0  0  0
    1.9322   -0.6976    0.4889 C   0  0  0  0  0  0  0  0  0  0  0  0
   -6.1376    6.0868   -0.1359 H   0  0  0  0  0  0  0  0  0  0  0  0
   -3.4527    4.6958    0.5226 H   0  0  0  0  0  0  0  0  0  0  0  0
   -2.7994    2.3877    0.4311 H   0  0  0  0  0  0  0  0  0  0  0  0
   -6.9011    1.2489    0.7631 H   0  0  0  0  0  0  0  0  0  0  0  0
   -7.5331    3.5944    0.8674 H   0  0  0  0  0  0  0  0  0  0  0  0
   -6.0333   -0.1558    1.9500 H   0  0  0  0  0  0  0  0  0  0  0  0
   -4.8503   -1.4559    1.7728 H   0  0  0  0  0  0  0  0  0  0  0  0
   -6.5718   -0.6997   -0.6437 H   0  0  0  0  0  0  0  0  0  0  0  0
   -6.6313   -3.0342    1.3448 H   0  0  0  0  0  0  0  0  0  0  0  0
   -8.1099   -2.0575    0.8388 H   0  0  0  0  0  0  0  0  0  0  0  0
   -8.0142   -2.9683   -1.1926 H   0  0  0  0  0  0  0  0  0  0  0  0
   -5.5018   -4.1064   -1.6207 H   0  0  0  0  0  0  0  0  0  0  0  0
   -6.1784   -2.5793   -2.3197 H   0  0  0  0  0  0  0  0  0  0  0  0
   -4.6306   -2.8619    0.2809 H   0  0  0  0  0  0  0  0  0  0  0  0
   -3.2622   -2.0613   -1.5956 H   0  0  0  0  0  0  0  0  0  0  0  0
   -4.5662   -0.8339   -2.0209 H   0  0  0  0  0  0  0  0  0  0  0  0
   -3.0742   -1.2979    0.5828 H   0  0  0  0  0  0  0  0  0  0  0  0
   -2.3782    0.9060   -1.3563 H   0  0  0  0  0  0  0  0  0  0  0  0
   -0.0775    1.3035   -1.3351 H   0  0  0  0  0  0  0  0  0  0  0  0
    2.0494    2.2000   -1.1377 H   0  0  0  0  0  0  0  0  0  0  0  0
    4.4237    2.0197   -0.6037 H   0  0  0  0  0  0  0  0  0  0  0  0
    5.8610   -0.2754    1.5618 H   0  0  0  0  0  0  0  0  0  0  0  0
    5.5738    2.5621    0.7978 H   0  0  0  0  0  0  0  0  0  0  0  0
    6.4006    1.7297    2.0961 H   0  0  0  0  0  0  0  0  0  0  0  0
    7.8046    2.9163    0.5329 H   0  0  0  0  0  0  0  0  0  0  0  0
    8.2836    1.2332    0.8300 H   0  0  0  0  0  0  0  0  0  0  0  0
    8.5523    1.7324   -1.5040 H   0  0  0  0  0  0  0  0  0  0  0  0
    6.9945    2.5617   -1.6329 H   0  0  0  0  0  0  0  0  0  0  0  0
    5.9720    0.6088   -2.2970 H   0  0  0  0  0  0  0  0  0  0  0  0
    7.5595   -0.1681   -2.1933 H   0  0  0  0  0  0  0  0  0  0  0  0
    7.3870   -0.8281   -0.0181 H   0  0  0  0  0  0  0  0  0  0  0  0
    4.6625   -1.3322   -1.3491 H   0  0  0  0  0  0  0  0  0  0  0  0
    6.1858   -2.1404   -1.6800 H   0  0  0  0  0  0  0  0  0  0  0  0
    6.1028   -3.4845    0.0800 H   0  0  0  0  0  0  0  0  0  0  0  0
    5.8822   -2.2084    1.2638 H   0  0  0  0  0  0  0  0  0  0  0  0
    3.5480   -3.1016   -0.3059 H   0  0  0  0  0  0  0  0  0  0  0  0
    2.4459   -2.5519    1.7070 H   0  0  0  0  0  0  0  0  0  0  0  0
    4.0701   -2.0428    2.4163 H   0  0  0  0  0  0  0  0  0  0  0  0
    1.2746   -1.5147    0.8155 H   0  0  0  0  0  0  0  0  0  0  0  0
  1  2  1  0
  2  3  2  0
  3  4  1  0
  4  5  2  0
  5  6  1  0
  6  7  2  0
  5  8  1  0
  8  9  1  0
  9 10  1  0
 10 11  1  0
 11 12  1  0
 12 13  1  0
 13 14  1  0
 14 15  1  0
 15 16  1  0
 16 17  1  0
 17 18  1  0
 18 19  2  0
 18 20  1  0
 20 21  1  0
 21 22  2  0
 22 23  1  0
 23 24  2  0
 24 25  1  0
 25 26  1  0
 26 27  1  0
 27 28  1  0
 28 29  1  0
 29 30  1  0
 30 31  1  0
 31 32  1  0
 32 33  1  0
 33 34  1  0
 34 35  1  0
 35 36  2  0
  7  2  1  0
 16  8  1  0
 36 21  1  0
 14 10  1  0
 35 24  1  0
 30 25  1  0
  1 37  1  0
  3 38  1  0
  4 39  1  0
  6 40  1  0
  7 41  1  0
  9 42  1  0
  9 43  1  0
 10 44  1  0
 11 45  1  0
 11 46  1  0
 12 47  1  0
 13 48  1  0
 13 49  1  0
 14 50  1  0
 15 51  1  0
 15 52  1  0
 16 53  1  1
 17 54  1  0
 20 55  1  0
 22 56  1  0
 23 57  1  0
 25 58  1  0
 26 59  1  0
 26 60  1  0
 27 61  1  0
 27 62  1  0
 28 63  1  0
 28 64  1  0
 29 65  1  0
 29 66  1  0
 30 67  1  0
 31 68  1  0
 31 69  1  0
 32 70  1  0
 32 71  1  0
 33 72  1  0
 34 73  1  0
 34 74  1  0
 36 75  1  0
M  END
$$$$
[H]c1nc([H])n(C([H])([H])c2c([H])c([H])c3c(C(=O)N([H])c4nc5c([H])c([H])c([H])c([H])c5s4)c(C([H])([H])[H])c([H])c([H])c3c2[H])c1[H]
     RDKit          3D

 47 51  0  0  0  0  0  0  0  0999 V2000
    2.0892   -3.6658    1.3686 C   0  0  0  0  0  0  0  0  0  0  0  0
    0.8220   -2.9620    1.0494 C   0  0  0  0  0  0  0  0  0  0  0  0
   -0.0052   -3.5196    0.0763 C   0  0  0  0  0  0  0  0  0  0  0  0
   -1.1909   -2.9299   -0.2593 C   0  0  0  0  0  0  0  0  0  0  0  0
   -1.5418   -1.7692    0.3936 C   0  0  0  0  0  0  0  0  0  0  0  0
   -2.7391   -1.1788    0.0550 C   0  0  0  0  0  0  0  0  0  0  0  0
   -3.1705   -0.0047    0.6690 C   0  0  0  0  0  0  0  0  0  0  0  0
   -4.4654    0.6232    0.2948 C   0  0  0  0  0  0  0  0  0  0  0  0
   -4.2915    1.5767   -0.7933 N   0  0  0  0  0  0  0  0  0  0  0  0
   -4.3654    1.3386   -2.1215 C   0  0  0  0  0  0  0  0  0  0  0  0
   -4.1357    2.5248   -2.7768 C   0  0  0  0  0  0  0  0  0  0  0  0
   -3.9288    3.4512   -1.8434 N   0  0  0  0  0  0  0  0  0  0  0  0
   -4.0208    2.8883   -0.6407 C   0  0  0  0  0  0  0  0  0  0  0  0
   -2.3379    0.5318    1.6295 C   0  0  0  0  0  0  0  0  0  0  0  0
   -1.1404   -0.0539    1.9716 C   0  0  0  0  0  0  0  0  0  0  0  0
   -0.7240   -1.2177    1.3555 C   0  0  0  0  0  0  0  0  0  0  0  0
    0.4892   -1.8075    1.7087 C   0  0  0  0  0  0  0  0  0  0  0  0
    1.3192   -1.1980    2.7164 C   0  0  0  0  0  0  0  0  0  0  0  0
    1.0835   -1.5497    3.9145 O   0  0  0  0  0  0  0  0  0  0  0  0
    2.3472   -0.2714    2.5362 N   0  0  0  0  0  0  0  0  0  0  0  0
    2.7239    0.2308    1.2385 C   0  0  0  0  0  0  0  0  0  0  0  0
    3.6670    1.0915    0.9308 N   0  0  0  0  0  0  0  0  0  0  0  0
    3.8659    1.4363   -0.3046 C   0  0  0  0  0  0  0  0  0  0  0  0
    4.8391    2.3436   -0.7593 C   0  0  0  0  0  0  0  0  0  0  0  0
    4.9582    2.6314   -2.0813 C   0  0  0  0  0  0  0  0  0  0  0  0
    4.1581    2.0721   -3.0450 C   0  0  0  0  0  0  0  0  0  0  0  0
    3.1997    1.1820   -2.6207 C   0  0  0  0  0  0  0  0  0  0  0  0
    3.0612    0.8719   -1.2589 C   0  0  0  0  0  0  0  0  0  0  0  0
    2.0603   -0.1292   -0.3040 S   0  0  0  0  0  0  0  0  0  0  0  0
    2.9265   -3.3459    0.7129 H   0  0  0  0  0  0  0  0  0  0  0  0
    2.3544   -3.5732    2.4567 H   0  0  0  0  0  0  0  0  0  0  0  0
    1.9669   -4.7599    1.1944 H   0  0  0  0  0  0  0  0  0  0  0  0
    0.2947   -4.4312   -0.4202 H   0  0  0  0  0  0  0  0  0  0  0  0
   -1.8192   -3.3825   -1.0207 H   0  0  0  0  0  0  0  0  0  0  0  0
   -3.4004   -1.5915   -0.6976 H   0  0  0  0  0  0  0  0  0  0  0  0
   -4.8746    1.1275    1.1762 H   0  0  0  0  0  0  0  0  0  0  0  0
   -5.2146   -0.1494   -0.0246 H   0  0  0  0  0  0  0  0  0  0  0  0
   -4.5711    0.3740   -2.5832 H   0  0  0  0  0  0  0  0  0  0  0  0
   -4.1242    2.6804   -3.8407 H   0  0  0  0  0  0  0  0  0  0  0  0
   -3.9042    3.3690    0.3299 H   0  0  0  0  0  0  0  0  0  0  0  0
   -2.6887    1.4511    2.1018 H   0  0  0  0  0  0  0  0  0  0  0  0
   -0.5203    0.3910    2.7217 H   0  0  0  0  0  0  0  0  0  0  0  0
    2.8785    0.0973    3.3442 H   0  0  0  0  0  0  0  0  0  0  0  0
    5.5216    2.8358   -0.0458 H   0  0  0  0  0  0  0  0  0  0  0  0
    5.7312    3.3490   -2.4205 H   0  0  0  0  0  0  0  0  0  0  0  0
    4.2958    2.3344   -4.0684 H   0  0  0  0  0  0  0  0  0  0  0  0
    2.5213    0.6872   -3.2898 H   0  0  0  0  0  0  0  0  0  0  0  0
  1  2  1  0
  2  3  2  0
  3  4  1  0
  4  5  2  0
  5  6  1  0
  6  7  2  0
  7  8  1  0
  8  9  1  0
  9 10  1  0
 10 11  2  0
 11 12  1  0
 12 13  2  0
  7 14  1  0
 14 15  2  0
 15 16  1  0
 16 17  2  0
 17 18  1  0
 18 19  2  0
 18 20  1  0
 20 21  1  0
 21 22  2  0
 22 23  1  0
 23 24  2  0
 24 25  1  0
 25 26  2  0
 26 27  1  0
 27 28  2  0
 28 29  1  0
 17  2  1  0
 29 21  1  0
 16  5  1  0
 28 23  1  0
 13  9  1  0
  1 30  1  0
  1 31  1  0
  1 32  1  0
  3 33  1  0
  4 34  1  0
  6 35  1  0
  8 36  1  0
  8 37  1  0
 10 38  1  0
 11 39  1  0
 13 40  1  0
 14 41  1  0
 15 42  1  0
 20 43  1  0
 24 44  1  0
 25 45  1  0
 26 46  1  0
 27 47  1  0
M  END
$$$$
[H]Oc1c([H])c([H])c(C2([H])C([H])([H])N(C([H])([H])c3c([H])c([H])c([H])c4c3c([H])c([H])n4[H])C2([H])[H])c([H])c1[H]
     RDKit          3D

 39 42  0  0  0  0  0  0  0  0999 V2000
    7.0528    0.9160   -0.2930 O   0  0  0  0  0  0  0  0  0  0  0  0
    5.6786    0.6227   -0.2714 C   0  0  0  0  0  0  0  0  0  0  0  0
    4.9800    0.3991   -1.4396 C   0  0  0  0  0  0  0  0  0  0  0  0
    3.6311    0.1127   -1.3955 C   0  0  0  0  0  0  0  0  0  0  0  0
    2.9308    0.0373   -0.2140 C   0  0  0  0  0  0  0  0  0  0  0  0
    3.6123    0.2567    0.9448 C   0  0  0  0  0  0  0  0  0  0  0  0
    4.9781    0.5475    0.9141 C   0  0  0  0  0  0  0  0  0  0  0  0
    1.4829   -0.2767   -0.2786 C   0  0  0  0  0  0  0  0  0  0  0  0
    1.1277   -1.3458    0.7105 C   0  0  0  0  0  0  0  0  0  0  0  0
   -0.0998   -0.6250    0.9983 N   0  0  0  0  0  0  0  0  0  0  0  0
   -1.1221   -1.0084    0.0623 C   0  0  0  0  0  0  0  0  0  0  0  0
   -2.3750   -0.2829    0.3730 C   0  0  0  0  0  0  0  0  0  0  0  0
   -2.4417    0.5954    1.4257 C   0  0  0  0  0  0  0  0  0  0  0  0
   -3.5939    1.2811    1.7385 C   0  0  0  0  0  0  0  0  0  0  0  0
   -4.7258    1.0911    0.9805 C   0  0  0  0  0  0  0  0  0  0  0  0
   -4.6781    0.2060   -0.0891 C   0  0  0  0  0  0  0  0  0  0  0  0
   -5.6416   -0.1314   -0.9510 N   0  0  0  0  0  0  0  0  0  0  0  0
   -5.1242   -1.0302   -1.8203 C   0  0  0  0  0  0  0  0  0  0  0  0
   -3.7868   -1.2595   -1.4846 C   0  0  0  0  0  0  0  0  0  0  0  0
   -3.5252   -0.4689   -0.3884 C   0  0  0  0  0  0  0  0  0  0  0  0
    0.6007    0.5935    0.5612 C   0  0  0  0  0  0  0  0  0  0  0  0
    7.3667    1.8964   -0.3561 H   0  0  0  0  0  0  0  0  0  0  0  0
    5.5174    0.4549   -2.3791 H   0  0  0  0  0  0  0  0  0  0  0  0
    3.1309   -0.0556   -2.3624 H   0  0  0  0  0  0  0  0  0  0  0  0
    3.0926    0.2052    1.8887 H   0  0  0  0  0  0  0  0  0  0  0  0
    5.5277    0.7234    1.8324 H   0  0  0  0  0  0  0  0  0  0  0  0
    1.1123   -0.4106   -1.2984 H   0  0  0  0  0  0  0  0  0  0  0  0
    0.9491   -2.3571    0.2727 H   0  0  0  0  0  0  0  0  0  0  0  0
    1.8302   -1.3621    1.5670 H   0  0  0  0  0  0  0  0  0  0  0  0
   -0.8662   -0.7803   -0.9977 H   0  0  0  0  0  0  0  0  0  0  0  0
   -1.3542   -2.0925    0.1007 H   0  0  0  0  0  0  0  0  0  0  0  0
   -1.5908    0.7881    2.0597 H   0  0  0  0  0  0  0  0  0  0  0  0
   -3.6284    1.9621    2.5625 H   0  0  0  0  0  0  0  0  0  0  0  0
   -5.6179    1.6383    1.2429 H   0  0  0  0  0  0  0  0  0  0  0  0
   -6.6332    0.1969   -1.0047 H   0  0  0  0  0  0  0  0  0  0  0  0
   -5.6669   -1.4784   -2.6243 H   0  0  0  0  0  0  0  0  0  0  0  0
   -3.1012   -1.9186   -1.9805 H   0  0  0  0  0  0  0  0  0  0  0  0
    1.1032    1.1361    1.3903 H   0  0  0  0  0  0  0  0  0  0  0  0
   -0.1318    1.2234    0.0030 H   0  0  0  0  0  0  0  0  0  0  0  0
  1  2  1  0
  2  3  2  0
  3  4  1  0
  4  5  2  0
  5  6  1  0
  6  7  2  0
  5  8  1  0
  8  9  1  0
  9 10  1  0
 10 11  1  0
 11 12  1  0
 12 13  2  0
 13 14  1  0
 14 15  2  0
 15 16  1  0
 16 17  1  0
 17 18  1  0
 18 19  2  0
 19 20  1  0
 10 21  1  0
  7  2  1  0
 21  8  1  0
 20 12  1  0
 20 16  2  0
  1 22  1  0
  3 23  1  0
  4 24  1  0
  6 25  1  0
  7 26  1  0
  8 27  1  0
  9 28  1  0
  9 29  1  0
 11 30  1  0
 11 31  1  0
 13 32  1  0
 14 33  1  0
 15 34  1  0
 17 35  1  0
 18 36  1  0
 19 37  1  0
 21 38  1  0
 21 39  1  0
M  END
$$$$
