[H]c1c([H])c(C([H])([H])[H])c([H])c([H])c1C(=O)N(C([H])([H])c1c([H])c([H])c([N+](=O)[O-])c([H])c1[H])C([H])([H])c1c([H])c([H])c([C@]([H])(N([H])[H])C([H])([H])C([H])([H])C([H])([H])N=C(N([H])[H])N([H])[H])c([H])c1[H]
     RDKit          3D

 68 70  0  0  0  0  0  0  0  0999 V2000
   -6.3057   -4.6495   -1.3693 C   0  0  0  0  0  0  0  0  0  0  0  0
   -5.3582   -3.6274   -0.8573 C   0  0  0  0  0  0  0  0  0  0  0  0
   -4.5089   -3.9861    0.1586 C   0  0  0  0  0  0  0  0  0  0  0  0
   -3.6462   -3.0233    0.6111 C   0  0  0  0  0  0  0  0  0  0  0  0
   -3.5745   -1.7145    0.1124 C   0  0  0  0  0  0  0  0  0  0  0  0
   -4.4536   -1.4222   -0.9046 C   0  0  0  0  0  0  0  0  0  0  0  0
   -5.3385   -2.3650   -1.3885 C   0  0  0  0  0  0  0  0  0  0  0  0
   -2.6160   -0.7925    0.6906 C   0  0  0  0  0  0  0  0  0  0  0  0
   -1.9326   -1.3326    1.6780 O   0  0  0  0  0  0  0  0  0  0  0  0
   -2.3019    0.5260    0.3915 N   0  0  0  0  0  0  0  0  0  0  0  0
   -1.2289    1.1287    1.2599 C   0  0  0  0  0  0  0  0  0  0  0  0
    0.0991    0.8767    0.6321 C   0  0  0  0  0  0  0  0  0  0  0  0
    1.2521    1.3373    1.2616 C   0  0  0  0  0  0  0  0  0  0  0  0
    2.5106    1.1402    0.7372 C   0  0  0  0  0  0  0  0  0  0  0  0
    2.5964    0.4521   -0.4664 C   0  0  0  0  0  0  0  0  0  0  0  0
    1.4510   -0.0047   -1.0905 C   0  0  0  0  0  0  0  0  0  0  0  0
    0.1841    0.1937   -0.5626 C   0  0  0  0  0  0  0  0  0  0  0  0
    3.8792    0.1850   -1.1187 C   0  0  2  0  0  0  0  0  0  0  0  0
    3.9114   -1.1847   -1.5562 N   0  0  0  0  0  0  0  0  0  0  0  0
    5.0705    0.5503   -0.2704 C   0  0  0  0  0  0  0  0  0  0  0  0
    6.3448    0.2383   -1.0283 C   0  0  0  0  0  0  0  0  0  0  0  0
    7.5723    0.5908   -0.2195 C   0  0  0  0  0  0  0  0  0  0  0  0
    7.6497   -0.1205    1.0151 N   0  0  0  0  0  0  0  0  0  0  0  0
    8.4706   -1.0985    1.1881 C   0  0  0  0  0  0  0  0  0  0  0  0
    9.3170   -1.4731    0.1191 N   0  0  0  0  0  0  0  0  0  0  0  0
    8.5614   -1.8165    2.4091 N   0  0  0  0  0  0  0  0  0  0  0  0
   -2.7843    1.4404   -0.5775 C   0  0  0  0  0  0  0  0  0  0  0  0
   -3.9362    2.2020    0.0209 C   0  0  0  0  0  0  0  0  0  0  0  0
   -4.5850    3.1835   -0.7002 C   0  0  0  0  0  0  0  0  0  0  0  0
   -5.6396    3.8814   -0.1520 C   0  0  0  0  0  0  0  0  0  0  0  0
   -6.0939    3.6343    1.1338 C   0  0  0  0  0  0  0  0  0  0  0  0
   -5.4384    2.6539    1.8405 C   0  0  0  0  0  0  0  0  0  0  0  0
   -4.3845    1.9526    1.3000 C   0  0  0  0  0  0  0  0  0  0  0  0
   -7.1828    4.3667    1.6777 N   0  0  0  0  0  0  0  0  0  0  0  0
   -7.8289    5.3401    0.9695 O   0  0  0  0  0  0  0  0  0  0  0  0
   -7.5564    4.1113    2.8338 O   0  0  0  0  0  0  0  0  0  0  0  0
   -5.7442   -5.2783   -2.0954 H   0  0  0  0  0  0  0  0  0  0  0  0
   -6.6202   -5.2805   -0.5263 H   0  0  0  0  0  0  0  0  0  0  0  0
   -7.2106   -4.2104   -1.8196 H   0  0  0  0  0  0  0  0  0  0  0  0
   -4.5144   -4.9973    0.5941 H   0  0  0  0  0  0  0  0  0  0  0  0
   -2.9798   -3.3068    1.4077 H   0  0  0  0  0  0  0  0  0  0  0  0
   -4.4764   -0.4561   -1.3427 H   0  0  0  0  0  0  0  0  0  0  0  0
   -6.0375   -2.1071   -2.2088 H   0  0  0  0  0  0  0  0  0  0  0  0
   -1.2823    0.6073    2.2216 H   0  0  0  0  0  0  0  0  0  0  0  0
   -1.4154    2.1885    1.4279 H   0  0  0  0  0  0  0  0  0  0  0  0
    1.1893    1.8828    2.2153 H   0  0  0  0  0  0  0  0  0  0  0  0
    3.4166    1.4907    1.2129 H   0  0  0  0  0  0  0  0  0  0  0  0
    1.5010   -0.5517   -2.0445 H   0  0  0  0  0  0  0  0  0  0  0  0
   -0.7075   -0.1689   -1.0618 H   0  0  0  0  0  0  0  0  0  0  0  0
    3.9149    0.8205   -2.0469 H   0  0  0  0  0  0  0  0  0  0  0  0
    4.6914   -1.4325   -2.1739 H   0  0  0  0  0  0  0  0  0  0  0  0
    3.7638   -1.8501   -0.7671 H   0  0  0  0  0  0  0  0  0  0  0  0
    5.0074   -0.0557    0.6536 H   0  0  0  0  0  0  0  0  0  0  0  0
    5.1056    1.6024    0.0022 H   0  0  0  0  0  0  0  0  0  0  0  0
    6.3993   -0.8527   -1.2265 H   0  0  0  0  0  0  0  0  0  0  0  0
    6.3616    0.7585   -2.0035 H   0  0  0  0  0  0  0  0  0  0  0  0
    8.4845    0.4418   -0.8139 H   0  0  0  0  0  0  0  0  0  0  0  0
    7.5153    1.6977   -0.0123 H   0  0  0  0  0  0  0  0  0  0  0  0
   10.3118   -1.1714    0.1337 H   0  0  0  0  0  0  0  0  0  0  0  0
    8.9091   -2.0413   -0.6484 H   0  0  0  0  0  0  0  0  0  0  0  0
    7.7607   -2.1163    2.9781 H   0  0  0  0  0  0  0  0  0  0  0  0
    9.5160   -2.0573    2.7532 H   0  0  0  0  0  0  0  0  0  0  0  0
   -2.9460    1.0977   -1.5904 H   0  0  0  0  0  0  0  0  0  0  0  0
   -2.0021    2.2776   -0.7197 H   0  0  0  0  0  0  0  0  0  0  0  0
   -4.2428    3.3987   -1.7242 H   0  0  0  0  0  0  0  0  0  0  0  0
   -6.1232    4.6345   -0.7302 H   0  0  0  0  0  0  0  0  0  0  0  0
   -5.8006    2.4616    2.8567 H   0  0  0  0  0  0  0  0  0  0  0  0
   -3.9206    1.2000    1.9125 H   0  0  0  0  0  0  0  0  0  0  0  0
  1  2  1  0
  2  3  2  0
  3  4  1  0
  4  5  2  0
  5  6  1  0
  6  7  2  0
  5  8  1  0
  8  9  2  0
  8 10  1  0
 10 11  1  0
 11 12  1  0
 12 13  2  0
 13 14  1  0
 14 15  2  0
 15 16  1  0
 16 17  2  0
 15 18  1  0
 18 19  1  0
 18 20  1  0
 20 21  1  0
 21 22  1  0
 22 23  1  0
 23 24  2  3
 24 25  1  0
 24 26  1  0
 10 27  1  0
 27 28  1  0
 28 29  2  0
 29 30  1  0
 30 31  2  0
 31 32  1  0
 32 33  2  0
 31 34  1  0
 34 35  1  0
 34 36  2  0
  7  2  1  0
 17 12  1  0
 33 28  1  0
  1 37  1  0
  1 38  1  0
  1 39  1  0
  3 40  1  0
  4 41  1  0
  6 42  1  0
  7 43  1  0
 11 44  1  0
 11 45  1  0
 13 46  1  0
 14 47  1  0
 16 48  1  0
 17 49  1  0
 18 50  1  6
 19 51  1  0
 19 52  1  0
 20 53  1  0
 20 54  1  0
 21 55  1  0
 21 56  1  0
 22 57  1  0
 22 58  1  0
 25 59  1  0
 25 60  1  0
 26 61  1  0
 26 62  1  0
 27 63  1  0
 27 64  1  0
 29 65  1  0
 30 66  1  0
 32 67  1  0
 33 68  1  0
M  CHG  2  34   1  35  -1
M  END
$$$$
[H]OC([H])([H])[C@@]1([H])N(C(=O)[C@@]([H])(N([H])C(=O)c2c([H])c([H])c([H])c([H])c2C(F)(F)F)C([H])([H])c2c([H])c([H])c([H])c(C(F)(F)F)c2[H])C([H])([H])SC([H])([H])[C@@]1([H])O[H]
     RDKit          3D

 58 60  0  0  0  0  0  0  0  0999 V2000
    5.7640   -2.2128    2.7569 F   0  0  0  0  0  0  0  0  0  0  0  0
    4.6788   -1.5724    2.1391 C   0  0  0  0  0  0  0  0  0  0  0  0
    3.5834   -1.9377    2.8393 F   0  0  0  0  0  0  0  0  0  0  0  0
    5.0052   -0.2303    2.2041 F   0  0  0  0  0  0  0  0  0  0  0  0
    4.6718   -1.9767    0.7153 C   0  0  0  0  0  0  0  0  0  0  0  0
    5.7066   -2.7927    0.2887 C   0  0  0  0  0  0  0  0  0  0  0  0
    5.8349   -3.2187   -1.0089 C   0  0  0  0  0  0  0  0  0  0  0  0
    4.9232   -2.8418   -1.9574 C   0  0  0  0  0  0  0  0  0  0  0  0
    3.8965   -2.0331   -1.5295 C   0  0  0  0  0  0  0  0  0  0  0  0
    3.7403   -1.5895   -0.2184 C   0  0  0  0  0  0  0  0  0  0  0  0
    2.6107   -0.7744    0.1136 C   0  0  0  0  0  0  0  0  0  0  0  0
    2.6764    0.0944    0.9986 O   0  0  0  0  0  0  0  0  0  0  0  0
    1.3540   -0.9391   -0.5799 N   0  0  0  0  0  0  0  0  0  0  0  0
    0.2380    0.0057   -0.0899 C   0  0  1  0  0  0  0  0  0  0  0  0
    0.5472    1.2445   -0.8208 C   0  0  0  0  0  0  0  0  0  0  0  0
   -0.1466    2.5060   -0.7448 C   0  0  0  0  0  0  0  0  0  0  0  0
   -1.0692    2.9391   -1.6879 C   0  0  0  0  0  0  0  0  0  0  0  0
   -1.6529    4.1888   -1.6836 C   0  0  0  0  0  0  0  0  0  0  0  0
   -1.3155    5.0830   -0.6958 C   0  0  0  0  0  0  0  0  0  0  0  0
   -0.3944    4.6989    0.2799 C   0  0  0  0  0  0  0  0  0  0  0  0
    0.1729    3.4425    0.2542 C   0  0  0  0  0  0  0  0  0  0  0  0
   -0.0554    5.7044    1.3077 C   0  0  0  0  0  0  0  0  0  0  0  0
    0.6485    6.7302    0.6589 F   0  0  0  0  0  0  0  0  0  0  0  0
    0.7432    5.2448    2.3123 F   0  0  0  0  0  0  0  0  0  0  0  0
   -1.2355    6.2867    1.7832 F   0  0  0  0  0  0  0  0  0  0  0  0
   -0.9563   -0.6950   -0.4965 C   0  0  0  0  0  0  0  0  0  0  0  0
   -1.0013   -1.0498   -1.7288 O   0  0  0  0  0  0  0  0  0  0  0  0
   -2.0548   -1.0452    0.3168 N   0  0  0  0  0  0  0  0  0  0  0  0
   -2.0050   -0.7060    1.7438 C   0  0  0  0  0  0  0  0  0  0  0  0
   -3.1687   -1.6976    2.7224 S   0  0  0  0  0  0  0  0  0  0  0  0
   -4.7127   -1.9967    1.8066 C   0  0  0  0  0  0  0  0  0  0  0  0
   -4.5126   -1.2521    0.4735 C   0  0  1  0  0  0  0  0  0  0  0  0
   -4.3943    0.0921    0.7927 O   0  0  0  0  0  0  0  0  0  0  0  0
   -3.2005   -1.7689   -0.0924 C   0  0  1  0  0  0  0  0  0  0  0  0
   -3.4078   -2.0017   -1.5478 C   0  0  0  0  0  0  0  0  0  0  0  0
   -4.6426   -2.7119   -1.6329 O   0  0  0  0  0  0  0  0  0  0  0  0
    6.4864   -3.1413    0.9850 H   0  0  0  0  0  0  0  0  0  0  0  0
    6.6621   -3.8638   -1.2836 H   0  0  0  0  0  0  0  0  0  0  0  0
    4.9892   -3.1627   -3.0063 H   0  0  0  0  0  0  0  0  0  0  0  0
    3.1629   -1.7089   -2.2799 H   0  0  0  0  0  0  0  0  0  0  0  0
    1.2321   -1.6115   -1.2981 H   0  0  0  0  0  0  0  0  0  0  0  0
    0.4517    0.1611    0.9596 H   0  0  0  0  0  0  0  0  0  0  0  0
    0.5347    0.9792   -1.9674 H   0  0  0  0  0  0  0  0  0  0  0  0
    1.6725    1.4893   -0.7442 H   0  0  0  0  0  0  0  0  0  0  0  0
   -1.3436    2.2513   -2.4834 H   0  0  0  0  0  0  0  0  0  0  0  0
   -2.3737    4.4813   -2.4637 H   0  0  0  0  0  0  0  0  0  0  0  0
   -1.7541    6.0726   -0.6683 H   0  0  0  0  0  0  0  0  0  0  0  0
    0.8628    3.1623    1.0018 H   0  0  0  0  0  0  0  0  0  0  0  0
   -2.2142    0.3410    1.9006 H   0  0  0  0  0  0  0  0  0  0  0  0
   -0.9985   -0.9314    2.1852 H   0  0  0  0  0  0  0  0  0  0  0  0
   -4.7749   -3.0683    1.5624 H   0  0  0  0  0  0  0  0  0  0  0  0
   -5.5503   -1.6088    2.3837 H   0  0  0  0  0  0  0  0  0  0  0  0
   -5.3729   -1.4496   -0.2034 H   0  0  0  0  0  0  0  0  0  0  0  0
   -4.6103    0.2896    1.7342 H   0  0  0  0  0  0  0  0  0  0  0  0
   -3.0391   -2.8224    0.3333 H   0  0  0  0  0  0  0  0  0  0  0  0
   -3.5369   -1.1169   -2.1792 H   0  0  0  0  0  0  0  0  0  0  0  0
   -2.6868   -2.7607   -1.9745 H   0  0  0  0  0  0  0  0  0  0  0  0
   -4.6684   -3.1981   -2.4861 H   0  0  0  0  0  0  0  0  0  0  0  0
  1  2  1  0
  2  3  1  0
  2  4  1  0
  2  5  1  0
  5  6  2  0
  6  7  1  0
  7  8  2  0
  8  9  1  0
  9 10  2  0
 10 11  1  0
 11 12  2  0
 11 13  1  0
 13 14  1  0
 14 15  1  0
 15 16  1  0
 16 17  2  0
 17 18  1  0
 18 19  2  0
 19 20  1  0
 20 21  2  0
 20 22  1  0
 22 23  1  0
 22 24  1  0
 22 25  1  0
 14 26  1  0
 26 27  2  0
 26 28  1  0
 28 29  1  0
 29 30  1  0
 30 31  1  0
 31 32  1  0
 32 33  1  0
 32 34  1  0
 34 35  1  0
 35 36  1  0
 10  5  1  0
 21 16  1  0
 34 28  1  0
  6 37  1  0
  7 38  1  0
  8 39  1  0
  9 40  1  0
 13 41  1  0
 14 42  1  1
 15 43  1  0
 15 44  1  0
 17 45  1  0
 18 46  1  0
 19 47  1  0
 21 48  1  0
 29 49  1  0
 29 50  1  0
 31 51  1  0
 31 52  1  0
 32 53  1  6
 33 54  1  0
 34 55  1  1
 35 56  1  0
 35 57  1  0
 36 58  1  0
M  END
$$$$
[H]OC1([H])C([H])([H])C([H])([H])N(C(=O)C([H])([H])N([H])C([H])([H])c2c([H])c([H])c([H])c(-c3c([H])c(C#N)n(-c4c([H])c([H])c(OC([H])([H])[H])c([H])c4[H])c3C(=O)N([H])[H])c2[H])C([H])([H])C1([H])[H]
     RDKit          3D

 65 68  0  0  0  0  0  0  0  0999 V2000
  -10.3734    2.0253   -0.4688 C   0  0  0  0  0  0  0  0  0  0  0  0
   -9.1949    2.3086   -1.1798 O   0  0  0  0  0  0  0  0  0  0  0  0
   -7.9349    1.9141   -0.7405 C   0  0  0  0  0  0  0  0  0  0  0  0
   -6.8044    2.2112   -1.4662 C   0  0  0  0  0  0  0  0  0  0  0  0
   -5.5506    1.8260   -1.0422 C   0  0  0  0  0  0  0  0  0  0  0  0
   -5.3619    1.1273    0.1236 C   0  0  0  0  0  0  0  0  0  0  0  0
   -6.5112    0.8252    0.8613 C   0  0  0  0  0  0  0  0  0  0  0  0
   -7.7671    1.2085    0.4404 C   0  0  0  0  0  0  0  0  0  0  0  0
   -4.0873    0.7192    0.5815 N   0  0  0  0  0  0  0  0  0  0  0  0
   -3.5140   -0.4749    0.2494 C   0  0  0  0  0  0  0  0  0  0  0  0
   -4.1304   -1.4431   -0.6170 C   0  0  0  0  0  0  0  0  0  0  0  0
   -3.4880   -2.6183   -1.0535 N   0  0  0  0  0  0  0  0  0  0  0  0
   -5.3226   -1.2901   -1.0542 O   0  0  0  0  0  0  0  0  0  0  0  0
   -2.2961   -0.5537    0.8563 C   0  0  0  0  0  0  0  0  0  0  0  0
   -2.1040    0.6308    1.5882 C   0  0  0  0  0  0  0  0  0  0  0  0
   -3.2254    1.3709    1.3863 C   0  0  0  0  0  0  0  0  0  0  0  0
   -3.5053    2.6788    1.9337 C   0  0  0  0  0  0  0  0  0  0  0  0
   -3.7302    3.7167    2.3829 N   0  0  0  0  0  0  0  0  0  0  0  0
   -1.2919   -1.6167    0.8828 C   0  0  0  0  0  0  0  0  0  0  0  0
   -1.5618   -2.8761    1.3634 C   0  0  0  0  0  0  0  0  0  0  0  0
   -0.5622   -3.8180    1.3419 C   0  0  0  0  0  0  0  0  0  0  0  0
    0.7086   -3.5398    0.8515 C   0  0  0  0  0  0  0  0  0  0  0  0
    0.9946   -2.2899    0.3691 C   0  0  0  0  0  0  0  0  0  0  0  0
    2.3631   -2.0025   -0.1573 C   0  0  0  0  0  0  0  0  0  0  0  0
    3.1631   -1.6264    0.9769 N   0  0  0  0  0  0  0  0  0  0  0  0
    4.5212   -1.3072    0.6927 C   0  0  0  0  0  0  0  0  0  0  0  0
    4.6898   -0.0447   -0.0413 C   0  0  0  0  0  0  0  0  0  0  0  0
    3.7007    0.6601   -0.3504 O   0  0  0  0  0  0  0  0  0  0  0  0
    5.9916    0.3890   -0.4092 N   0  0  0  0  0  0  0  0  0  0  0  0
    7.1176   -0.4302   -0.0507 C   0  0  0  0  0  0  0  0  0  0  0  0
    8.4275    0.2853   -0.0481 C   0  0  0  0  0  0  0  0  0  0  0  0
    8.5324    1.4001   -1.0402 C   0  0  0  0  0  0  0  0  0  0  0  0
    8.4876    0.9544   -2.3605 O   0  0  0  0  0  0  0  0  0  0  0  0
    7.3931    2.3631   -0.7804 C   0  0  0  0  0  0  0  0  0  0  0  0
    6.1160    1.6400   -1.1288 C   0  0  0  0  0  0  0  0  0  0  0  0
   -0.0030   -1.3546    0.3920 C   0  0  0  0  0  0  0  0  0  0  0  0
  -11.2170    2.0913   -1.1953 H   0  0  0  0  0  0  0  0  0  0  0  0
  -10.3815    0.9908   -0.0555 H   0  0  0  0  0  0  0  0  0  0  0  0
  -10.5464    2.7845    0.2975 H   0  0  0  0  0  0  0  0  0  0  0  0
   -6.9395    2.7705   -2.4018 H   0  0  0  0  0  0  0  0  0  0  0  0
   -4.6792    2.0831   -1.6480 H   0  0  0  0  0  0  0  0  0  0  0  0
   -6.3386    0.2743    1.7756 H   0  0  0  0  0  0  0  0  0  0  0  0
   -8.6274    0.9622    1.0267 H   0  0  0  0  0  0  0  0  0  0  0  0
   -3.7752   -3.5853   -0.7571 H   0  0  0  0  0  0  0  0  0  0  0  0
   -2.6608   -2.5924   -1.7202 H   0  0  0  0  0  0  0  0  0  0  0  0
   -1.2357    0.8761    2.1789 H   0  0  0  0  0  0  0  0  0  0  0  0
   -2.5221   -3.1355    1.7558 H   0  0  0  0  0  0  0  0  0  0  0  0
   -0.7445   -4.8349    1.7185 H   0  0  0  0  0  0  0  0  0  0  0  0
    1.4890   -4.3004    0.8422 H   0  0  0  0  0  0  0  0  0  0  0  0
    2.7637   -2.9329   -0.6260 H   0  0  0  0  0  0  0  0  0  0  0  0
    2.2920   -1.1829   -0.8645 H   0  0  0  0  0  0  0  0  0  0  0  0
    2.6714   -0.8938    1.5152 H   0  0  0  0  0  0  0  0  0  0  0  0
    5.0571   -1.2600    1.6704 H   0  0  0  0  0  0  0  0  0  0  0  0
    5.0248   -2.1204    0.0911 H   0  0  0  0  0  0  0  0  0  0  0  0
    6.9448   -0.8125    0.9939 H   0  0  0  0  0  0  0  0  0  0  0  0
    7.1561   -1.3651   -0.6824 H   0  0  0  0  0  0  0  0  0  0  0  0
    8.6152    0.7245    0.9610 H   0  0  0  0  0  0  0  0  0  0  0  0
    9.2172   -0.4783   -0.3100 H   0  0  0  0  0  0  0  0  0  0  0  0
    9.4759    1.9485   -0.8380 H   0  0  0  0  0  0  0  0  0  0  0  0
    8.5661    1.7609   -2.9280 H   0  0  0  0  0  0  0  0  0  0  0  0
    7.4691    3.2489   -1.4346 H   0  0  0  0  0  0  0  0  0  0  0  0
    7.4185    2.6849    0.2709 H   0  0  0  0  0  0  0  0  0  0  0  0
    6.1367    1.3973   -2.2103 H   0  0  0  0  0  0  0  0  0  0  0  0
    5.2540    2.2894   -0.8826 H   0  0  0  0  0  0  0  0  0  0  0  0
    0.2300   -0.3611    0.0063 H   0  0  0  0  0  0  0  0  0  0  0  0
  1  2  1  0
  2  3  1  0
  3  4  2  0
  4  5  1  0
  5  6  2  0
  6  7  1  0
  7  8  2  0
  6  9  1  0
  9 10  1  0
 10 11  1  0
 11 12  1  0
 11 13  2  0
 10 14  2  0
 14 15  1  0
 15 16  2  0
 16 17  1  0
 17 18  3  0
 14 19  1  0
 19 20  2  0
 20 21  1  0
 21 22  2  0
 22 23  1  0
 23 24  1  0
 24 25  1  0
 25 26  1  0
 26 27  1  0
 27 28  2  0
 27 29  1  0
 29 30  1  0
 30 31  1  0
 31 32  1  0
 32 33  1  0
 32 34  1  0
 34 35  1  0
 23 36  2  0
  8  3  1  0
 16  9  1  0
 36 19  1  0
 35 29  1  0
  1 37  1  0
  1 38  1  0
  1 39  1  0
  4 40  1  0
  5 41  1  0
  7 42  1  0
  8 43  1  0
 12 44  1  0
 12 45  1  0
 15 46  1  0
 20 47  1  0
 21 48  1  0
 22 49  1  0
 24 50  1  0
 24 51  1  0
 25 52  1  0
 26 53  1  0
 26 54  1  0
 30 55  1  0
 30 56  1  0
 31 57  1  0
 31 58  1  0
 32 59  1  0
 33 60  1  0
 34 61  1  0
 34 62  1  0
 35 63  1  0
 35 64  1  0
 36 65  1  0
M  END
$$$$
[H]OC(c1nc(C(=O)N([H])[C@]([H])(c2c([H])c([H])c(OC([H])(F)F)c([H])c2[H])C([H])([H])[H])c(OC2([H])C([H])([H])C2([H])[H])c([H])c1-c1nc([H])c([H])c(C([H])(F)F)c1[H])(C([H])([H])[H])C([H])([H])[H]
     RDKit          3D

 65 68  0  0  0  0  0  0  0  0999 V2000
    2.3756   -3.2903   -2.7644 C   0  0  0  0  0  0  0  0  0  0  0  0
    2.6294   -2.4389   -1.5529 C   0  0  2  0  0  0  0  0  0  0  0  0
    1.5129   -1.6007   -1.2756 N   0  0  0  0  0  0  0  0  0  0  0  0
    0.8043   -1.6735   -0.0293 C   0  0  0  0  0  0  0  0  0  0  0  0
    1.1842   -2.4829    0.8065 O   0  0  0  0  0  0  0  0  0  0  0  0
   -0.3460   -0.7787    0.2030 C   0  0  0  0  0  0  0  0  0  0  0  0
   -0.7965   -0.0645   -0.8248 N   0  0  0  0  0  0  0  0  0  0  0  0
   -1.8399    0.8291   -0.7745 C   0  0  0  0  0  0  0  0  0  0  0  0
   -2.4320    0.9697    0.4234 C   0  0  0  0  0  0  0  0  0  0  0  0
   -1.9940    0.2414    1.5363 C   0  0  0  0  0  0  0  0  0  0  0  0
   -0.9088   -0.6776    1.4523 C   0  0  0  0  0  0  0  0  0  0  0  0
   -0.5565   -1.3193    2.5357 O   0  0  0  0  0  0  0  0  0  0  0  0
   -0.1172   -2.0206    3.5403 C   0  0  0  0  0  0  0  0  0  0  0  0
   -0.1998   -1.5094    4.9860 C   0  0  0  0  0  0  0  0  0  0  0  0
   -1.1180   -2.5934    4.5256 C   0  0  0  0  0  0  0  0  0  0  0  0
   -3.5975    1.7812    0.6486 C   0  0  0  0  0  0  0  0  0  0  0  0
   -4.4743    1.3916    1.6661 C   0  0  0  0  0  0  0  0  0  0  0  0
   -5.6222    2.1159    1.8850 C   0  0  0  0  0  0  0  0  0  0  0  0
   -5.9199    3.2150    1.1190 C   0  0  0  0  0  0  0  0  0  0  0  0
   -5.0250    3.5628    0.1243 C   0  0  0  0  0  0  0  0  0  0  0  0
   -3.9378    2.8166   -0.0281 N   0  0  0  0  0  0  0  0  0  0  0  0
   -6.6015    1.7553    2.9485 C   0  0  0  0  0  0  0  0  0  0  0  0
   -6.7835    2.8039    3.8466 F   0  0  0  0  0  0  0  0  0  0  0  0
   -7.8307    1.5521    2.3507 F   0  0  0  0  0  0  0  0  0  0  0  0
   -2.1486    1.5126   -1.9958 C   0  0  0  0  0  0  0  0  0  0  0  0
   -1.8054    2.9690   -2.1246 C   0  0  0  0  0  0  0  0  0  0  0  0
   -3.4831    1.1596   -2.5782 C   0  0  0  0  0  0  0  0  0  0  0  0
   -1.2224    0.9340   -2.9804 O   0  0  0  0  0  0  0  0  0  0  0  0
    3.8966   -1.6939   -1.8136 C   0  0  0  0  0  0  0  0  0  0  0  0
    5.1067   -2.0757   -1.2830 C   0  0  0  0  0  0  0  0  0  0  0  0
    6.2941   -1.3753   -1.5338 C   0  0  0  0  0  0  0  0  0  0  0  0
    6.2827   -0.2620   -2.3353 C   0  0  0  0  0  0  0  0  0  0  0  0
    7.4197    0.4647   -2.6159 O   0  0  0  0  0  0  0  0  0  0  0  0
    8.7140    0.2288   -2.1729 C   0  0  0  0  0  0  0  0  0  0  0  0
    9.5620    0.1598   -3.2900 F   0  0  0  0  0  0  0  0  0  0  0  0
    9.1430    1.3581   -1.4688 F   0  0  0  0  0  0  0  0  0  0  0  0
    5.0492    0.1248   -2.8749 C   0  0  0  0  0  0  0  0  0  0  0  0
    3.8929   -0.5811   -2.6130 C   0  0  0  0  0  0  0  0  0  0  0  0
    1.9204   -4.2849   -2.5236 H   0  0  0  0  0  0  0  0  0  0  0  0
    1.7147   -2.7582   -3.4637 H   0  0  0  0  0  0  0  0  0  0  0  0
    3.3431   -3.5063   -3.2979 H   0  0  0  0  0  0  0  0  0  0  0  0
    2.8317   -3.1407   -0.6926 H   0  0  0  0  0  0  0  0  0  0  0  0
    1.1958   -0.9240   -1.9695 H   0  0  0  0  0  0  0  0  0  0  0  0
   -2.4236    0.3339    2.5119 H   0  0  0  0  0  0  0  0  0  0  0  0
    0.7862   -2.7020    3.4471 H   0  0  0  0  0  0  0  0  0  0  0  0
   -0.5889   -0.4677    5.0254 H   0  0  0  0  0  0  0  0  0  0  0  0
    0.5712   -1.8073    5.7025 H   0  0  0  0  0  0  0  0  0  0  0  0
   -0.9853   -3.6296    4.8342 H   0  0  0  0  0  0  0  0  0  0  0  0
   -2.1834   -2.2925    4.4320 H   0  0  0  0  0  0  0  0  0  0  0  0
   -4.3019    0.5209    2.2988 H   0  0  0  0  0  0  0  0  0  0  0  0
   -6.7977    3.8268    1.2346 H   0  0  0  0  0  0  0  0  0  0  0  0
   -5.2079    4.4340   -0.5226 H   0  0  0  0  0  0  0  0  0  0  0  0
   -6.2804    0.8290    3.4631 H   0  0  0  0  0  0  0  0  0  0  0  0
   -1.3064    3.3648   -1.2293 H   0  0  0  0  0  0  0  0  0  0  0  0
   -0.9966    3.0662   -2.9178 H   0  0  0  0  0  0  0  0  0  0  0  0
   -2.6095    3.6034   -2.5479 H   0  0  0  0  0  0  0  0  0  0  0  0
   -4.1292    0.5344   -1.9253 H   0  0  0  0  0  0  0  0  0  0  0  0
   -3.3167    0.5807   -3.5346 H   0  0  0  0  0  0  0  0  0  0  0  0
   -4.0199    2.0808   -2.9405 H   0  0  0  0  0  0  0  0  0  0  0  0
   -1.5132    1.4093   -3.7959 H   0  0  0  0  0  0  0  0  0  0  0  0
    5.1282   -2.9573   -0.6481 H   0  0  0  0  0  0  0  0  0  0  0  0
    7.2151   -1.7209   -1.0877 H   0  0  0  0  0  0  0  0  0  0  0  0
    8.8502   -0.6618   -1.5345 H   0  0  0  0  0  0  0  0  0  0  0  0
    5.0256    0.9856   -3.4999 H   0  0  0  0  0  0  0  0  0  0  0  0
    2.9718   -0.2249   -3.0644 H   0  0  0  0  0  0  0  0  0  0  0  0
  1  2  1  0
  2  3  1  0
  3  4  1  0
  4  5  2  0
  4  6  1  0
  6  7  2  0
  7  8  1  0
  8  9  2  0
  9 10  1  0
 10 11  2  0
 11 12  1  0
 12 13  1  0
 13 14  1  0
 14 15  1  0
  9 16  1  0
 16 17  2  0
 17 18  1  0
 18 19  2  0
 19 20  1  0
 20 21  2  0
 18 22  1  0
 22 23  1  0
 22 24  1  0
  8 25  1  0
 25 26  1  0
 25 27  1  0
 25 28  1  0
  2 29  1  0
 29 30  2  0
 30 31  1  0
 31 32  2  0
 32 33  1  0
 33 34  1  0
 34 35  1  0
 34 36  1  0
 32 37  1  0
 37 38  2  0
 11  6  1  0
 15 13  1  0
 21 16  1  0
 38 29  1  0
  1 39  1  0
  1 40  1  0
  1 41  1  0
  2 42  1  1
  3 43  1  0
 10 44  1  0
 13 45  1  0
 14 46  1  0
 14 47  1  0
 15 48  1  0
 15 49  1  0
 17 50  1  0
 19 51  1  0
 20 52  1  0
 22 53  1  0
 26 54  1  0
 26 55  1  0
 26 56  1  0
 27 57  1  0
 27 58  1  0
 27 59  1  0
 28 60  1  0
 30 61  1  0
 31 62  1  0
 34 63  1  0
 37 64  1  0
 38 65  1  0
M  END
$$$$
[H]c1nc(N([H])[H])c2c([H])c([H])n([C@@]3([H])C([H])([H])C([H])([H])[C@]3([H])C([H])([H])C([H])([H])N([H])C([H])([H])c3c([H])c([H])c([H])c([H])c3[H])c2n1
     RDKit          3D

 47 50  0  0  0  0  0  0  0  0999 V2000
    7.3636   -0.2436   -0.3081 N   0  0  0  0  0  0  0  0  0  0  0  0
    6.2395    0.6000   -0.1404 C   0  0  0  0  0  0  0  0  0  0  0  0
    6.3848    1.9230    0.0664 N   0  0  0  0  0  0  0  0  0  0  0  0
    5.3189    2.7265    0.2264 C   0  0  0  0  0  0  0  0  0  0  0  0
    4.0777    2.2129    0.1819 N   0  0  0  0  0  0  0  0  0  0  0  0
    3.8564    0.8902   -0.0224 C   0  0  0  0  0  0  0  0  0  0  0  0
    2.7389    0.1504   -0.1065 N   0  0  0  0  0  0  0  0  0  0  0  0
    3.1124   -1.1287   -0.3213 C   0  0  0  0  0  0  0  0  0  0  0  0
    4.4871   -1.2126   -0.3765 C   0  0  0  0  0  0  0  0  0  0  0  0
    4.9668    0.0757   -0.1859 C   0  0  0  0  0  0  0  0  0  0  0  0
    1.4068    0.6516    0.0148 C   0  0  2  0  0  0  0  0  0  0  0  0
    0.3215   -0.4147   -0.1765 C   0  0  1  0  0  0  0  0  0  0  0  0
   -0.1547   -0.9484    1.1290 C   0  0  0  0  0  0  0  0  0  0  0  0
   -1.2073   -1.9877    0.9359 C   0  0  0  0  0  0  0  0  0  0  0  0
   -2.3972   -1.5503    0.2772 N   0  0  0  0  0  0  0  0  0  0  0  0
   -3.1606   -0.6515    1.1151 C   0  0  0  0  0  0  0  0  0  0  0  0
   -4.3856   -0.1907    0.3988 C   0  0  0  0  0  0  0  0  0  0  0  0
   -5.3133   -1.0986   -0.0658 C   0  0  0  0  0  0  0  0  0  0  0  0
   -6.4428   -0.6348   -0.7261 C   0  0  0  0  0  0  0  0  0  0  0  0
   -6.6831    0.7139   -0.9421 C   0  0  0  0  0  0  0  0  0  0  0  0
   -5.7502    1.6074   -0.4736 C   0  0  0  0  0  0  0  0  0  0  0  0
   -4.6160    1.1550    0.1886 C   0  0  0  0  0  0  0  0  0  0  0  0
   -0.5039    0.6631   -0.8366 C   0  0  0  0  0  0  0  0  0  0  0  0
    0.8325    1.2934   -1.2574 C   0  0  0  0  0  0  0  0  0  0  0  0
    8.3286    0.1534   -0.2888 H   0  0  0  0  0  0  0  0  0  0  0  0
    7.2671   -1.2618   -0.4520 H   0  0  0  0  0  0  0  0  0  0  0  0
    5.4183    3.7889    0.3933 H   0  0  0  0  0  0  0  0  0  0  0  0
    2.4674   -1.9920   -0.4399 H   0  0  0  0  0  0  0  0  0  0  0  0
    5.1424   -2.0451   -0.5284 H   0  0  0  0  0  0  0  0  0  0  0  0
    1.1754    1.2868    0.8865 H   0  0  0  0  0  0  0  0  0  0  0  0
    0.6142   -1.1613   -0.9426 H   0  0  0  0  0  0  0  0  0  0  0  0
   -0.5617   -0.1142    1.7252 H   0  0  0  0  0  0  0  0  0  0  0  0
    0.7084   -1.4460    1.6332 H   0  0  0  0  0  0  0  0  0  0  0  0
   -1.4520   -2.4118    1.9470 H   0  0  0  0  0  0  0  0  0  0  0  0
   -0.7973   -2.8450    0.3468 H   0  0  0  0  0  0  0  0  0  0  0  0
   -2.9900   -2.3976    0.1105 H   0  0  0  0  0  0  0  0  0  0  0  0
   -3.4450   -1.2664    2.0159 H   0  0  0  0  0  0  0  0  0  0  0  0
   -2.5655    0.2063    1.4576 H   0  0  0  0  0  0  0  0  0  0  0  0
   -5.1461   -2.1702    0.0912 H   0  0  0  0  0  0  0  0  0  0  0  0
   -7.1781   -1.3339   -1.0959 H   0  0  0  0  0  0  0  0  0  0  0  0
   -7.5787    1.0404   -1.4621 H   0  0  0  0  0  0  0  0  0  0  0  0
   -5.9162    2.6799   -0.6313 H   0  0  0  0  0  0  0  0  0  0  0  0
   -3.8898    1.8563    0.5530 H   0  0  0  0  0  0  0  0  0  0  0  0
   -1.0100    1.3559   -0.1247 H   0  0  0  0  0  0  0  0  0  0  0  0
   -1.1433    0.3260   -1.6654 H   0  0  0  0  0  0  0  0  0  0  0  0
    0.8448    2.3864   -1.2650 H   0  0  0  0  0  0  0  0  0  0  0  0
    1.2150    0.7637   -2.1333 H   0  0  0  0  0  0  0  0  0  0  0  0
  1  2  1  0
  2  3  2  0
  3  4  1  0
  4  5  2  0
  5  6  1  0
  6  7  1  0
  7  8  1  0
  8  9  2  0
  9 10  1  0
  7 11  1  0
 11 12  1  0
 12 13  1  0
 13 14  1  0
 14 15  1  0
 15 16  1  0
 16 17  1  0
 17 18  2  0
 18 19  1  0
 19 20  2  0
 20 21  1  0
 21 22  2  0
 12 23  1  0
 23 24  1  0
 10  2  1  0
 24 11  1  0
 10  6  2  0
 22 17  1  0
  1 25  1  0
  1 26  1  0
  4 27  1  0
  8 28  1  0
  9 29  1  0
 11 30  1  1
 12 31  1  6
 13 32  1  0
 13 33  1  0
 14 34  1  0
 14 35  1  0
 15 36  1  0
 16 37  1  0
 16 38  1  0
 18 39  1  0
 19 40  1  0
 20 41  1  0
 21 42  1  0
 22 43  1  0
 23 44  1  0
 23 45  1  0
 24 46  1  0
 24 47  1  0
M  END
$$$$
[H]c1nc(N([H])c2c(OC([H])([H])[H])c([H])c([H])c([H])c2C([H])([H])N(C([H])([H])[H])C([H])([H])[H])nc(N([H])c2c([H])c([H])c([H])c([H])c2S(=O)(=O)N2C([H])([H])C([H])([H])N([H])C([H])([H])C2([H])[H])c1Cl
     RDKit          3D

 66 69  0  0  0  0  0  0  0  0999 V2000
   -3.9414    4.4821    1.1452 C   0  0  0  0  0  0  0  0  0  0  0  0
   -3.7036    3.4222    0.2378 O   0  0  0  0  0  0  0  0  0  0  0  0
   -3.9186    2.0928    0.5782 C   0  0  0  0  0  0  0  0  0  0  0  0
   -4.3825    1.8144    1.8563 C   0  0  0  0  0  0  0  0  0  0  0  0
   -4.5992    0.5040    2.2048 C   0  0  0  0  0  0  0  0  0  0  0  0
   -4.3487   -0.4929    1.2726 C   0  0  0  0  0  0  0  0  0  0  0  0
   -3.8902   -0.2260    0.0097 C   0  0  0  0  0  0  0  0  0  0  0  0
   -3.6462   -1.2764   -1.0055 C   0  0  0  0  0  0  0  0  0  0  0  0
   -3.8516   -2.5905   -0.5208 N   0  0  0  0  0  0  0  0  0  0  0  0
   -2.8470   -2.9483    0.4557 C   0  0  0  0  0  0  0  0  0  0  0  0
   -3.8598   -3.5709   -1.5718 C   0  0  0  0  0  0  0  0  0  0  0  0
   -3.6688    1.1148   -0.3468 C   0  0  0  0  0  0  0  0  0  0  0  0
   -3.1952    1.4685   -1.6363 N   0  0  0  0  0  0  0  0  0  0  0  0
   -1.8006    1.5740   -1.9336 C   0  0  0  0  0  0  0  0  0  0  0  0
   -1.3994    1.9126   -3.1723 N   0  0  0  0  0  0  0  0  0  0  0  0
   -0.0994    2.0227   -3.4941 C   0  0  0  0  0  0  0  0  0  0  0  0
    0.8834    1.7924   -2.5642 C   0  0  0  0  0  0  0  0  0  0  0  0
    2.5786    1.9281   -2.9468 Cl  0  0  0  0  0  0  0  0  0  0  0  0
    0.4783    1.4359   -1.2592 C   0  0  0  0  0  0  0  0  0  0  0  0
    1.4840    1.1979   -0.3165 N   0  0  0  0  0  0  0  0  0  0  0  0
    1.3759    0.8429    1.0214 C   0  0  0  0  0  0  0  0  0  0  0  0
    0.1898    0.6982    1.6711 C   0  0  0  0  0  0  0  0  0  0  0  0
    0.1125    0.3480    3.0344 C   0  0  0  0  0  0  0  0  0  0  0  0
    1.2509    0.1413    3.7509 C   0  0  0  0  0  0  0  0  0  0  0  0
    2.4661    0.2806    3.1199 C   0  0  0  0  0  0  0  0  0  0  0  0
    2.5329    0.6223    1.7895 C   0  0  0  0  0  0  0  0  0  0  0  0
    4.1269    0.7599    1.0925 S   0  0  0  0  0  0  0  0  0  0  0  0
    4.4287    2.1290    0.5725 O   0  0  0  0  0  0  0  0  0  0  0  0
    5.1852    0.4544    2.1181 O   0  0  0  0  0  0  0  0  0  0  0  0
    4.3673   -0.3689   -0.1915 N   0  0  0  0  0  0  0  0  0  0  0  0
    4.2515   -1.7381    0.2790 C   0  0  0  0  0  0  0  0  0  0  0  0
    4.9573   -2.6377   -0.7026 C   0  0  0  0  0  0  0  0  0  0  0  0
    4.8677   -2.1405   -2.0765 N   0  0  0  0  0  0  0  0  0  0  0  0
    5.5596   -0.8585   -2.1953 C   0  0  0  0  0  0  0  0  0  0  0  0
    5.6550   -0.2294   -0.8038 C   0  0  0  0  0  0  0  0  0  0  0  0
   -0.8460    1.3518   -1.0366 N   0  0  0  0  0  0  0  0  0  0  0  0
   -5.0363    4.6628    1.2562 H   0  0  0  0  0  0  0  0  0  0  0  0
   -3.4884    5.4112    0.7039 H   0  0  0  0  0  0  0  0  0  0  0  0
   -3.5363    4.2730    2.1536 H   0  0  0  0  0  0  0  0  0  0  0  0
   -4.5838    2.5750    2.5972 H   0  0  0  0  0  0  0  0  0  0  0  0
   -4.9643    0.2733    3.2086 H   0  0  0  0  0  0  0  0  0  0  0  0
   -4.5662   -1.4958    1.6377 H   0  0  0  0  0  0  0  0  0  0  0  0
   -2.5795   -1.2173   -1.3565 H   0  0  0  0  0  0  0  0  0  0  0  0
   -4.2837   -1.1169   -1.9139 H   0  0  0  0  0  0  0  0  0  0  0  0
   -2.2593   -2.0432    0.7149 H   0  0  0  0  0  0  0  0  0  0  0  0
   -3.2596   -3.4759    1.3402 H   0  0  0  0  0  0  0  0  0  0  0  0
   -2.1044   -3.6126   -0.0795 H   0  0  0  0  0  0  0  0  0  0  0  0
   -3.8927   -4.6005   -1.2205 H   0  0  0  0  0  0  0  0  0  0  0  0
   -4.7539   -3.4218   -2.2389 H   0  0  0  0  0  0  0  0  0  0  0  0
   -2.9731   -3.4360   -2.2415 H   0  0  0  0  0  0  0  0  0  0  0  0
   -3.9121    1.6516   -2.3702 H   0  0  0  0  0  0  0  0  0  0  0  0
    0.2319    2.2975   -4.4987 H   0  0  0  0  0  0  0  0  0  0  0  0
    2.4905    1.3049   -0.6678 H   0  0  0  0  0  0  0  0  0  0  0  0
   -0.7758    0.8320    1.2308 H   0  0  0  0  0  0  0  0  0  0  0  0
   -0.8344    0.2361    3.5385 H   0  0  0  0  0  0  0  0  0  0  0  0
    1.2182   -0.1317    4.8119 H   0  0  0  0  0  0  0  0  0  0  0  0
    3.3589    0.1121    3.7067 H   0  0  0  0  0  0  0  0  0  0  0  0
    3.1807   -2.0481    0.3743 H   0  0  0  0  0  0  0  0  0  0  0  0
    4.7676   -1.8618    1.2690 H   0  0  0  0  0  0  0  0  0  0  0  0
    6.0169   -2.8015   -0.4693 H   0  0  0  0  0  0  0  0  0  0  0  0
    4.4534   -3.6424   -0.7255 H   0  0  0  0  0  0  0  0  0  0  0  0
    5.3855   -2.8502   -2.6555 H   0  0  0  0  0  0  0  0  0  0  0  0
    6.5735   -1.0135   -2.6374 H   0  0  0  0  0  0  0  0  0  0  0  0
    4.9437   -0.1692   -2.8061 H   0  0  0  0  0  0  0  0  0  0  0  0
    6.4182   -0.8151   -0.2375 H   0  0  0  0  0  0  0  0  0  0  0  0
    6.0113    0.8118   -0.8601 H   0  0  0  0  0  0  0  0  0  0  0  0
  1  2  1  0
  2  3  1  0
  3  4  2  0
  4  5  1  0
  5  6  2  0
  6  7  1  0
  7  8  1  0
  8  9  1  0
  9 10  1  0
  9 11  1  0
  7 12  2  0
 12 13  1  0
 13 14  1  0
 14 15  2  0
 15 16  1  0
 16 17  2  0
 17 18  1  0
 17 19  1  0
 19 20  1  0
 20 21  1  0
 21 22  2  0
 22 23  1  0
 23 24  2  0
 24 25  1  0
 25 26  2  0
 26 27  1  0
 27 28  2  0
 27 29  2  0
 27 30  1  0
 30 31  1  0
 31 32  1  0
 32 33  1  0
 33 34  1  0
 34 35  1  0
 19 36  2  0
 12  3  1  0
 36 14  1  0
 26 21  1  0
 35 30  1  0
  1 37  1  0
  1 38  1  0
  1 39  1  0
  4 40  1  0
  5 41  1  0
  6 42  1  0
  8 43  1  0
  8 44  1  0
 10 45  1  0
 10 46  1  0
 10 47  1  0
 11 48  1  0
 11 49  1  0
 11 50  1  0
 13 51  1  0
 16 52  1  0
 20 53  1  0
 22 54  1  0
 23 55  1  0
 24 56  1  0
 25 57  1  0
 31 58  1  0
 31 59  1  0
 32 60  1  0
 32 61  1  0
 33 62  1  0
 34 63  1  0
 34 64  1  0
 35 65  1  0
 35 66  1  0
M  END
$$$$
[H]c1nc(-c2nc([H])n3c([H])c(C(=O)OC([H])(C([H])([H])[H])C([H])([H])[H])c([H])c([H])c23)c([H])c(Oc2c([H])nc(C([H])(C([H])([H])[H])C([H])([H])C([H])([H])C([H])(C([H])([H])[H])C([H])([H])[H])c([H])c2[H])c1[H]
     RDKit          3D

 67 70  0  0  0  0  0  0  0  0999 V2000
   -8.2746    1.7149    1.5160 C   0  0  0  0  0  0  0  0  0  0  0  0
   -8.8243    1.1594    0.2282 C   0  0  0  0  0  0  0  0  0  0  0  0
   -8.8668    2.2615   -0.7908 C   0  0  0  0  0  0  0  0  0  0  0  0
   -7.8692    0.0617   -0.2644 C   0  0  0  0  0  0  0  0  0  0  0  0
   -7.8258   -0.9763    0.8025 C   0  0  0  0  0  0  0  0  0  0  0  0
   -6.9394   -2.1571    0.5076 C   0  0  0  0  0  0  0  0  0  0  0  0
   -7.3303   -2.9138   -0.7180 C   0  0  0  0  0  0  0  0  0  0  0  0
   -5.5062   -1.8076    0.4365 C   0  0  0  0  0  0  0  0  0  0  0  0
   -4.9517   -1.2311   -0.6749 C   0  0  0  0  0  0  0  0  0  0  0  0
   -3.6137   -0.8924   -0.7522 C   0  0  0  0  0  0  0  0  0  0  0  0
   -2.7767   -1.1357    0.3285 C   0  0  0  0  0  0  0  0  0  0  0  0
   -1.4838   -0.8587    0.3867 O   0  0  0  0  0  0  0  0  0  0  0  0
   -0.4756   -0.2216   -0.1792 C   0  0  0  0  0  0  0  0  0  0  0  0
   -0.6188    0.7318   -1.1544 C   0  0  0  0  0  0  0  0  0  0  0  0
    0.5059    1.3512   -1.6991 C   0  0  0  0  0  0  0  0  0  0  0  0
    1.7138    1.0107   -1.2652 N   0  0  0  0  0  0  0  0  0  0  0  0
    1.9376    0.0957   -0.3213 C   0  0  0  0  0  0  0  0  0  0  0  0
    0.8513   -0.5242    0.2259 C   0  0  0  0  0  0  0  0  0  0  0  0
    3.2572   -0.2933    0.1786 C   0  0  0  0  0  0  0  0  0  0  0  0
    3.5182   -1.2192    1.1352 N   0  0  0  0  0  0  0  0  0  0  0  0
    4.8163   -1.2984    1.3302 C   0  0  0  0  0  0  0  0  0  0  0  0
    5.4015   -0.4054    0.4816 N   0  0  0  0  0  0  0  0  0  0  0  0
    6.6763   -0.0944    0.2813 C   0  0  0  0  0  0  0  0  0  0  0  0
    7.1142    0.8406   -0.6234 C   0  0  0  0  0  0  0  0  0  0  0  0
    6.1818    1.5053   -1.3774 C   0  0  0  0  0  0  0  0  0  0  0  0
    4.8378    1.1832   -1.1715 C   0  0  0  0  0  0  0  0  0  0  0  0
    4.4541    0.2338   -0.2470 C   0  0  0  0  0  0  0  0  0  0  0  0
    8.5456    1.0856   -0.7367 C   0  0  0  0  0  0  0  0  0  0  0  0
    8.9384    1.9444   -1.5818 O   0  0  0  0  0  0  0  0  0  0  0  0
    9.4980    0.4520    0.0077 O   0  0  0  0  0  0  0  0  0  0  0  0
   10.8766    0.6487   -0.0621 C   0  0  0  0  0  0  0  0  0  0  0  0
   11.4665    1.2003    1.2139 C   0  0  0  0  0  0  0  0  0  0  0  0
   11.6302   -0.5943   -0.5169 C   0  0  0  0  0  0  0  0  0  0  0  0
   -3.3875   -1.7289    1.4476 C   0  0  0  0  0  0  0  0  0  0  0  0
   -4.6758   -2.0334    1.4671 N   0  0  0  0  0  0  0  0  0  0  0  0
   -8.6142    2.7606    1.5988 H   0  0  0  0  0  0  0  0  0  0  0  0
   -8.6139    1.1448    2.4066 H   0  0  0  0  0  0  0  0  0  0  0  0
   -7.1574    1.7409    1.4502 H   0  0  0  0  0  0  0  0  0  0  0  0
   -9.8315    0.7525    0.4273 H   0  0  0  0  0  0  0  0  0  0  0  0
   -9.6679    2.0837   -1.5653 H   0  0  0  0  0  0  0  0  0  0  0  0
   -7.8963    2.3568   -1.3173 H   0  0  0  0  0  0  0  0  0  0  0  0
   -9.0791    3.2489   -0.3027 H   0  0  0  0  0  0  0  0  0  0  0  0
   -8.2716   -0.3049   -1.2061 H   0  0  0  0  0  0  0  0  0  0  0  0
   -6.8986    0.5806   -0.4191 H   0  0  0  0  0  0  0  0  0  0  0  0
   -8.8539   -1.3680    0.9387 H   0  0  0  0  0  0  0  0  0  0  0  0
   -7.5084   -0.5393    1.7655 H   0  0  0  0  0  0  0  0  0  0  0  0
   -7.1018   -2.8514    1.3950 H   0  0  0  0  0  0  0  0  0  0  0  0
   -6.4246   -3.3799   -1.2006 H   0  0  0  0  0  0  0  0  0  0  0  0
   -8.0194   -3.7622   -0.5189 H   0  0  0  0  0  0  0  0  0  0  0  0
   -7.8420   -2.2759   -1.4805 H   0  0  0  0  0  0  0  0  0  0  0  0
   -5.5536   -1.0110   -1.5703 H   0  0  0  0  0  0  0  0  0  0  0  0
   -3.2227   -0.4601   -1.6472 H   0  0  0  0  0  0  0  0  0  0  0  0
   -1.5945    1.0585   -1.5334 H   0  0  0  0  0  0  0  0  0  0  0  0
    0.3230    2.0955   -2.4668 H   0  0  0  0  0  0  0  0  0  0  0  0
    0.9583   -1.2737    0.9928 H   0  0  0  0  0  0  0  0  0  0  0  0
    5.3354   -1.9300    2.0134 H   0  0  0  0  0  0  0  0  0  0  0  0
    7.4186   -0.6319    0.8919 H   0  0  0  0  0  0  0  0  0  0  0  0
    6.4896    2.2512   -2.1033 H   0  0  0  0  0  0  0  0  0  0  0  0
    4.1013    1.6870   -1.7440 H   0  0  0  0  0  0  0  0  0  0  0  0
   11.0680    1.4215   -0.8478 H   0  0  0  0  0  0  0  0  0  0  0  0
   12.5693    0.9714    1.1641 H   0  0  0  0  0  0  0  0  0  0  0  0
   11.3704    2.3138    1.2891 H   0  0  0  0  0  0  0  0  0  0  0  0
   11.0542    0.7710    2.1260 H   0  0  0  0  0  0  0  0  0  0  0  0
   11.3382   -0.7857   -1.5681 H   0  0  0  0  0  0  0  0  0  0  0  0
   12.7114   -0.3665   -0.4907 H   0  0  0  0  0  0  0  0  0  0  0  0
   11.3552   -1.4689    0.0972 H   0  0  0  0  0  0  0  0  0  0  0  0
   -2.7422   -1.9241    2.2978 H   0  0  0  0  0  0  0  0  0  0  0  0
  1  2  1  0
  2  3  1  0
  2  4  1  0
  4  5  1  0
  5  6  1  0
  6  7  1  0
  6  8  1  0
  8  9  2  0
  9 10  1  0
 10 11  2  0
 11 12  1  0
 12 13  1  0
 13 14  2  0
 14 15  1  0
 15 16  2  0
 16 17  1  0
 17 18  2  0
 17 19  1  0
 19 20  1  0
 20 21  2  0
 21 22  1  0
 22 23  1  0
 23 24  2  0
 24 25  1  0
 25 26  2  0
 26 27  1  0
 24 28  1  0
 28 29  2  0
 28 30  1  0
 30 31  1  0
 31 32  1  0
 31 33  1  0
 11 34  1  0
 34 35  2  0
 35  8  1  0
 18 13  1  0
 27 19  2  0
 27 22  1  0
  1 36  1  0
  1 37  1  0
  1 38  1  0
  2 39  1  0
  3 40  1  0
  3 41  1  0
  3 42  1  0
  4 43  1  0
  4 44  1  0
  5 45  1  0
  5 46  1  0
  6 47  1  0
  7 48  1  0
  7 49  1  0
  7 50  1  0
  9 51  1  0
 10 52  1  0
 14 53  1  0
 15 54  1  0
 18 55  1  0
 21 56  1  0
 23 57  1  0
 25 58  1  0
 26 59  1  0
 31 60  1  0
 32 61  1  0
 32 62  1  0
 32 63  1  0
 33 64  1  0
 33 65  1  0
 33 66  1  0
 34 67  1  0
M  END
$$$$
[H]c1nc(N([H])c2c([H])c(OC([H])([H])[H])c([H])c(C(F)(F)F)c2[H])c([H])c(C(=O)N2C([H])([H])C([H])([H])C([H])([H])[C@]([H])(N3C([H])([H])C([H])([H])C([H])([H])[C@@]3([H])C([H])([H])[H])C2([H])[H])c1[H]
     RDKit          3D

 62 65  0  0  0  0  0  0  0  0999 V2000
    7.9893    2.9028   -0.7594 C   0  0  0  0  0  0  0  0  0  0  0  0
    8.2369    1.5691   -0.4026 O   0  0  0  0  0  0  0  0  0  0  0  0
    7.3561    0.5353   -0.4266 C   0  0  0  0  0  0  0  0  0  0  0  0
    6.0355    0.6768   -0.8262 C   0  0  0  0  0  0  0  0  0  0  0  0
    5.2190   -0.4140   -0.8238 C   0  0  0  0  0  0  0  0  0  0  0  0
    3.8484   -0.3593   -1.1582 N   0  0  0  0  0  0  0  0  0  0  0  0
    2.8581    0.1763   -0.2833 C   0  0  0  0  0  0  0  0  0  0  0  0
    1.5271    0.0052   -0.5362 C   0  0  0  0  0  0  0  0  0  0  0  0
    0.5144    0.4594    0.3508 C   0  0  0  0  0  0  0  0  0  0  0  0
    0.9967    1.0809    1.4523 C   0  0  0  0  0  0  0  0  0  0  0  0
    2.3642    1.2671    1.7223 C   0  0  0  0  0  0  0  0  0  0  0  0
    3.2488    0.7949    0.8257 N   0  0  0  0  0  0  0  0  0  0  0  0
   -0.8455    0.2125   -0.0247 C   0  0  0  0  0  0  0  0  0  0  0  0
   -1.0868    0.2267   -1.3101 O   0  0  0  0  0  0  0  0  0  0  0  0
   -1.9881   -0.0713    0.7511 N   0  0  0  0  0  0  0  0  0  0  0  0
   -2.0034   -0.2027    2.1695 C   0  0  0  0  0  0  0  0  0  0  0  0
   -3.3194   -0.2141    2.8653 C   0  0  0  0  0  0  0  0  0  0  0  0
   -4.4444   -0.7806    2.0049 C   0  0  0  0  0  0  0  0  0  0  0  0
   -4.4053    0.1094    0.7623 C   0  0  1  0  0  0  0  0  0  0  0  0
   -3.2195   -0.3404   -0.0019 C   0  0  0  0  0  0  0  0  0  0  0  0
   -5.6229    0.0276   -0.0159 N   0  0  0  0  0  0  0  0  0  0  0  0
   -5.9078   -1.2228   -0.6218 C   0  0  0  0  0  0  0  0  0  0  0  0
   -6.4384   -0.8820   -2.0190 C   0  0  0  0  0  0  0  0  0  0  0  0
   -5.7837    0.4315   -2.3321 C   0  0  0  0  0  0  0  0  0  0  0  0
   -5.7539    1.0861   -0.9761 C   0  0  1  0  0  0  0  0  0  0  0  0
   -7.1077    1.7712   -0.7760 C   0  0  0  0  0  0  0  0  0  0  0  0
    5.6726   -1.6825   -0.4252 C   0  0  0  0  0  0  0  0  0  0  0  0
    6.9768   -1.8335   -0.0273 C   0  0  0  0  0  0  0  0  0  0  0  0
    7.7960   -0.7342   -0.0352 C   0  0  0  0  0  0  0  0  0  0  0  0
    7.4455   -3.1855    0.4038 C   0  0  0  0  0  0  0  0  0  0  0  0
    7.6093   -3.9683   -0.7433 F   0  0  0  0  0  0  0  0  0  0  0  0
    6.3354   -3.7620    1.0522 F   0  0  0  0  0  0  0  0  0  0  0  0
    8.5144   -3.1632    1.2283 F   0  0  0  0  0  0  0  0  0  0  0  0
    7.8329    3.5857    0.1199 H   0  0  0  0  0  0  0  0  0  0  0  0
    7.0839    3.0009   -1.4161 H   0  0  0  0  0  0  0  0  0  0  0  0
    8.8104    3.3153   -1.3914 H   0  0  0  0  0  0  0  0  0  0  0  0
    5.6597    1.6389   -1.1444 H   0  0  0  0  0  0  0  0  0  0  0  0
    3.6047   -0.7468   -2.0916 H   0  0  0  0  0  0  0  0  0  0  0  0
    1.2219   -0.4699   -1.4322 H   0  0  0  0  0  0  0  0  0  0  0  0
    0.3382    1.5159    2.1673 H   0  0  0  0  0  0  0  0  0  0  0  0
    2.6579    1.8015    2.6350 H   0  0  0  0  0  0  0  0  0  0  0  0
   -1.3443    0.4639    2.7512 H   0  0  0  0  0  0  0  0  0  0  0  0
   -1.5954   -1.2792    2.3598 H   0  0  0  0  0  0  0  0  0  0  0  0
   -3.6265    0.8012    3.2393 H   0  0  0  0  0  0  0  0  0  0  0  0
   -3.2662   -0.8775    3.7468 H   0  0  0  0  0  0  0  0  0  0  0  0
   -4.1932   -1.8103    1.7540 H   0  0  0  0  0  0  0  0  0  0  0  0
   -5.4007   -0.6264    2.5025 H   0  0  0  0  0  0  0  0  0  0  0  0
   -4.2790    1.1378    1.1177 H   0  0  0  0  0  0  0  0  0  0  0  0
   -3.1774   -1.4599   -0.1502 H   0  0  0  0  0  0  0  0  0  0  0  0
   -3.1482    0.1504   -1.0045 H   0  0  0  0  0  0  0  0  0  0  0  0
   -5.0146   -1.8664   -0.7963 H   0  0  0  0  0  0  0  0  0  0  0  0
   -6.6088   -1.8781   -0.0532 H   0  0  0  0  0  0  0  0  0  0  0  0
   -7.5467   -0.8046   -2.0163 H   0  0  0  0  0  0  0  0  0  0  0  0
   -6.0682   -1.6195   -2.7436 H   0  0  0  0  0  0  0  0  0  0  0  0
   -6.3977    1.0234   -3.0501 H   0  0  0  0  0  0  0  0  0  0  0  0
   -4.7772    0.2915   -2.7540 H   0  0  0  0  0  0  0  0  0  0  0  0
   -4.9315    1.8431   -0.9512 H   0  0  0  0  0  0  0  0  0  0  0  0
   -7.1860    2.2302    0.2468 H   0  0  0  0  0  0  0  0  0  0  0  0
   -7.8498    0.9535   -0.9168 H   0  0  0  0  0  0  0  0  0  0  0  0
   -7.2132    2.5003   -1.5996 H   0  0  0  0  0  0  0  0  0  0  0  0
    4.9549   -2.5006   -0.4444 H   0  0  0  0  0  0  0  0  0  0  0  0
    8.8427   -0.8305    0.2522 H   0  0  0  0  0  0  0  0  0  0  0  0
  1  2  1  0
  2  3  1  0
  3  4  2  0
  4  5  1  0
  5  6  1  0
  6  7  1  0
  7  8  2  0
  8  9  1  0
  9 10  2  0
 10 11  1  0
 11 12  2  0
  9 13  1  0
 13 14  2  0
 13 15  1  0
 15 16  1  0
 16 17  1  0
 17 18  1  0
 18 19  1  0
 19 20  1  0
 19 21  1  0
 21 22  1  0
 22 23  1  0
 23 24  1  0
 24 25  1  0
 25 26  1  0
  5 27  2  0
 27 28  1  0
 28 29  2  0
 28 30  1  0
 30 31  1  0
 30 32  1  0
 30 33  1  0
 29  3  1  0
 12  7  1  0
 20 15  1  0
 25 21  1  0
  1 34  1  0
  1 35  1  0
  1 36  1  0
  4 37  1  0
  6 38  1  0
  8 39  1  0
 10 40  1  0
 11 41  1  0
 16 42  1  0
 16 43  1  0
 17 44  1  0
 17 45  1  0
 18 46  1  0
 18 47  1  0
 19 48  1  1
 20 49  1  0
 20 50  1  0
 22 51  1  0
 22 52  1  0
 23 53  1  0
 23 54  1  0
 24 55  1  0
 24 56  1  0
 25 57  1  6
 26 58  1  0
 26 59  1  0
 26 60  1  0
 27 61  1  0
 29 62  1  0
M  END
$$$$
[H]OC(=O)/N=C(\c1c(/C([H])=C(/[H])N([H])[H])n([H])c(=O)n1C([H])([H])[C@@]([H])(N([H])[H])C([H])([H])O[H])N([H])[H]
     RDKit          3D

 36 36  0  0  0  0  0  0  0  0999 V2000
   -3.2567   -2.8150    1.2284 N   0  0  0  0  0  0  0  0  0  0  0  0
   -3.4576   -2.0861    0.0698 C   0  0  0  0  0  0  0  0  0  0  0  0
   -2.5859   -1.1961   -0.3126 C   0  0  0  0  0  0  0  0  0  0  0  0
   -1.3677   -0.8317    0.3231 C   0  0  0  0  0  0  0  0  0  0  0  0
   -0.7302   -1.4858    1.2881 N   0  0  0  0  0  0  0  0  0  0  0  0
    0.4421   -0.9020    1.5395 C   0  0  0  0  0  0  0  0  0  0  0  0
    1.2327   -1.3470    2.4273 O   0  0  0  0  0  0  0  0  0  0  0  0
    0.6098    0.1888    0.7171 N   0  0  0  0  0  0  0  0  0  0  0  0
    1.7888    0.9612    0.8407 C   0  0  0  0  0  0  0  0  0  0  0  0
    3.0501    0.4990    0.2307 C   0  0  1  0  0  0  0  0  0  0  0  0
    3.4964   -0.7956    0.7563 N   0  0  0  0  0  0  0  0  0  0  0  0
    3.2373    0.4629   -1.2280 C   0  0  0  0  0  0  0  0  0  0  0  0
    4.6177    0.2257   -1.4853 O   0  0  0  0  0  0  0  0  0  0  0  0
   -0.5463    0.2339   -0.0432 C   0  0  0  0  0  0  0  0  0  0  0  0
   -0.8433    1.4868   -0.7412 C   0  0  0  0  0  0  0  0  0  0  0  0
    0.1879    2.2102   -1.4880 N   0  0  0  0  0  0  0  0  0  0  0  0
   -1.9520    1.9897   -0.8053 N   0  0  0  0  0  0  0  0  0  0  0  0
   -3.2127    1.9093   -0.4734 C   0  0  0  0  0  0  0  0  0  0  0  0
   -4.2611    1.7335   -1.4034 O   0  0  0  0  0  0  0  0  0  0  0  0
   -3.6463    1.9847    0.7341 O   0  0  0  0  0  0  0  0  0  0  0  0
   -2.8932   -3.8100    1.1447 H   0  0  0  0  0  0  0  0  0  0  0  0
   -3.4234   -2.4982    2.2059 H   0  0  0  0  0  0  0  0  0  0  0  0
   -4.3834   -2.2747   -0.5331 H   0  0  0  0  0  0  0  0  0  0  0  0
   -2.8521   -0.7500   -1.3097 H   0  0  0  0  0  0  0  0  0  0  0  0
   -1.0702   -2.3168    1.7717 H   0  0  0  0  0  0  0  0  0  0  0  0
    1.5709    2.0215    0.5481 H   0  0  0  0  0  0  0  0  0  0  0  0
    1.9976    1.0657    1.9623 H   0  0  0  0  0  0  0  0  0  0  0  0
    3.8619    1.2051    0.6314 H   0  0  0  0  0  0  0  0  0  0  0  0
    3.9672   -0.6989    1.6735 H   0  0  0  0  0  0  0  0  0  0  0  0
    4.0475   -1.3291    0.0551 H   0  0  0  0  0  0  0  0  0  0  0  0
    3.0726    1.4729   -1.6651 H   0  0  0  0  0  0  0  0  0  0  0  0
    2.6333   -0.2556   -1.7804 H   0  0  0  0  0  0  0  0  0  0  0  0
    4.7133   -0.4251   -2.2388 H   0  0  0  0  0  0  0  0  0  0  0  0
    0.4071    3.1564   -1.1330 H   0  0  0  0  0  0  0  0  0  0  0  0
    0.6373    1.7847   -2.3044 H   0  0  0  0  0  0  0  0  0  0  0  0
   -5.0894    1.2257   -1.2030 H   0  0  0  0  0  0  0  0  0  0  0  0
  1  2  1  0
  2  3  2  0
  3  4  1  0
  4  5  1  0
  5  6  1  0
  6  7  2  0
  6  8  1  0
  8  9  1  0
  9 10  1  0
 10 11  1  0
 10 12  1  0
 12 13  1  0
  8 14  1  0
 14 15  1  0
 15 16  1  0
 15 17  2  0
 17 18  1  0
 18 19  1  0
 18 20  2  0
 14  4  2  0
  1 21  1  0
  1 22  1  0
  2 23  1  0
  3 24  1  0
  5 25  1  0
  9 26  1  0
  9 27  1  0
 10 28  1  1
 11 29  1  0
 11 30  1  0
 12 31  1  0
 12 32  1  0
 13 33  1  0
 16 34  1  0
 16 35  1  0
 19 36  1  0
M  END
$$$$
[H]c1c([H])c(N2C([H])([H])C([H])([H])C([H])(C(=O)N([H])c3c([H])c([H])c4c(c3[H])OC([H])([H])C4([H])[H])C([H])([H])C2([H])[H])c([H])c([H])c1-c1nnc(N([H])[H])o1
     RDKit          3D

 53 57  0  0  0  0  0  0  0  0999 V2000
   10.1323    2.2111    0.0666 N   0  0  0  0  0  0  0  0  0  0  0  0
    9.1582    1.2413    0.4095 C   0  0  0  0  0  0  0  0  0  0  0  0
    9.3220    0.1057    1.1243 N   0  0  0  0  0  0  0  0  0  0  0  0
    8.1716   -0.5318    1.2273 N   0  0  0  0  0  0  0  0  0  0  0  0
    7.2666    0.2122    0.5673 C   0  0  0  0  0  0  0  0  0  0  0  0
    7.8686    1.2571    0.0904 O   0  0  0  0  0  0  0  0  0  0  0  0
    5.8509   -0.1271    0.4291 C   0  0  0  0  0  0  0  0  0  0  0  0
    4.9641    0.6705   -0.2581 C   0  0  0  0  0  0  0  0  0  0  0  0
    3.6301    0.3568   -0.3918 C   0  0  0  0  0  0  0  0  0  0  0  0
    3.1184   -0.8131    0.1810 C   0  0  0  0  0  0  0  0  0  0  0  0
    3.9914   -1.6218    0.8714 C   0  0  0  0  0  0  0  0  0  0  0  0
    5.3413   -1.2778    0.9910 C   0  0  0  0  0  0  0  0  0  0  0  0
    1.7562   -1.1365    0.0401 N   0  0  0  0  0  0  0  0  0  0  0  0
    0.9171   -0.3071   -0.8277 C   0  0  0  0  0  0  0  0  0  0  0  0
   -0.3212   -1.0431   -1.2952 C   0  0  0  0  0  0  0  0  0  0  0  0
   -1.1042   -1.6778   -0.1977 C   0  0  0  0  0  0  0  0  0  0  0  0
   -0.2978   -1.7773    1.0549 C   0  0  0  0  0  0  0  0  0  0  0  0
    1.1127   -2.2289    0.6938 C   0  0  0  0  0  0  0  0  0  0  0  0
   -2.3873   -0.9220    0.0376 C   0  0  0  0  0  0  0  0  0  0  0  0
   -2.5576   -0.4365    1.1617 O   0  0  0  0  0  0  0  0  0  0  0  0
   -3.3307   -0.7903   -0.9927 N   0  0  0  0  0  0  0  0  0  0  0  0
   -4.5700   -0.1338   -0.9697 C   0  0  0  0  0  0  0  0  0  0  0  0
   -5.3177   -0.0732   -2.1537 C   0  0  0  0  0  0  0  0  0  0  0  0
   -6.5412    0.5453   -2.2229 C   0  0  0  0  0  0  0  0  0  0  0  0
   -7.1065    1.1532   -1.0962 C   0  0  0  0  0  0  0  0  0  0  0  0
   -8.3848    1.8771   -0.8902 C   0  0  0  0  0  0  0  0  0  0  0  0
   -8.1308    2.5609    0.4355 C   0  0  0  0  0  0  0  0  0  0  0  0
   -7.1339    1.7633    1.0473 O   0  0  0  0  0  0  0  0  0  0  0  0
   -6.4014    1.1092    0.0679 C   0  0  0  0  0  0  0  0  0  0  0  0
   -5.1548    0.4719    0.1132 C   0  0  0  0  0  0  0  0  0  0  0  0
   10.0419    2.7706   -0.8026 H   0  0  0  0  0  0  0  0  0  0  0  0
   10.9472    2.3747    0.6782 H   0  0  0  0  0  0  0  0  0  0  0  0
    5.3417    1.5746   -0.7052 H   0  0  0  0  0  0  0  0  0  0  0  0
    2.9485    1.0142   -0.9444 H   0  0  0  0  0  0  0  0  0  0  0  0
    3.6291   -2.5504    1.3343 H   0  0  0  0  0  0  0  0  0  0  0  0
    6.0250   -1.9288    1.5423 H   0  0  0  0  0  0  0  0  0  0  0  0
    0.7056    0.6799   -0.3925 H   0  0  0  0  0  0  0  0  0  0  0  0
    1.5223   -0.1591   -1.7708 H   0  0  0  0  0  0  0  0  0  0  0  0
   -0.9605   -0.2848   -1.7925 H   0  0  0  0  0  0  0  0  0  0  0  0
   -0.0227   -1.7748   -2.0688 H   0  0  0  0  0  0  0  0  0  0  0  0
   -1.4043   -2.7179   -0.4972 H   0  0  0  0  0  0  0  0  0  0  0  0
   -0.7333   -2.5683    1.6943 H   0  0  0  0  0  0  0  0  0  0  0  0
   -0.2457   -0.7956    1.5698 H   0  0  0  0  0  0  0  0  0  0  0  0
    1.6367   -2.5587    1.5917 H   0  0  0  0  0  0  0  0  0  0  0  0
    1.0350   -3.0639   -0.0527 H   0  0  0  0  0  0  0  0  0  0  0  0
   -3.0756   -1.2572   -1.9345 H   0  0  0  0  0  0  0  0  0  0  0  0
   -4.9246   -0.5302   -3.0622 H   0  0  0  0  0  0  0  0  0  0  0  0
   -7.1047    0.5831   -3.1435 H   0  0  0  0  0  0  0  0  0  0  0  0
   -8.5115    2.6925   -1.6529 H   0  0  0  0  0  0  0  0  0  0  0  0
   -9.2452    1.1873   -0.8611 H   0  0  0  0  0  0  0  0  0  0  0  0
   -9.0517    2.6127    1.0558 H   0  0  0  0  0  0  0  0  0  0  0  0
   -7.7586    3.5921    0.3166 H   0  0  0  0  0  0  0  0  0  0  0  0
   -4.6564    0.4709    1.0538 H   0  0  0  0  0  0  0  0  0  0  0  0
  1  2  1  0
  2  3  2  0
  3  4  1  0
  4  5  2  0
  5  6  1  0
  5  7  1  0
  7  8  2  0
  8  9  1  0
  9 10  2  0
 10 11  1  0
 11 12  2  0
 10 13  1  0
 13 14  1  0
 14 15  1  0
 15 16  1  0
 16 17  1  0
 17 18  1  0
 16 19  1  0
 19 20  2  0
 19 21  1  0
 21 22  1  0
 22 23  2  0
 23 24  1  0
 24 25  2  0
 25 26  1  0
 26 27  1  0
 27 28  1  0
 28 29  1  0
 29 30  2  0
  6  2  1  0
 12  7  1  0
 18 13  1  0
 30 22  1  0
 29 25  1  0
  1 31  1  0
  1 32  1  0
  8 33  1  0
  9 34  1  0
 11 35  1  0
 12 36  1  0
 14 37  1  0
 14 38  1  0
 15 39  1  0
 15 40  1  0
 16 41  1  0
 17 42  1  0
 17 43  1  0
 18 44  1  0
 18 45  1  0
 21 46  1  0
 23 47  1  0
 24 48  1  0
 26 49  1  0
 26 50  1  0
 27 51  1  0
 27 52  1  0
 30 53  1  0
M  END
$$$$
[H]c1c([H])c([H])c(-c2c([H])c([H])c(N([H])C(=O)C([H])([H])C([H])([H])C([H])([H])[H])c3c([H])c([H])c([H])c([H])c23)c(OC([H])([H])[H])c1[H]
     RDKit          3D

 45 47  0  0  0  0  0  0  0  0999 V2000
    5.8681    1.9708    0.0785 C   0  0  0  0  0  0  0  0  0  0  0  0
    5.9684    0.7554    0.9507 C   0  0  0  0  0  0  0  0  0  0  0  0
    5.0345   -0.3012    0.4121 C   0  0  0  0  0  0  0  0  0  0  0  0
    3.6159    0.1830    0.4079 C   0  0  0  0  0  0  0  0  0  0  0  0
    3.4365    1.3284    0.8235 O   0  0  0  0  0  0  0  0  0  0  0  0
    2.5864   -0.6432   -0.0471 N   0  0  0  0  0  0  0  0  0  0  0  0
    1.2210   -0.4218   -0.1472 C   0  0  0  0  0  0  0  0  0  0  0  0
    0.6458    0.7777    0.1659 C   0  0  0  0  0  0  0  0  0  0  0  0
   -0.7330    1.0023    0.0500 C   0  0  0  0  0  0  0  0  0  0  0  0
   -1.5649    0.0018   -0.3916 C   0  0  0  0  0  0  0  0  0  0  0  0
   -2.9645    0.3435   -0.5342 C   0  0  0  0  0  0  0  0  0  0  0  0
   -3.7042    0.2235   -1.6908 C   0  0  0  0  0  0  0  0  0  0  0  0
   -5.0341    0.6174   -1.7688 C   0  0  0  0  0  0  0  0  0  0  0  0
   -5.6570    1.1525   -0.6543 C   0  0  0  0  0  0  0  0  0  0  0  0
   -4.9262    1.2783    0.5114 C   0  0  0  0  0  0  0  0  0  0  0  0
   -3.6074    0.8872    0.5871 C   0  0  0  0  0  0  0  0  0  0  0  0
   -2.8733    1.0123    1.7536 O   0  0  0  0  0  0  0  0  0  0  0  0
   -3.5205    1.5634    2.8931 C   0  0  0  0  0  0  0  0  0  0  0  0
   -1.0102   -1.2100   -0.7095 C   0  0  0  0  0  0  0  0  0  0  0  0
   -1.8419   -2.2532   -1.1418 C   0  0  0  0  0  0  0  0  0  0  0  0
   -1.3460   -3.5001   -1.4618 C   0  0  0  0  0  0  0  0  0  0  0  0
    0.0005   -3.7339   -1.3555 C   0  0  0  0  0  0  0  0  0  0  0  0
    0.8136   -2.6997   -0.9268 C   0  0  0  0  0  0  0  0  0  0  0  0
    0.3685   -1.4363   -0.5945 C   0  0  0  0  0  0  0  0  0  0  0  0
    5.5119    2.8671    0.6263 H   0  0  0  0  0  0  0  0  0  0  0  0
    6.8631    2.2628   -0.3549 H   0  0  0  0  0  0  0  0  0  0  0  0
    5.2078    1.8323   -0.8093 H   0  0  0  0  0  0  0  0  0  0  0  0
    5.7279    0.9487    2.0093 H   0  0  0  0  0  0  0  0  0  0  0  0
    7.0231    0.4188    0.9283 H   0  0  0  0  0  0  0  0  0  0  0  0
    5.2905   -0.6024   -0.6219 H   0  0  0  0  0  0  0  0  0  0  0  0
    5.1668   -1.2041    1.0397 H   0  0  0  0  0  0  0  0  0  0  0  0
    2.9306   -1.6115   -0.3777 H   0  0  0  0  0  0  0  0  0  0  0  0
    1.2392    1.6016    0.5145 H   0  0  0  0  0  0  0  0  0  0  0  0
   -1.1115    1.9925    0.3220 H   0  0  0  0  0  0  0  0  0  0  0  0
   -3.2115   -0.1928   -2.5715 H   0  0  0  0  0  0  0  0  0  0  0  0
   -5.5818    0.5047   -2.7042 H   0  0  0  0  0  0  0  0  0  0  0  0
   -6.7002    1.4558   -0.7342 H   0  0  0  0  0  0  0  0  0  0  0  0
   -5.4155    1.7002    1.3926 H   0  0  0  0  0  0  0  0  0  0  0  0
   -3.7810    2.6238    2.6696 H   0  0  0  0  0  0  0  0  0  0  0  0
   -4.4636    1.0362    3.1261 H   0  0  0  0  0  0  0  0  0  0  0  0
   -2.8945    1.5169    3.8016 H   0  0  0  0  0  0  0  0  0  0  0  0
   -2.8956   -2.1084   -1.2165 H   0  0  0  0  0  0  0  0  0  0  0  0
   -1.9771   -4.3120   -1.7967 H   0  0  0  0  0  0  0  0  0  0  0  0
    0.4434   -4.6901   -1.5929 H   0  0  0  0  0  0  0  0  0  0  0  0
    1.8519   -2.9384   -0.8601 H   0  0  0  0  0  0  0  0  0  0  0  0
  1  2  1  0
  2  3  1  0
  3  4  1  0
  4  5  2  0
  4  6  1  0
  6  7  1  0
  7  8  2  0
  8  9  1  0
  9 10  2  0
 10 11  1  0
 11 12  2  0
 12 13  1  0
 13 14  2  0
 14 15  1  0
 15 16  2  0
 16 17  1  0
 17 18  1  0
 10 19  1  0
 19 20  2  0
 20 21  1  0
 21 22  2  0
 22 23  1  0
 23 24  2  0
 24  7  1  0
 16 11  1  0
 24 19  1  0
  1 25  1  0
  1 26  1  0
  1 27  1  0
  2 28  1  0
  2 29  1  0
  3 30  1  0
  3 31  1  0
  6 32  1  0
  8 33  1  0
  9 34  1  0
 12 35  1  0
 13 36  1  0
 14 37  1  0
 15 38  1  0
 18 39  1  0
 18 40  1  0
 18 41  1  0
 20 42  1  0
 21 43  1  0
 22 44  1  0
 23 45  1  0
M  END
$$$$
[H]c1c([H])c(-c2nc(C([H])([H])[H])c3c([H])c([H])c(C(=O)N([H])C([H])([H])C([H])([H])C([H])([H])C([H])([H])C([H])([H])C([H])([H])C(=O)N([H])[C@]4([H])C([H])([H])C([H])([H])[C@]([H])(N5C([H])([H])C([H])([H])C([H])([H])C5([H])[H])C4([H])[H])c([H])c3n2)c([H])c([H])c1OC([H])([H])[H]
     RDKit          3D

 84 88  0  0  0  0  0  0  0  0999 V2000
   12.9756   -3.8052   -2.8521 C   0  0  0  0  0  0  0  0  0  0  0  0
   11.6979   -3.3607   -3.2031 O   0  0  0  0  0  0  0  0  0  0  0  0
   10.8697   -2.6376   -2.3588 C   0  0  0  0  0  0  0  0  0  0  0  0
   11.2256   -2.2786   -1.0702 C   0  0  0  0  0  0  0  0  0  0  0  0
   10.3570   -1.5546   -0.2703 C   0  0  0  0  0  0  0  0  0  0  0  0
    9.1147   -1.1636   -0.7147 C   0  0  0  0  0  0  0  0  0  0  0  0
    8.7487   -1.5148   -1.9953 C   0  0  0  0  0  0  0  0  0  0  0  0
    9.6250   -2.2452   -2.8023 C   0  0  0  0  0  0  0  0  0  0  0  0
    8.2086   -0.3975    0.1455 C   0  0  0  0  0  0  0  0  0  0  0  0
    8.5907   -0.0653    1.3902 N   0  0  0  0  0  0  0  0  0  0  0  0
    7.8073    0.6341    2.2310 C   0  0  0  0  0  0  0  0  0  0  0  0
    8.2785    0.9739    3.5931 C   0  0  0  0  0  0  0  0  0  0  0  0
    6.5679    1.0211    1.7931 C   0  0  0  0  0  0  0  0  0  0  0  0
    5.6975    1.7434    2.5913 C   0  0  0  0  0  0  0  0  0  0  0  0
    4.4493    2.1352    2.1537 C   0  0  0  0  0  0  0  0  0  0  0  0
    4.0345    1.8069    0.8814 C   0  0  0  0  0  0  0  0  0  0  0  0
    4.9036    1.0856    0.0843 C   0  0  0  0  0  0  0  0  0  0  0  0
    6.1422    0.6969    0.5190 C   0  0  0  0  0  0  0  0  0  0  0  0
    6.9929   -0.0114   -0.2683 N   0  0  0  0  0  0  0  0  0  0  0  0
    2.7081    2.2015    0.3607 C   0  0  0  0  0  0  0  0  0  0  0  0
    2.4601    1.8940   -0.8285 O   0  0  0  0  0  0  0  0  0  0  0  0
    1.7444    2.8883    1.1268 N   0  0  0  0  0  0  0  0  0  0  0  0
    0.4548    3.2788    0.6416 C   0  0  0  0  0  0  0  0  0  0  0  0
   -0.4168    2.1503    0.2067 C   0  0  0  0  0  0  0  0  0  0  0  0
   -1.7337    2.6429   -0.2958 C   0  0  0  0  0  0  0  0  0  0  0  0
   -2.5571    3.4085    0.6798 C   0  0  0  0  0  0  0  0  0  0  0  0
   -2.9298    2.6604    1.9087 C   0  0  0  0  0  0  0  0  0  0  0  0
   -3.7253    1.4188    1.7191 C   0  0  0  0  0  0  0  0  0  0  0  0
   -5.0385    1.5928    1.0793 C   0  0  0  0  0  0  0  0  0  0  0  0
   -5.4662    2.7229    0.7631 O   0  0  0  0  0  0  0  0  0  0  0  0
   -5.8495    0.4659    0.8081 N   0  0  0  0  0  0  0  0  0  0  0  0
   -7.1439    0.5459    0.1841 C   0  0  2  0  0  0  0  0  0  0  0  0
   -8.2719    0.0298    1.0459 C   0  0  0  0  0  0  0  0  0  0  0  0
   -9.3282   -0.4392    0.0515 C   0  0  0  0  0  0  0  0  0  0  0  0
   -8.6898   -0.6050   -1.2690 C   0  0  1  0  0  0  0  0  0  0  0  0
   -7.2312   -0.2175   -1.1190 C   0  0  0  0  0  0  0  0  0  0  0  0
   -8.7875   -1.8656   -1.8850 N   0  0  0  0  0  0  0  0  0  0  0  0
   -8.2129   -2.9899   -1.2634 C   0  0  0  0  0  0  0  0  0  0  0  0
   -9.3431   -3.8948   -0.8756 C   0  0  0  0  0  0  0  0  0  0  0  0
  -10.3406   -3.6668   -1.9903 C   0  0  0  0  0  0  0  0  0  0  0  0
  -10.1130   -2.2159   -2.3363 C   0  0  0  0  0  0  0  0  0  0  0  0
   12.9044   -4.2612   -1.8313 H   0  0  0  0  0  0  0  0  0  0  0  0
   13.2379   -4.6585   -3.5267 H   0  0  0  0  0  0  0  0  0  0  0  0
   13.7586   -3.0218   -2.9093 H   0  0  0  0  0  0  0  0  0  0  0  0
   12.1853   -2.5753   -0.7140 H   0  0  0  0  0  0  0  0  0  0  0  0
   10.6160   -1.2601    0.7503 H   0  0  0  0  0  0  0  0  0  0  0  0
    7.7779   -1.2134   -2.3541 H   0  0  0  0  0  0  0  0  0  0  0  0
    9.3129   -2.5103   -3.8109 H   0  0  0  0  0  0  0  0  0  0  0  0
    8.3584    2.0867    3.6842 H   0  0  0  0  0  0  0  0  0  0  0  0
    9.3005    0.5682    3.7554 H   0  0  0  0  0  0  0  0  0  0  0  0
    7.6194    0.6154    4.3937 H   0  0  0  0  0  0  0  0  0  0  0  0
    6.0692    1.9828    3.5967 H   0  0  0  0  0  0  0  0  0  0  0  0
    3.8096    2.6964    2.8123 H   0  0  0  0  0  0  0  0  0  0  0  0
    4.5887    0.8194   -0.9246 H   0  0  0  0  0  0  0  0  0  0  0  0
    1.9886    3.1287    2.1200 H   0  0  0  0  0  0  0  0  0  0  0  0
   -0.0576    3.9011    1.4019 H   0  0  0  0  0  0  0  0  0  0  0  0
    0.6370    3.9806   -0.2255 H   0  0  0  0  0  0  0  0  0  0  0  0
    0.0661    1.5894   -0.6329 H   0  0  0  0  0  0  0  0  0  0  0  0
   -0.5388    1.4560    1.0709 H   0  0  0  0  0  0  0  0  0  0  0  0
   -2.3128    1.8024   -0.7777 H   0  0  0  0  0  0  0  0  0  0  0  0
   -1.5310    3.3396   -1.1619 H   0  0  0  0  0  0  0  0  0  0  0  0
   -3.4295    3.8173    0.1327 H   0  0  0  0  0  0  0  0  0  0  0  0
   -1.9737    4.3022    1.0020 H   0  0  0  0  0  0  0  0  0  0  0  0
   -3.5727    3.3579    2.5239 H   0  0  0  0  0  0  0  0  0  0  0  0
   -2.0476    2.4671    2.5505 H   0  0  0  0  0  0  0  0  0  0  0  0
   -3.1704    0.6277    1.1508 H   0  0  0  0  0  0  0  0  0  0  0  0
   -3.8271    0.9579    2.7498 H   0  0  0  0  0  0  0  0  0  0  0  0
   -5.5089   -0.4957    1.0682 H   0  0  0  0  0  0  0  0  0  0  0  0
   -7.3427    1.6132   -0.0416 H   0  0  0  0  0  0  0  0  0  0  0  0
   -7.9341   -0.7541    1.7217 H   0  0  0  0  0  0  0  0  0  0  0  0
   -8.6552    0.8624    1.6822 H   0  0  0  0  0  0  0  0  0  0  0  0
  -10.0795    0.3893    0.0023 H   0  0  0  0  0  0  0  0  0  0  0  0
   -9.8849   -1.3156    0.4322 H   0  0  0  0  0  0  0  0  0  0  0  0
   -9.1030    0.1479   -2.0070 H   0  0  0  0  0  0  0  0  0  0  0  0
   -6.5666   -1.1018   -1.0569 H   0  0  0  0  0  0  0  0  0  0  0  0
   -6.8587    0.3779   -1.9782 H   0  0  0  0  0  0  0  0  0  0  0  0
   -7.6199   -3.5515   -2.0475 H   0  0  0  0  0  0  0  0  0  0  0  0
   -7.4955   -2.8021   -0.4499 H   0  0  0  0  0  0  0  0  0  0  0  0
   -9.7732   -3.6904    0.1175 H   0  0  0  0  0  0  0  0  0  0  0  0
   -9.0141   -4.9511   -0.9622 H   0  0  0  0  0  0  0  0  0  0  0  0
  -11.3844   -3.8613   -1.6709 H   0  0  0  0  0  0  0  0  0  0  0  0
  -10.0415   -4.2894   -2.8578 H   0  0  0  0  0  0  0  0  0  0  0  0
  -10.1280   -2.1047   -3.4517 H   0  0  0  0  0  0  0  0  0  0  0  0
  -10.8546   -1.5379   -1.8656 H   0  0  0  0  0  0  0  0  0  0  0  0
  1  2  1  0
  2  3  1  0
  3  4  2  0
  4  5  1  0
  5  6  2  0
  6  7  1  0
  7  8  2  0
  6  9  1  0
  9 10  2  0
 10 11  1  0
 11 12  1  0
 11 13  2  0
 13 14  1  0
 14 15  2  0
 15 16  1  0
 16 17  2  0
 17 18  1  0
 18 19  2  0
 16 20  1  0
 20 21  2  0
 20 22  1  0
 22 23  1  0
 23 24  1  0
 24 25  1  0
 25 26  1  0
 26 27  1  0
 27 28  1  0
 28 29  1  0
 29 30  2  0
 29 31  1  0
 31 32  1  0
 32 33  1  0
 33 34  1  0
 34 35  1  0
 35 36  1  0
 35 37  1  0
 37 38  1  0
 38 39  1  0
 39 40  1  0
 40 41  1  0
  8  3  1  0
 19  9  1  0
 36 32  1  0
 41 37  1  0
 18 13  1  0
  1 42  1  0
  1 43  1  0
  1 44  1  0
  4 45  1  0
  5 46  1  0
  7 47  1  0
  8 48  1  0
 12 49  1  0
 12 50  1  0
 12 51  1  0
 14 52  1  0
 15 53  1  0
 17 54  1  0
 22 55  1  0
 23 56  1  0
 23 57  1  0
 24 58  1  0
 24 59  1  0
 25 60  1  0
 25 61  1  0
 26 62  1  0
 26 63  1  0
 27 64  1  0
 27 65  1  0
 28 66  1  0
 28 67  1  0
 31 68  1  0
 32 69  1  6
 33 70  1  0
 33 71  1  0
 34 72  1  0
 34 73  1  0
 35 74  1  6
 36 75  1  0
 36 76  1  0
 38 77  1  0
 38 78  1  0
 39 79  1  0
 39 80  1  0
 40 81  1  0
 40 82  1  0
 41 83  1  0
 41 84  1  0
M  END
$$$$
[H]c1nc([H])c(S(=O)(=O)N([H])[H])c(C(=O)N2C([H])([H])C([H])([H])N(c3c([H])c(OC([H])(C([H])([H])[H])C([H])([H])[H])c([H])c(C([H])([H])[H])c3[H])C([H])([H])C2([H])[H])c1[H]
     RDKit          3D

 55 57  0  0  0  0  0  0  0  0999 V2000
    5.6117    2.5403    2.5176 C   0  0  0  0  0  0  0  0  0  0  0  0
    5.6281    1.4685    1.4339 C   0  0  0  0  0  0  0  0  0  0  0  0
    6.6630    1.8821    0.3897 C   0  0  0  0  0  0  0  0  0  0  0  0
    4.4091    1.3768    0.8006 O   0  0  0  0  0  0  0  0  0  0  0  0
    3.5889    0.2726    0.6608 C   0  0  0  0  0  0  0  0  0  0  0  0
    3.9140   -0.9785    1.1648 C   0  0  0  0  0  0  0  0  0  0  0  0
    3.0848   -2.0668    1.0156 C   0  0  0  0  0  0  0  0  0  0  0  0
    3.4132   -3.4120    1.5480 C   0  0  0  0  0  0  0  0  0  0  0  0
    1.8708   -1.9052    0.3307 C   0  0  0  0  0  0  0  0  0  0  0  0
    1.5027   -0.6845   -0.1878 C   0  0  0  0  0  0  0  0  0  0  0  0
    2.3775    0.3491    0.0001 C   0  0  0  0  0  0  0  0  0  0  0  0
    0.2761   -0.4699   -0.8968 N   0  0  0  0  0  0  0  0  0  0  0  0
   -0.6459   -1.4918   -1.2904 C   0  0  0  0  0  0  0  0  0  0  0  0
   -2.0206   -1.0280   -0.7818 C   0  0  0  0  0  0  0  0  0  0  0  0
   -2.4006    0.1778   -1.5138 N   0  0  0  0  0  0  0  0  0  0  0  0
   -1.3258    0.9933   -2.0239 C   0  0  0  0  0  0  0  0  0  0  0  0
   -0.0590    0.9051   -1.2385 C   0  0  0  0  0  0  0  0  0  0  0  0
   -3.7669    0.4831   -1.6916 C   0  0  0  0  0  0  0  0  0  0  0  0
   -4.1020    1.5006   -2.3245 O   0  0  0  0  0  0  0  0  0  0  0  0
   -4.7825   -0.3801   -1.1451 C   0  0  0  0  0  0  0  0  0  0  0  0
   -5.1734   -1.5005   -1.8921 C   0  0  0  0  0  0  0  0  0  0  0  0
   -6.1162   -2.3290   -1.3469 C   0  0  0  0  0  0  0  0  0  0  0  0
   -6.6506   -2.0757   -0.1311 N   0  0  0  0  0  0  0  0  0  0  0  0
   -6.2647   -0.9931    0.5766 C   0  0  0  0  0  0  0  0  0  0  0  0
   -5.3075   -0.0922    0.0955 C   0  0  0  0  0  0  0  0  0  0  0  0
   -4.8655    1.3167    1.0277 S   0  0  0  0  0  0  0  0  0  0  0  0
   -5.2435    2.7667    0.1557 N   0  0  0  0  0  0  0  0  0  0  0  0
   -3.4704    1.3305    1.5028 O   0  0  0  0  0  0  0  0  0  0  0  0
   -5.7563    1.3458    2.2609 O   0  0  0  0  0  0  0  0  0  0  0  0
    6.3653    2.2366    3.2892 H   0  0  0  0  0  0  0  0  0  0  0  0
    5.9193    3.5223    2.1450 H   0  0  0  0  0  0  0  0  0  0  0  0
    4.6374    2.5719    3.0454 H   0  0  0  0  0  0  0  0  0  0  0  0
    5.9038    0.5019    1.8838 H   0  0  0  0  0  0  0  0  0  0  0  0
    6.8975    0.9445   -0.1869 H   0  0  0  0  0  0  0  0  0  0  0  0
    6.1405    2.5632   -0.3099 H   0  0  0  0  0  0  0  0  0  0  0  0
    7.5585    2.3046    0.8509 H   0  0  0  0  0  0  0  0  0  0  0  0
    4.8310   -1.1609    1.6959 H   0  0  0  0  0  0  0  0  0  0  0  0
    4.4946   -3.5900    1.5412 H   0  0  0  0  0  0  0  0  0  0  0  0
    2.9792   -3.5606    2.5648 H   0  0  0  0  0  0  0  0  0  0  0  0
    2.9451   -4.1872    0.9079 H   0  0  0  0  0  0  0  0  0  0  0  0
    1.2191   -2.7557    0.2121 H   0  0  0  0  0  0  0  0  0  0  0  0
    2.1078    1.3195   -0.4008 H   0  0  0  0  0  0  0  0  0  0  0  0
   -0.4380   -2.4130   -0.7317 H   0  0  0  0  0  0  0  0  0  0  0  0
   -0.6755   -1.6475   -2.3882 H   0  0  0  0  0  0  0  0  0  0  0  0
   -2.7043   -1.8630   -0.9469 H   0  0  0  0  0  0  0  0  0  0  0  0
   -1.8627   -0.7616    0.2816 H   0  0  0  0  0  0  0  0  0  0  0  0
   -1.1186    0.7970   -3.1157 H   0  0  0  0  0  0  0  0  0  0  0  0
   -1.6697    2.0570   -2.0107 H   0  0  0  0  0  0  0  0  0  0  0  0
   -0.0757    1.5707   -0.3633 H   0  0  0  0  0  0  0  0  0  0  0  0
    0.7458    1.3267   -1.9063 H   0  0  0  0  0  0  0  0  0  0  0  0
   -4.7181   -1.6779   -2.8783 H   0  0  0  0  0  0  0  0  0  0  0  0
   -6.4393   -3.2042   -1.8997 H   0  0  0  0  0  0  0  0  0  0  0  0
   -6.6815   -0.7842    1.5387 H   0  0  0  0  0  0  0  0  0  0  0  0
   -4.5330    3.4971    0.2752 H   0  0  0  0  0  0  0  0  0  0  0  0
   -6.2169    3.0915    0.3533 H   0  0  0  0  0  0  0  0  0  0  0  0
  1  2  1  0
  2  3  1  0
  2  4  1  0
  4  5  1  0
  5  6  2  0
  6  7  1  0
  7  8  1  0
  7  9  2  0
  9 10  1  0
 10 11  2  0
 10 12  1  0
 12 13  1  0
 13 14  1  0
 14 15  1  0
 15 16  1  0
 16 17  1  0
 15 18  1  0
 18 19  2  0
 18 20  1  0
 20 21  2  0
 21 22  1  0
 22 23  2  0
 23 24  1  0
 24 25  2  0
 25 26  1  0
 26 27  1  0
 26 28  2  0
 26 29  2  0
 11  5  1  0
 17 12  1  0
 25 20  1  0
  1 30  1  0
  1 31  1  0
  1 32  1  0
  2 33  1  0
  3 34  1  0
  3 35  1  0
  3 36  1  0
  6 37  1  0
  8 38  1  0
  8 39  1  0
  8 40  1  0
  9 41  1  0
 11 42  1  0
 13 43  1  0
 13 44  1  0
 14 45  1  0
 14 46  1  0
 16 47  1  0
 16 48  1  0
 17 49  1  0
 17 50  1  0
 21 51  1  0
 22 52  1  0
 24 53  1  0
 27 54  1  0
 27 55  1  0
M  END
$$$$
[H]OC(=O)C([H])([H])C([H])([H])C(=O)N1C([H])([H])C([H])([H])N(c2c(-c3c([H])c([H])c([H])c(OC(F)(F)F)c3[H])c([H])nc3c([H])c([H])c(Cl)c([H])c23)C([H])([H])C1([H])[H]
     RDKit          3D

 56 59  0  0  0  0  0  0  0  0999 V2000
    7.1102   -1.7963    3.1522 O   0  0  0  0  0  0  0  0  0  0  0  0
    5.9357   -1.8737    2.4143 C   0  0  0  0  0  0  0  0  0  0  0  0
    5.3075   -2.9576    2.3630 O   0  0  0  0  0  0  0  0  0  0  0  0
    5.4374   -0.6858    1.6993 C   0  0  0  0  0  0  0  0  0  0  0  0
    4.1541   -1.0162    0.9756 C   0  0  0  0  0  0  0  0  0  0  0  0
    3.6303    0.1620    0.2466 C   0  0  0  0  0  0  0  0  0  0  0  0
    4.2800    1.2299    0.3049 O   0  0  0  0  0  0  0  0  0  0  0  0
    2.4403    0.0992   -0.4934 N   0  0  0  0  0  0  0  0  0  0  0  0
    1.9563    1.2499   -1.1873 C   0  0  0  0  0  0  0  0  0  0  0  0
    0.5226    1.4907   -0.8942 C   0  0  0  0  0  0  0  0  0  0  0  0
   -0.2896    0.2615   -0.8330 N   0  0  0  0  0  0  0  0  0  0  0  0
    0.2366   -0.8723   -0.1479 C   0  0  0  0  0  0  0  0  0  0  0  0
    1.6864   -1.1200   -0.5681 C   0  0  0  0  0  0  0  0  0  0  0  0
   -1.5477    0.3696   -1.4721 C   0  0  0  0  0  0  0  0  0  0  0  0
   -2.6332    0.8105   -0.7833 C   0  0  0  0  0  0  0  0  0  0  0  0
   -3.8802    0.9368   -1.4274 C   0  0  0  0  0  0  0  0  0  0  0  0
   -4.0211    0.6278   -2.7177 N   0  0  0  0  0  0  0  0  0  0  0  0
   -2.9633    0.1928   -3.4079 C   0  0  0  0  0  0  0  0  0  0  0  0
   -3.1431   -0.1123   -4.7336 C   0  0  0  0  0  0  0  0  0  0  0  0
   -2.0653   -0.5577   -5.4633 C   0  0  0  0  0  0  0  0  0  0  0  0
   -0.8200   -0.7068   -4.9117 C   0  0  0  0  0  0  0  0  0  0  0  0
    0.5591   -1.2800   -5.8582 Cl  0  0  0  0  0  0  0  0  0  0  0  0
   -0.6655   -0.3900   -3.5635 C   0  0  0  0  0  0  0  0  0  0  0  0
   -1.7300    0.0577   -2.8111 C   0  0  0  0  0  0  0  0  0  0  0  0
   -2.5359    1.1407    0.6253 C   0  0  0  0  0  0  0  0  0  0  0  0
   -2.4861    2.4327    1.0924 C   0  0  0  0  0  0  0  0  0  0  0  0
   -2.4455    2.6433    2.4497 C   0  0  0  0  0  0  0  0  0  0  0  0
   -2.4541    1.5919    3.3395 C   0  0  0  0  0  0  0  0  0  0  0  0
   -2.5037    0.2842    2.9052 C   0  0  0  0  0  0  0  0  0  0  0  0
   -2.5130   -0.7966    3.7970 O   0  0  0  0  0  0  0  0  0  0  0  0
   -3.8167   -1.2202    4.2108 C   0  0  0  0  0  0  0  0  0  0  0  0
   -4.5698   -1.6169    3.1114 F   0  0  0  0  0  0  0  0  0  0  0  0
   -4.4986   -0.1568    4.7971 F   0  0  0  0  0  0  0  0  0  0  0  0
   -3.7388   -2.2148    5.1640 F   0  0  0  0  0  0  0  0  0  0  0  0
   -2.5434    0.1119    1.5351 C   0  0  0  0  0  0  0  0  0  0  0  0
    7.0667   -1.9942    4.1400 H   0  0  0  0  0  0  0  0  0  0  0  0
    5.1937    0.1606    2.3903 H   0  0  0  0  0  0  0  0  0  0  0  0
    6.1641   -0.3434    0.9092 H   0  0  0  0  0  0  0  0  0  0  0  0
    3.4213   -1.3829    1.7468 H   0  0  0  0  0  0  0  0  0  0  0  0
    4.3079   -1.8992    0.2886 H   0  0  0  0  0  0  0  0  0  0  0  0
    2.1425    1.0674   -2.2846 H   0  0  0  0  0  0  0  0  0  0  0  0
    2.5162    2.1768   -0.9530 H   0  0  0  0  0  0  0  0  0  0  0  0
    0.4659    1.9997    0.1008 H   0  0  0  0  0  0  0  0  0  0  0  0
    0.1248    2.2219   -1.6160 H   0  0  0  0  0  0  0  0  0  0  0  0
    0.2622   -0.7873    0.9644 H   0  0  0  0  0  0  0  0  0  0  0  0
   -0.2988   -1.8159   -0.3663 H   0  0  0  0  0  0  0  0  0  0  0  0
    2.1341   -1.8521    0.1318 H   0  0  0  0  0  0  0  0  0  0  0  0
    1.7474   -1.5853   -1.5735 H   0  0  0  0  0  0  0  0  0  0  0  0
   -4.7133    1.2936   -0.8316 H   0  0  0  0  0  0  0  0  0  0  0  0
   -4.1369   -0.0034   -5.2131 H   0  0  0  0  0  0  0  0  0  0  0  0
   -2.1947   -0.8020   -6.5112 H   0  0  0  0  0  0  0  0  0  0  0  0
    0.2964   -0.5006   -3.1429 H   0  0  0  0  0  0  0  0  0  0  0  0
   -2.4791    3.2595    0.4040 H   0  0  0  0  0  0  0  0  0  0  0  0
   -2.4045    3.6685    2.8658 H   0  0  0  0  0  0  0  0  0  0  0  0
   -2.4222    1.7434    4.4212 H   0  0  0  0  0  0  0  0  0  0  0  0
   -2.5854   -0.9438    1.2196 H   0  0  0  0  0  0  0  0  0  0  0  0
  1  2  1  0
  2  3  2  0
  2  4  1  0
  4  5  1  0
  5  6  1  0
  6  7  2  0
  6  8  1  0
  8  9  1  0
  9 10  1  0
 10 11  1  0
 11 12  1  0
 12 13  1  0
 11 14  1  0
 14 15  1  0
 15 16  2  0
 16 17  1  0
 17 18  2  0
 18 19  1  0
 19 20  2  0
 20 21  1  0
 21 22  1  0
 21 23  2  0
 23 24  1  0
 15 25  1  0
 25 26  2  0
 26 27  1  0
 27 28  2  0
 28 29  1  0
 29 30  1  0
 30 31  1  0
 31 32  1  0
 31 33  1  0
 31 34  1  0
 29 35  2  0
 13  8  1  0
 24 14  2  0
 35 25  1  0
 24 18  1  0
  1 36  1  0
  4 37  1  0
  4 38  1  0
  5 39  1  0
  5 40  1  0
  9 41  1  0
  9 42  1  0
 10 43  1  0
 10 44  1  0
 12 45  1  0
 12 46  1  0
 13 47  1  0
 13 48  1  0
 16 49  1  0
 19 50  1  0
 20 51  1  0
 23 52  1  0
 26 53  1  0
 27 54  1  0
 28 55  1  0
 35 56  1  0
M  END
$$$$
[H]c1nc(N([H])c2sc(C#N)c(-c3c([H])nn([H])c3C([H])([H])[H])c2[H])c([H])c(F)c1Oc1c([H])c([H])c([H])c(N([H])C(=O)N([H])C([H])([H])[H])c1[H]
     RDKit          3D

 51 54  0  0  0  0  0  0  0  0999 V2000
    5.7095   -2.2580    0.0930 C   0  0  0  0  0  0  0  0  0  0  0  0
    6.4695   -1.3645   -0.7992 C   0  0  0  0  0  0  0  0  0  0  0  0
    7.2520   -1.8135   -1.8295 N   0  0  0  0  0  0  0  0  0  0  0  0
    7.7763   -0.8015   -2.4343 N   0  0  0  0  0  0  0  0  0  0  0  0
    7.3731    0.3520   -1.8343 C   0  0  0  0  0  0  0  0  0  0  0  0
    6.5400    0.0040   -0.7941 C   0  0  0  0  0  0  0  0  0  0  0  0
    5.8959    0.9302    0.1660 C   0  0  0  0  0  0  0  0  0  0  0  0
    4.6256    0.8306    0.5566 C   0  0  0  0  0  0  0  0  0  0  0  0
    4.1503    1.7014    1.4816 C   0  0  0  0  0  0  0  0  0  0  0  0
    2.8899    1.8742    2.0704 N   0  0  0  0  0  0  0  0  0  0  0  0
    1.6608    1.2940    1.6957 C   0  0  0  0  0  0  0  0  0  0  0  0
    0.6502    1.2495    2.6285 N   0  0  0  0  0  0  0  0  0  0  0  0
   -0.5411    0.8104    2.3696 C   0  0  0  0  0  0  0  0  0  0  0  0
   -0.9485    0.3200    1.0992 C   0  0  0  0  0  0  0  0  0  0  0  0
   -2.2390   -0.0723    1.0545 O   0  0  0  0  0  0  0  0  0  0  0  0
   -3.3580    0.4030    0.4658 C   0  0  0  0  0  0  0  0  0  0  0  0
   -3.6997    1.7691    0.6978 C   0  0  0  0  0  0  0  0  0  0  0  0
   -4.8120    2.2957    0.1569 C   0  0  0  0  0  0  0  0  0  0  0  0
   -5.6207    1.4998   -0.6168 C   0  0  0  0  0  0  0  0  0  0  0  0
   -5.2803    0.1901   -0.8268 C   0  0  0  0  0  0  0  0  0  0  0  0
   -6.2399   -0.7136   -1.4803 N   0  0  0  0  0  0  0  0  0  0  0  0
   -7.1796   -1.3162   -0.6534 C   0  0  0  0  0  0  0  0  0  0  0  0
   -6.7875   -0.8753    0.6736 O   0  0  0  0  0  0  0  0  0  0  0  0
   -8.2509   -2.0864   -0.5541 N   0  0  0  0  0  0  0  0  0  0  0  0
   -9.3539   -2.8791   -0.4450 C   0  0  0  0  0  0  0  0  0  0  0  0
   -4.1603   -0.4001   -0.3155 C   0  0  0  0  0  0  0  0  0  0  0  0
    0.0265    0.3310    0.1312 C   0  0  0  0  0  0  0  0  0  0  0  0
   -0.2773   -0.1238   -1.0814 F   0  0  0  0  0  0  0  0  0  0  0  0
    1.3073    0.8272    0.4825 C   0  0  0  0  0  0  0  0  0  0  0  0
    5.5474    2.6771    1.7937 S   0  0  0  0  0  0  0  0  0  0  0  0
    6.6492    1.9312    0.7445 C   0  0  0  0  0  0  0  0  0  0  0  0
    8.0513    2.2624    0.5197 C   0  0  0  0  0  0  0  0  0  0  0  0
    9.1661    2.4930    0.3631 N   0  0  0  0  0  0  0  0  0  0  0  0
    5.7836   -3.3318   -0.2825 H   0  0  0  0  0  0  0  0  0  0  0  0
    4.6381   -2.0747    0.1659 H   0  0  0  0  0  0  0  0  0  0  0  0
    6.1459   -2.3227    1.1113 H   0  0  0  0  0  0  0  0  0  0  0  0
    7.3966   -2.8439   -2.0964 H   0  0  0  0  0  0  0  0  0  0  0  0
    7.6382    1.3854   -2.1001 H   0  0  0  0  0  0  0  0  0  0  0  0
    3.9359    0.0603    0.1604 H   0  0  0  0  0  0  0  0  0  0  0  0
    2.8691    2.5381    2.9141 H   0  0  0  0  0  0  0  0  0  0  0  0
   -1.3524    0.7625    3.1189 H   0  0  0  0  0  0  0  0  0  0  0  0
   -3.0459    2.3611    1.3061 H   0  0  0  0  0  0  0  0  0  0  0  0
   -5.1362    3.3248    0.3009 H   0  0  0  0  0  0  0  0  0  0  0  0
   -6.5209    1.8971   -1.0661 H   0  0  0  0  0  0  0  0  0  0  0  0
   -6.1366   -0.8378   -2.4903 H   0  0  0  0  0  0  0  0  0  0  0  0
   -8.0037   -2.3462    0.7964 H   0  0  0  0  0  0  0  0  0  0  0  0
  -10.0129   -2.5284    0.4533 H   0  0  0  0  0  0  0  0  0  0  0  0
  -10.0758   -2.7750   -1.3134 H   0  0  0  0  0  0  0  0  0  0  0  0
   -9.2306   -3.9848   -0.3500 H   0  0  0  0  0  0  0  0  0  0  0  0
   -3.9005   -1.4627   -0.4993 H   0  0  0  0  0  0  0  0  0  0  0  0
    2.0158    0.8369   -0.3481 H   0  0  0  0  0  0  0  0  0  0  0  0
  1  2  1  0
  2  3  1  0
  3  4  1  0
  4  5  2  0
  5  6  1  0
  6  7  1  0
  7  8  1  0
  8  9  2  0
  9 10  1  0
 10 11  1  0
 11 12  2  0
 12 13  1  0
 13 14  2  0
 14 15  1  0
 15 16  1  0
 16 17  2  0
 17 18  1  0
 18 19  2  0
 19 20  1  0
 20 21  1  0
 21 22  1  0
 22 23  2  0
 22 24  1  0
 24 25  1  0
 20 26  2  0
 14 27  1  0
 27 28  1  0
 27 29  2  0
  9 30  1  0
 30 31  1  0
 31 32  1  0
 32 33  3  0
  6  2  2  0
 31  7  2  0
 29 11  1  0
 26 16  1  0
  1 34  1  0
  1 35  1  0
  1 36  1  0
  3 37  1  0
  5 38  1  0
  8 39  1  0
 10 40  1  0
 13 41  1  0
 17 42  1  0
 18 43  1  0
 19 44  1  0
 21 45  1  0
 24 46  1  0
 25 47  1  0
 25 48  1  0
 25 49  1  0
 26 50  1  0
 29 51  1  0
M  END
$$$$
[H]/C(=C(\N1SC([H])([H])C([H])([H])C1([H])[H])C([H])([H])[H])c1c([H])c([H])c(S(=O)(=O)c2c([H])c([H])c(N=C(c3c([H])c([H])c([H])c([H])c3[H])N([H])[H])c([H])c2[H])c([H])c1[H]
     RDKit          3D

 57 60  0  0  0  0  0  0  0  0999 V2000
    5.7133    1.5284   -1.4514 C   0  0  0  0  0  0  0  0  0  0  0  0
    5.7845    0.5710   -0.3245 C   0  0  0  0  0  0  0  0  0  0  0  0
    4.7378    0.2666    0.3606 C   0  0  0  0  0  0  0  0  0  0  0  0
    3.4197    0.8024    0.1171 C   0  0  0  0  0  0  0  0  0  0  0  0
    2.7148    1.2304    1.2565 C   0  0  0  0  0  0  0  0  0  0  0  0
    1.4450    1.7438    1.1853 C   0  0  0  0  0  0  0  0  0  0  0  0
    0.8420    1.8418   -0.0519 C   0  0  0  0  0  0  0  0  0  0  0  0
    1.5089    1.4297   -1.1865 C   0  0  0  0  0  0  0  0  0  0  0  0
    2.7874    0.9166   -1.0811 C   0  0  0  0  0  0  0  0  0  0  0  0
   -0.7797    2.4966   -0.1257 S   0  0  0  0  0  0  0  0  0  0  0  0
   -0.9927    3.1928   -1.4540 O   0  0  0  0  0  0  0  0  0  0  0  0
   -1.0344    3.4803    0.9771 O   0  0  0  0  0  0  0  0  0  0  0  0
   -1.9358    1.1982   -0.0325 C   0  0  0  0  0  0  0  0  0  0  0  0
   -2.4255    0.7331    1.1571 C   0  0  0  0  0  0  0  0  0  0  0  0
   -3.3271   -0.2812    1.1749 C   0  0  0  0  0  0  0  0  0  0  0  0
   -3.7945   -0.8931    0.0030 C   0  0  0  0  0  0  0  0  0  0  0  0
   -4.6768   -1.9209    0.0089 N   0  0  0  0  0  0  0  0  0  0  0  0
   -5.8299   -2.2424    0.0004 C   0  0  0  0  0  0  0  0  0  0  0  0
   -6.1567   -3.6699    0.0192 N   0  0  0  0  0  0  0  0  0  0  0  0
   -7.0025   -1.3666   -0.0303 C   0  0  0  0  0  0  0  0  0  0  0  0
   -8.2814   -1.9299   -0.0224 C   0  0  0  0  0  0  0  0  0  0  0  0
   -9.4027   -1.1548   -0.0509 C   0  0  0  0  0  0  0  0  0  0  0  0
   -9.3377    0.2164   -0.0889 C   0  0  0  0  0  0  0  0  0  0  0  0
   -8.0898    0.7699   -0.0967 C   0  0  0  0  0  0  0  0  0  0  0  0
   -6.9362    0.0015   -0.0682 C   0  0  0  0  0  0  0  0  0  0  0  0
   -3.2844   -0.4060   -1.2006 C   0  0  0  0  0  0  0  0  0  0  0  0
   -2.3853    0.6076   -1.1917 C   0  0  0  0  0  0  0  0  0  0  0  0
    7.0751    0.0172   -0.0452 N   0  0  0  0  0  0  0  0  0  0  0  0
    7.5271   -1.3433    0.0549 C   0  0  0  0  0  0  0  0  0  0  0  0
    8.5128   -1.4592    1.1670 C   0  0  0  0  0  0  0  0  0  0  0  0
    9.4998   -0.3393    1.1034 C   0  0  0  0  0  0  0  0  0  0  0  0
    8.5353    0.9658    0.2684 S   0  0  0  0  0  0  0  0  0  0  0  0
    4.9888    2.3399   -1.3257 H   0  0  0  0  0  0  0  0  0  0  0  0
    6.7129    2.0623   -1.5674 H   0  0  0  0  0  0  0  0  0  0  0  0
    5.6123    0.9832   -2.4341 H   0  0  0  0  0  0  0  0  0  0  0  0
    4.8236   -0.4485    1.1940 H   0  0  0  0  0  0  0  0  0  0  0  0
    3.1857    1.1548    2.2266 H   0  0  0  0  0  0  0  0  0  0  0  0
    0.9220    2.0659    2.0660 H   0  0  0  0  0  0  0  0  0  0  0  0
    1.0540    1.4985   -2.1638 H   0  0  0  0  0  0  0  0  0  0  0  0
    3.3274    0.5726   -1.9739 H   0  0  0  0  0  0  0  0  0  0  0  0
   -2.0979    1.1718    2.1120 H   0  0  0  0  0  0  0  0  0  0  0  0
   -3.7149   -0.6490    2.1166 H   0  0  0  0  0  0  0  0  0  0  0  0
   -6.1535   -4.2122   -0.8598 H   0  0  0  0  0  0  0  0  0  0  0  0
   -6.3931   -4.1525    0.9032 H   0  0  0  0  0  0  0  0  0  0  0  0
   -8.3710   -3.0156    0.0071 H   0  0  0  0  0  0  0  0  0  0  0  0
  -10.3759   -1.6248   -0.0437 H   0  0  0  0  0  0  0  0  0  0  0  0
  -10.2139    0.8587   -0.1123 H   0  0  0  0  0  0  0  0  0  0  0  0
   -8.0378    1.8540   -0.1269 H   0  0  0  0  0  0  0  0  0  0  0  0
   -5.9927    0.5137   -0.0786 H   0  0  0  0  0  0  0  0  0  0  0  0
   -3.6088   -0.8382   -2.1130 H   0  0  0  0  0  0  0  0  0  0  0  0
   -2.0152    0.9532   -2.1668 H   0  0  0  0  0  0  0  0  0  0  0  0
    8.0477   -1.5914   -0.8921 H   0  0  0  0  0  0  0  0  0  0  0  0
    6.6975   -2.0672    0.1685 H   0  0  0  0  0  0  0  0  0  0  0  0
    9.0194   -2.4475    1.0897 H   0  0  0  0  0  0  0  0  0  0  0  0
    7.9503   -1.3853    2.1273 H   0  0  0  0  0  0  0  0  0  0  0  0
    9.8346   -0.0125    2.1100 H   0  0  0  0  0  0  0  0  0  0  0  0
   10.3678   -0.5876    0.4433 H   0  0  0  0  0  0  0  0  0  0  0  0
  1  2  1  0
  2  3  2  0
  3  4  1  0
  4  5  2  0
  5  6  1  0
  6  7  2  0
  7  8  1  0
  8  9  2  0
  7 10  1  0
 10 11  2  0
 10 12  2  0
 10 13  1  0
 13 14  2  0
 14 15  1  0
 15 16  2  0
 16 17  1  0
 17 18  2  3
 18 19  1  0
 18 20  1  0
 20 21  2  0
 21 22  1  0
 22 23  2  0
 23 24  1  0
 24 25  2  0
 16 26  1  0
 26 27  2  0
  2 28  1  0
 28 29  1  0
 29 30  1  0
 30 31  1  0
 31 32  1  0
  9  4  1  0
 27 13  1  0
 32 28  1  0
 25 20  1  0
  1 33  1  0
  1 34  1  0
  1 35  1  0
  3 36  1  0
  5 37  1  0
  6 38  1  0
  8 39  1  0
  9 40  1  0
 14 41  1  0
 15 42  1  0
 19 43  1  0
 19 44  1  0
 21 45  1  0
 22 46  1  0
 23 47  1  0
 24 48  1  0
 25 49  1  0
 26 50  1  0
 27 51  1  0
 29 52  1  0
 29 53  1  0
 30 54  1  0
 30 55  1  0
 31 56  1  0
 31 57  1  0
M  END
$$$$
[H]OC(c1c([H])nn(-c2c([H])c([H])c(-c3c([H])c([H])c4c(nc([H])n4[H])c3[H])c([H])c2[H])c1C1([H])C([H])([H])C([H])([H])N(C([H])([H])C([H])([H])[H])C([H])([H])C1([H])[H])(C([H])([H])[H])C([H])([H])[H]
     RDKit          3D

 63 67  0  0  0  0  0  0  0  0999 V2000
   -3.5852    4.3022    0.7218 C   0  0  0  0  0  0  0  0  0  0  0  0
   -3.5445    3.1585   -0.2562 C   0  0  0  0  0  0  0  0  0  0  0  0
   -2.2597    2.4869   -0.1918 N   0  0  0  0  0  0  0  0  0  0  0  0
   -2.1304    1.8178    1.0687 C   0  0  0  0  0  0  0  0  0  0  0  0
   -1.2194    0.5840    0.8238 C   0  0  0  0  0  0  0  0  0  0  0  0
   -2.1162   -0.4404    0.2296 C   0  0  0  0  0  0  0  0  0  0  0  0
   -2.6910    0.2248   -1.0353 C   0  0  0  0  0  0  0  0  0  0  0  0
   -2.0439    1.5887   -1.2792 C   0  0  0  0  0  0  0  0  0  0  0  0
   -1.5776   -1.7667   -0.0430 C   0  0  0  0  0  0  0  0  0  0  0  0
   -2.3829   -2.8776   -0.2662 C   0  0  0  0  0  0  0  0  0  0  0  0
   -1.5175   -3.9205   -0.4999 C   0  0  0  0  0  0  0  0  0  0  0  0
   -0.2764   -3.5089   -0.4311 N   0  0  0  0  0  0  0  0  0  0  0  0
   -0.3222   -2.1826   -0.1501 N   0  0  0  0  0  0  0  0  0  0  0  0
    0.9082   -1.5002   -0.0360 C   0  0  0  0  0  0  0  0  0  0  0  0
    1.5139   -1.3615    1.1625 C   0  0  0  0  0  0  0  0  0  0  0  0
    2.7311   -0.7225    1.2669 C   0  0  0  0  0  0  0  0  0  0  0  0
    3.3341   -0.2197    0.1256 C   0  0  0  0  0  0  0  0  0  0  0  0
    2.7384   -0.3475   -1.1076 C   0  0  0  0  0  0  0  0  0  0  0  0
    1.5124   -1.0007   -1.1488 C   0  0  0  0  0  0  0  0  0  0  0  0
    4.6356    0.4674    0.2037 C   0  0  0  0  0  0  0  0  0  0  0  0
    5.5887    0.1275    1.1398 C   0  0  0  0  0  0  0  0  0  0  0  0
    6.8220    0.7691    1.2233 C   0  0  0  0  0  0  0  0  0  0  0  0
    7.0959    1.7930    0.3222 C   0  0  0  0  0  0  0  0  0  0  0  0
    8.1441    2.5937    0.1266 N   0  0  0  0  0  0  0  0  0  0  0  0
    7.8966    3.4315   -0.8983 C   0  0  0  0  0  0  0  0  0  0  0  0
    6.6573    3.1629   -1.3744 N   0  0  0  0  0  0  0  0  0  0  0  0
    6.1666    2.1513   -0.6188 C   0  0  0  0  0  0  0  0  0  0  0  0
    4.9557    1.4934   -0.6715 C   0  0  0  0  0  0  0  0  0  0  0  0
   -3.8489   -3.0369   -0.2706 C   0  0  0  0  0  0  0  0  0  0  0  0
   -4.4547   -2.8184    1.1081 C   0  0  0  0  0  0  0  0  0  0  0  0
   -4.1854   -4.4749   -0.6122 C   0  0  0  0  0  0  0  0  0  0  0  0
   -4.5030   -2.2610   -1.2221 O   0  0  0  0  0  0  0  0  0  0  0  0
   -2.5791    4.5901    1.1020 H   0  0  0  0  0  0  0  0  0  0  0  0
   -4.2781    4.0230    1.5494 H   0  0  0  0  0  0  0  0  0  0  0  0
   -4.0137    5.1755    0.1929 H   0  0  0  0  0  0  0  0  0  0  0  0
   -4.3061    2.3824    0.0004 H   0  0  0  0  0  0  0  0  0  0  0  0
   -3.7031    3.4683   -1.3085 H   0  0  0  0  0  0  0  0  0  0  0  0
   -1.5770    2.4893    1.7802 H   0  0  0  0  0  0  0  0  0  0  0  0
   -3.0740    1.4627    1.5022 H   0  0  0  0  0  0  0  0  0  0  0  0
   -0.9533    0.3112    1.8748 H   0  0  0  0  0  0  0  0  0  0  0  0
   -0.4158    0.9766    0.2223 H   0  0  0  0  0  0  0  0  0  0  0  0
   -2.9606   -0.5569    0.9681 H   0  0  0  0  0  0  0  0  0  0  0  0
   -3.7686    0.4609   -0.8715 H   0  0  0  0  0  0  0  0  0  0  0  0
   -2.4856   -0.3537   -1.9437 H   0  0  0  0  0  0  0  0  0  0  0  0
   -1.0096    1.5082   -1.6365 H   0  0  0  0  0  0  0  0  0  0  0  0
   -2.6320    2.0028   -2.1522 H   0  0  0  0  0  0  0  0  0  0  0  0
   -1.7678   -4.9727   -0.7179 H   0  0  0  0  0  0  0  0  0  0  0  0
    1.0958   -1.7337    2.0997 H   0  0  0  0  0  0  0  0  0  0  0  0
    3.2475   -0.5916    2.2126 H   0  0  0  0  0  0  0  0  0  0  0  0
    3.1691    0.0274   -2.0208 H   0  0  0  0  0  0  0  0  0  0  0  0
    1.0346   -1.1063   -2.1182 H   0  0  0  0  0  0  0  0  0  0  0  0
    5.3797   -0.6709    1.8465 H   0  0  0  0  0  0  0  0  0  0  0  0
    7.5704    0.5026    1.9580 H   0  0  0  0  0  0  0  0  0  0  0  0
    9.0229    2.5560    0.7033 H   0  0  0  0  0  0  0  0  0  0  0  0
    8.5773    4.1891   -1.2731 H   0  0  0  0  0  0  0  0  0  0  0  0
    4.2475    1.8082   -1.4315 H   0  0  0  0  0  0  0  0  0  0  0  0
   -3.6592   -2.9571    1.8560 H   0  0  0  0  0  0  0  0  0  0  0  0
   -4.9759   -1.8338    1.1860 H   0  0  0  0  0  0  0  0  0  0  0  0
   -5.2334   -3.5756    1.3281 H   0  0  0  0  0  0  0  0  0  0  0  0
   -5.2793   -4.6646   -0.6140 H   0  0  0  0  0  0  0  0  0  0  0  0
   -3.7628   -5.0849    0.2388 H   0  0  0  0  0  0  0  0  0  0  0  0
   -3.7926   -4.7865   -1.5824 H   0  0  0  0  0  0  0  0  0  0  0  0
   -5.1585   -2.7591   -1.7567 H   0  0  0  0  0  0  0  0  0  0  0  0
  1  2  1  0
  2  3  1  0
  3  4  1  0
  4  5  1  0
  5  6  1  0
  6  7  1  0
  7  8  1  0
  6  9  1  0
  9 10  2  0
 10 11  1  0
 11 12  2  0
 12 13  1  0
 13 14  1  0
 14 15  2  0
 15 16  1  0
 16 17  2  0
 17 18  1  0
 18 19  2  0
 17 20  1  0
 20 21  2  0
 21 22  1  0
 22 23  2  0
 23 24  1  0
 24 25  1  0
 25 26  2  0
 26 27  1  0
 27 28  2  0
 10 29  1  0
 29 30  1  0
 29 31  1  0
 29 32  1  0
  8  3  1  0
 13  9  1  0
 19 14  1  0
 28 20  1  0
 27 23  1  0
  1 33  1  0
  1 34  1  0
  1 35  1  0
  2 36  1  0
  2 37  1  0
  4 38  1  0
  4 39  1  0
  5 40  1  0
  5 41  1  0
  6 42  1  0
  7 43  1  0
  7 44  1  0
  8 45  1  0
  8 46  1  0
 11 47  1  0
 15 48  1  0
 16 49  1  0
 18 50  1  0
 19 51  1  0
 21 52  1  0
 22 53  1  0
 24 54  1  0
 25 55  1  0
 28 56  1  0
 30 57  1  0
 30 58  1  0
 30 59  1  0
 31 60  1  0
 31 61  1  0
 31 62  1  0
 32 63  1  0
M  END
$$$$
[H]c1c([H])c([H])c(C([H])([H])[C@@]([H])(C(=O)N([H])C([H])(C(=O)N(C([H])([H])[H])C([H])([H])[H])C([H])([H])C([H])([H])OC(C([H])([H])[H])(C([H])([H])[H])C([H])([H])[H])N([H])C(=O)[C@@]([H])(N([H])C(=O)[C@]([H])(N([H])C(=O)[C@]2([H])N([H])C([H])([H])C([H])([H])C2([H])[H])C([H])([H])c2c([H])n([H])c3c([H])c([H])c([H])c([H])c23)C([H])([H])C2([H])C([H])([H])C([H])([H])C([H])([H])C([H])([H])C2([H])[H])c([H])c1[H]
     RDKit          3D

120124  0  0  0  0  0  0  0  0999 V2000
    8.3708    2.1385   -3.5025 C   0  0  0  0  0  0  0  0  0  0  0  0
    6.9059    2.0667   -3.8460 C   0  0  0  0  0  0  0  0  0  0  0  0
    6.6071    3.3868   -4.5828 C   0  0  0  0  0  0  0  0  0  0  0  0
    6.5695    0.9764   -4.8172 C   0  0  0  0  0  0  0  0  0  0  0  0
    6.1031    2.0764   -2.7128 O   0  0  0  0  0  0  0  0  0  0  0  0
    4.7609    1.9628   -3.0380 C   0  0  0  0  0  0  0  0  0  0  0  0
    3.8998    2.0119   -1.8396 C   0  0  0  0  0  0  0  0  0  0  0  0
    4.1053    0.8979   -0.8460 C   0  0  0  0  0  0  0  0  0  0  0  0
    3.1181    1.1754    0.2260 N   0  0  0  0  0  0  0  0  0  0  0  0
    2.2072    0.1848    0.6887 C   0  0  0  0  0  0  0  0  0  0  0  0
    2.2995   -0.9358    0.1601 O   0  0  0  0  0  0  0  0  0  0  0  0
    1.2375    0.5539    1.7303 C   0  0  2  0  0  0  0  0  0  0  0  0
    1.9455    0.9838    2.9764 C   0  0  0  0  0  0  0  0  0  0  0  0
    2.8017    0.0074    3.6433 C   0  0  0  0  0  0  0  0  0  0  0  0
    4.1118   -0.1993    3.3589 C   0  0  0  0  0  0  0  0  0  0  0  0
    4.8703   -1.1186    4.0332 C   0  0  0  0  0  0  0  0  0  0  0  0
    4.2895   -1.8659    5.0399 C   0  0  0  0  0  0  0  0  0  0  0  0
    2.9765   -1.7033    5.3733 C   0  0  0  0  0  0  0  0  0  0  0  0
    2.2576   -0.7698    4.6692 C   0  0  0  0  0  0  0  0  0  0  0  0
    0.2682   -0.4579    2.0719 N   0  0  0  0  0  0  0  0  0  0  0  0
   -1.0103   -0.5991    1.4931 C   0  0  0  0  0  0  0  0  0  0  0  0
   -1.2899    0.2107    0.5617 O   0  0  0  0  0  0  0  0  0  0  0  0
   -2.0337   -1.5726    1.8686 C   0  0  2  0  0  0  0  0  0  0  0  0
   -1.7439   -2.9255    2.2591 C   0  0  0  0  0  0  0  0  0  0  0  0
   -1.0937   -3.9432    1.4423 C   0  0  0  0  0  0  0  0  0  0  0  0
   -1.7180   -4.3446    0.1517 C   0  0  0  0  0  0  0  0  0  0  0  0
   -1.1996   -5.6947   -0.2842 C   0  0  0  0  0  0  0  0  0  0  0  0
    0.2887   -5.6936   -0.3641 C   0  0  0  0  0  0  0  0  0  0  0  0
    0.9285   -5.1907    0.9189 C   0  0  0  0  0  0  0  0  0  0  0  0
    0.3950   -3.7910    1.2278 C   0  0  0  0  0  0  0  0  0  0  0  0
   -3.1831   -1.5214    0.9964 N   0  0  0  0  0  0  0  0  0  0  0  0
   -4.1609   -0.4596    0.9543 C   0  0  0  0  0  0  0  0  0  0  0  0
   -4.0354    0.4946    1.6903 O   0  0  0  0  0  0  0  0  0  0  0  0
   -5.2986   -0.5753   -0.0093 C   0  0  1  0  0  0  0  0  0  0  0  0
   -6.4979   -1.0664    0.7205 C   0  0  0  0  0  0  0  0  0  0  0  0
   -7.0078   -0.2136    1.8110 C   0  0  0  0  0  0  0  0  0  0  0  0
   -6.6156   -0.2790    3.1601 C   0  0  0  0  0  0  0  0  0  0  0  0
   -7.2355    0.6799    3.8673 N   0  0  0  0  0  0  0  0  0  0  0  0
   -8.0356    1.3982    3.0656 C   0  0  0  0  0  0  0  0  0  0  0  0
   -8.8798    2.4606    3.3011 C   0  0  0  0  0  0  0  0  0  0  0  0
   -9.6376    3.0355    2.2750 C   0  0  0  0  0  0  0  0  0  0  0  0
   -9.4800    2.4699    1.0359 C   0  0  0  0  0  0  0  0  0  0  0  0
   -8.6427    1.4130    0.7935 C   0  0  0  0  0  0  0  0  0  0  0  0
   -7.8985    0.8459    1.7835 C   0  0  0  0  0  0  0  0  0  0  0  0
   -5.4338    0.7095   -0.6313 N   0  0  0  0  0  0  0  0  0  0  0  0
   -4.9881    0.8153   -1.9771 C   0  0  0  0  0  0  0  0  0  0  0  0
   -4.4991   -0.1986   -2.5291 O   0  0  0  0  0  0  0  0  0  0  0  0
   -5.0564    2.0363   -2.7649 C   0  0  1  0  0  0  0  0  0  0  0  0
   -5.2949    3.2529   -1.9574 C   0  0  0  0  0  0  0  0  0  0  0  0
   -4.7211    4.3357   -2.8767 C   0  0  0  0  0  0  0  0  0  0  0  0
   -3.6274    3.6483   -3.6496 C   0  0  0  0  0  0  0  0  0  0  0  0
   -3.8080    2.2123   -3.5043 N   0  0  0  0  0  0  0  0  0  0  0  0
    5.4782    0.9705   -0.3013 C   0  0  0  0  0  0  0  0  0  0  0  0
    5.7479    1.9400    0.4436 O   0  0  0  0  0  0  0  0  0  0  0  0
    6.4867    0.0130   -0.5692 N   0  0  0  0  0  0  0  0  0  0  0  0
    7.8068    0.2043    0.0126 C   0  0  0  0  0  0  0  0  0  0  0  0
    6.2824   -1.1758   -1.3662 C   0  0  0  0  0  0  0  0  0  0  0  0
    8.4981    2.6071   -2.5136 H   0  0  0  0  0  0  0  0  0  0  0  0
    8.7784    1.0859   -3.4619 H   0  0  0  0  0  0  0  0  0  0  0  0
    8.9386    2.7472   -4.2391 H   0  0  0  0  0  0  0  0  0  0  0  0
    5.7251    3.2477   -5.2433 H   0  0  0  0  0  0  0  0  0  0  0  0
    7.5078    3.6420   -5.1750 H   0  0  0  0  0  0  0  0  0  0  0  0
    6.4040    4.1724   -3.8432 H   0  0  0  0  0  0  0  0  0  0  0  0
    6.2821    0.0283   -4.3547 H   0  0  0  0  0  0  0  0  0  0  0  0
    7.4987    0.7583   -5.4131 H   0  0  0  0  0  0  0  0  0  0  0  0
    5.7803    1.3454   -5.5180 H   0  0  0  0  0  0  0  0  0  0  0  0
    4.4684    2.8135   -3.7126 H   0  0  0  0  0  0  0  0  0  0  0  0
    4.5466    1.0587   -3.6638 H   0  0  0  0  0  0  0  0  0  0  0  0
    4.1369    2.9552   -1.2555 H   0  0  0  0  0  0  0  0  0  0  0  0
    2.8038    2.0198   -2.0771 H   0  0  0  0  0  0  0  0  0  0  0  0
    3.8972   -0.0854   -1.2585 H   0  0  0  0  0  0  0  0  0  0  0  0
    3.1146    2.1301    0.6325 H   0  0  0  0  0  0  0  0  0  0  0  0
    0.7066    1.4548    1.2844 H   0  0  0  0  0  0  0  0  0  0  0  0
    1.1078    1.2683    3.6982 H   0  0  0  0  0  0  0  0  0  0  0  0
    2.4967    1.9406    2.8550 H   0  0  0  0  0  0  0  0  0  0  0  0
    4.6385    0.3619    2.5973 H   0  0  0  0  0  0  0  0  0  0  0  0
    5.9286   -1.2886    3.8012 H   0  0  0  0  0  0  0  0  0  0  0  0
    4.8756   -2.6053    5.5924 H   0  0  0  0  0  0  0  0  0  0  0  0
    2.4943   -2.2883    6.1748 H   0  0  0  0  0  0  0  0  0  0  0  0
    1.2113   -0.6413    4.9556 H   0  0  0  0  0  0  0  0  0  0  0  0
    0.5363   -1.1527    2.8070 H   0  0  0  0  0  0  0  0  0  0  0  0
   -2.4660   -1.0591    2.8342 H   0  0  0  0  0  0  0  0  0  0  0  0
   -1.1276   -2.8753    3.2305 H   0  0  0  0  0  0  0  0  0  0  0  0
   -2.7180   -3.3538    2.6824 H   0  0  0  0  0  0  0  0  0  0  0  0
   -1.1384   -4.9112    2.0758 H   0  0  0  0  0  0  0  0  0  0  0  0
   -2.8247   -4.4930    0.2251 H   0  0  0  0  0  0  0  0  0  0  0  0
   -1.4433   -3.6511   -0.6967 H   0  0  0  0  0  0  0  0  0  0  0  0
   -1.5114   -6.5227    0.3868 H   0  0  0  0  0  0  0  0  0  0  0  0
   -1.5664   -5.8651   -1.3415 H   0  0  0  0  0  0  0  0  0  0  0  0
    0.6377   -6.7341   -0.5166 H   0  0  0  0  0  0  0  0  0  0  0  0
    0.6943   -5.1110   -1.2059 H   0  0  0  0  0  0  0  0  0  0  0  0
    2.0119   -5.1780    0.7718 H   0  0  0  0  0  0  0  0  0  0  0  0
    0.6627   -5.8640    1.7497 H   0  0  0  0  0  0  0  0  0  0  0  0
    0.9547   -3.4136    2.0808 H   0  0  0  0  0  0  0  0  0  0  0  0
    0.5644   -3.2009    0.2845 H   0  0  0  0  0  0  0  0  0  0  0  0
   -3.3497   -2.2940    0.3303 H   0  0  0  0  0  0  0  0  0  0  0  0
   -5.0118   -1.3171   -0.8112 H   0  0  0  0  0  0  0  0  0  0  0  0
   -7.3452   -1.2487   -0.0207 H   0  0  0  0  0  0  0  0  0  0  0  0
   -6.3288   -2.1055    1.1465 H   0  0  0  0  0  0  0  0  0  0  0  0
   -5.9169   -1.0015    3.5513 H   0  0  0  0  0  0  0  0  0  0  0  0
   -7.0986    0.8298    4.8925 H   0  0  0  0  0  0  0  0  0  0  0  0
   -9.0187    2.9167    4.2729 H   0  0  0  0  0  0  0  0  0  0  0  0
  -10.2930    3.8746    2.4785 H   0  0  0  0  0  0  0  0  0  0  0  0
  -10.0555    2.8722    0.1838 H   0  0  0  0  0  0  0  0  0  0  0  0
   -8.5319    0.9669   -0.1998 H   0  0  0  0  0  0  0  0  0  0  0  0
   -5.8087    1.5212   -0.1519 H   0  0  0  0  0  0  0  0  0  0  0  0
   -5.9091    1.9546   -3.5062 H   0  0  0  0  0  0  0  0  0  0  0  0
   -4.8101    3.2900   -0.9721 H   0  0  0  0  0  0  0  0  0  0  0  0
   -6.3871    3.4530   -1.7967 H   0  0  0  0  0  0  0  0  0  0  0  0
   -5.4966    4.6257   -3.6409 H   0  0  0  0  0  0  0  0  0  0  0  0
   -4.3974    5.2035   -2.2928 H   0  0  0  0  0  0  0  0  0  0  0  0
   -3.6922    3.8299   -4.7583 H   0  0  0  0  0  0  0  0  0  0  0  0
   -2.6325    4.0057   -3.3400 H   0  0  0  0  0  0  0  0  0  0  0  0
   -3.0406    1.8635   -2.8761 H   0  0  0  0  0  0  0  0  0  0  0  0
    8.5027    0.6089   -0.7375 H   0  0  0  0  0  0  0  0  0  0  0  0
    8.2004   -0.7829    0.3427 H   0  0  0  0  0  0  0  0  0  0  0  0
    7.7859    0.8508    0.9100 H   0  0  0  0  0  0  0  0  0  0  0  0
    7.2263   -1.6818   -1.5610 H   0  0  0  0  0  0  0  0  0  0  0  0
    5.6326   -1.8952   -0.8047 H   0  0  0  0  0  0  0  0  0  0  0  0
    5.6773   -0.9574   -2.2851 H   0  0  0  0  0  0  0  0  0  0  0  0
  1  2  1  0
  2  3  1  0
  2  4  1  0
  2  5  1  0
  5  6  1  0
  6  7  1  0
  7  8  1  0
  8  9  1  0
  9 10  1  0
 10 11  2  0
 10 12  1  0
 12 13  1  0
 13 14  1  0
 14 15  2  0
 15 16  1  0
 16 17  2  0
 17 18  1  0
 18 19  2  0
 12 20  1  0
 20 21  1  0
 21 22  2  0
 21 23  1  0
 23 24  1  0
 24 25  1  0
 25 26  1  0
 26 27  1  0
 27 28  1  0
 28 29  1  0
 29 30  1  0
 23 31  1  0
 31 32  1  0
 32 33  2  0
 32 34  1  0
 34 35  1  0
 35 36  1  0
 36 37  2  0
 37 38  1  0
 38 39  1  0
 39 40  2  0
 40 41  1  0
 41 42  2  0
 42 43  1  0
 43 44  2  0
 34 45  1  0
 45 46  1  0
 46 47  2  0
 46 48  1  0
 48 49  1  0
 49 50  1  0
 50 51  1  0
 51 52  1  0
  8 53  1  0
 53 54  2  0
 53 55  1  0
 55 56  1  0
 55 57  1  0
 19 14  1  0
 30 25  1  0
 44 36  1  0
 52 48  1  0
 44 39  1  0
  1 58  1  0
  1 59  1  0
  1 60  1  0
  3 61  1  0
  3 62  1  0
  3 63  1  0
  4 64  1  0
  4 65  1  0
  4 66  1  0
  6 67  1  0
  6 68  1  0
  7 69  1  0
  7 70  1  0
  8 71  1  0
  9 72  1  0
 12 73  1  6
 13 74  1  0
 13 75  1  0
 15 76  1  0
 16 77  1  0
 17 78  1  0
 18 79  1  0
 19 80  1  0
 20 81  1  0
 23 82  1  1
 24 83  1  0
 24 84  1  0
 25 85  1  0
 26 86  1  0
 26 87  1  0
 27 88  1  0
 27 89  1  0
 28 90  1  0
 28 91  1  0
 29 92  1  0
 29 93  1  0
 30 94  1  0
 30 95  1  0
 31 96  1  0
 34 97  1  6
 35 98  1  0
 35 99  1  0
 37100  1  0
 38101  1  0
 40102  1  0
 41103  1  0
 42104  1  0
 43105  1  0
 45106  1  0
 48107  1  6
 49108  1  0
 49109  1  0
 50110  1  0
 50111  1  0
 51112  1  0
 51113  1  0
 52114  1  0
 56115  1  0
 56116  1  0
 56117  1  0
 57118  1  0
 57119  1  0
 57120  1  0
M  END
$$$$
[H]O[C@]([H])(C([H])([H])N([H])[H])C([H])([H])N([H])C(=O)c1c([H])nc([H])c(-c2c([H])c([H])c([H])c(C([H])([H])N([H])c3c([H])c([H])nc4c([H])c([H])c([H])c([H])c34)c2[H])c1S(=O)(=O)N([H])[H]
     RDKit          3D

 62 65  0  0  0  0  0  0  0  0999 V2000
    1.9199   -0.2111    2.5743 N   0  0  0  0  0  0  0  0  0  0  0  0
    1.8425   -0.1107    0.8794 S   0  0  0  0  0  0  0  0  0  0  0  0
    0.4685    0.4698    0.5250 O   0  0  0  0  0  0  0  0  0  0  0  0
    2.7851    0.9929    0.3826 O   0  0  0  0  0  0  0  0  0  0  0  0
    2.1636   -1.5817    0.0336 C   0  0  0  0  0  0  0  0  0  0  0  0
    3.4752   -1.9003   -0.2977 C   0  0  0  0  0  0  0  0  0  0  0  0
    4.6204   -1.1051    0.1115 C   0  0  0  0  0  0  0  0  0  0  0  0
    4.7725   -0.7654    1.3027 O   0  0  0  0  0  0  0  0  0  0  0  0
    5.5732   -0.7159   -0.8447 N   0  0  0  0  0  0  0  0  0  0  0  0
    6.7221    0.0514   -0.5485 C   0  0  0  0  0  0  0  0  0  0  0  0
    6.3658    1.4143   -0.0344 C   0  0  2  0  0  0  0  0  0  0  0  0
    5.6270    2.1131   -1.0024 O   0  0  0  0  0  0  0  0  0  0  0  0
    7.6568    2.2022    0.1498 C   0  0  0  0  0  0  0  0  0  0  0  0
    7.2728    3.5363    0.5944 N   0  0  0  0  0  0  0  0  0  0  0  0
    3.6636   -3.0708   -1.0457 C   0  0  0  0  0  0  0  0  0  0  0  0
    2.6493   -3.8516   -1.4282 N   0  0  0  0  0  0  0  0  0  0  0  0
    1.3832   -3.5479   -1.1084 C   0  0  0  0  0  0  0  0  0  0  0  0
    1.1240   -2.3868   -0.3581 C   0  0  0  0  0  0  0  0  0  0  0  0
   -0.2376   -2.1147    0.0275 C   0  0  0  0  0  0  0  0  0  0  0  0
   -0.6683   -2.1926    1.3344 C   0  0  0  0  0  0  0  0  0  0  0  0
   -1.9670   -1.9187    1.7098 C   0  0  0  0  0  0  0  0  0  0  0  0
   -2.8946   -1.5438    0.7193 C   0  0  0  0  0  0  0  0  0  0  0  0
   -2.5118   -1.4563   -0.5775 C   0  0  0  0  0  0  0  0  0  0  0  0
   -3.4356   -1.0684   -1.6611 C   0  0  0  0  0  0  0  0  0  0  0  0
   -4.1757    0.1129   -1.2632 N   0  0  0  0  0  0  0  0  0  0  0  0
   -5.4708    0.1081   -0.7455 C   0  0  0  0  0  0  0  0  0  0  0  0
   -6.2746   -1.0148   -0.7477 C   0  0  0  0  0  0  0  0  0  0  0  0
   -7.5612   -0.9579   -0.2782 C   0  0  0  0  0  0  0  0  0  0  0  0
   -8.0427    0.1891    0.1849 N   0  0  0  0  0  0  0  0  0  0  0  0
   -7.3266    1.3139    0.2191 C   0  0  0  0  0  0  0  0  0  0  0  0
   -7.8717    2.4679    0.7112 C   0  0  0  0  0  0  0  0  0  0  0  0
   -7.1587    3.6407    0.7638 C   0  0  0  0  0  0  0  0  0  0  0  0
   -5.8675    3.6244    0.3038 C   0  0  0  0  0  0  0  0  0  0  0  0
   -5.2999    2.4564   -0.1999 C   0  0  0  0  0  0  0  0  0  0  0  0
   -6.0215    1.2963   -0.2468 C   0  0  0  0  0  0  0  0  0  0  0  0
   -1.1704   -1.7468   -0.9105 C   0  0  0  0  0  0  0  0  0  0  0  0
    1.0220   -0.1770    3.0676 H   0  0  0  0  0  0  0  0  0  0  0  0
    2.6867    0.3517    2.9996 H   0  0  0  0  0  0  0  0  0  0  0  0
    5.4020   -1.0285   -1.8539 H   0  0  0  0  0  0  0  0  0  0  0  0
    7.3800    0.1244   -1.4641 H   0  0  0  0  0  0  0  0  0  0  0  0
    7.2956   -0.5277    0.2411 H   0  0  0  0  0  0  0  0  0  0  0  0
    5.7947    1.3349    0.8827 H   0  0  0  0  0  0  0  0  0  0  0  0
    5.9402    1.7817   -1.8984 H   0  0  0  0  0  0  0  0  0  0  0  0
    8.1867    2.2070   -0.8173 H   0  0  0  0  0  0  0  0  0  0  0  0
    8.2549    1.6665    0.9242 H   0  0  0  0  0  0  0  0  0  0  0  0
    7.9843    4.1947    0.2430 H   0  0  0  0  0  0  0  0  0  0  0  0
    6.2979    3.7482    0.2702 H   0  0  0  0  0  0  0  0  0  0  0  0
    4.6980   -3.3358   -1.3170 H   0  0  0  0  0  0  0  0  0  0  0  0
    0.5347   -4.1523   -1.3976 H   0  0  0  0  0  0  0  0  0  0  0  0
    0.0597   -2.4958    2.0848 H   0  0  0  0  0  0  0  0  0  0  0  0
   -2.3080   -1.9792    2.7387 H   0  0  0  0  0  0  0  0  0  0  0  0
   -3.8941   -1.3299    1.0293 H   0  0  0  0  0  0  0  0  0  0  0  0
   -4.0965   -1.9134   -1.9183 H   0  0  0  0  0  0  0  0  0  0  0  0
   -2.8357   -0.8124   -2.5943 H   0  0  0  0  0  0  0  0  0  0  0  0
   -3.6585    1.0444   -1.4043 H   0  0  0  0  0  0  0  0  0  0  0  0
   -5.8702   -1.9589   -1.1296 H   0  0  0  0  0  0  0  0  0  0  0  0
   -8.1697   -1.8595   -0.2933 H   0  0  0  0  0  0  0  0  0  0  0  0
   -8.8919    2.4872    1.0765 H   0  0  0  0  0  0  0  0  0  0  0  0
   -7.5787    4.5623    1.1512 H   0  0  0  0  0  0  0  0  0  0  0  0
   -5.2314    4.5023    0.3070 H   0  0  0  0  0  0  0  0  0  0  0  0
   -4.2657    2.5132   -0.5431 H   0  0  0  0  0  0  0  0  0  0  0  0
   -0.8663   -1.6766   -1.9455 H   0  0  0  0  0  0  0  0  0  0  0  0
  1  2  1  0
  2  3  2  0
  2  4  2  0
  2  5  1  0
  5  6  2  0
  6  7  1  0
  7  8  2  0
  7  9  1  0
  9 10  1  0
 10 11  1  0
 11 12  1  0
 11 13  1  0
 13 14  1  0
  6 15  1  0
 15 16  2  0
 16 17  1  0
 17 18  2  0
 18 19  1  0
 19 20  2  0
 20 21  1  0
 21 22  2  0
 22 23  1  0
 23 24  1  0
 24 25  1  0
 25 26  1  0
 26 27  2  0
 27 28  1  0
 28 29  2  0
 29 30  1  0
 30 31  2  0
 31 32  1  0
 32 33  2  0
 33 34  1  0
 34 35  2  0
 23 36  2  0
 18  5  1  0
 36 19  1  0
 35 26  1  0
 35 30  1  0
  1 37  1  0
  1 38  1  0
  9 39  1  0
 10 40  1  0
 10 41  1  0
 11 42  1  1
 12 43  1  0
 13 44  1  0
 13 45  1  0
 14 46  1  0
 14 47  1  0
 15 48  1  0
 17 49  1  0
 20 50  1  0
 21 51  1  0
 22 52  1  0
 24 53  1  0
 24 54  1  0
 25 55  1  0
 27 56  1  0
 28 57  1  0
 31 58  1  0
 32 59  1  0
 33 60  1  0
 34 61  1  0
 36 62  1  0
M  END
$$$$
[H]c1nc(N([H])[H])c(-c2c([H])c([H])c([N+](=O)[O-])c([H])c2[H])c([H])c1C([H])([H])C([H])([H])[H]
     RDKit          3D

 31 32  0  0  0  0  0  0  0  0999 V2000
   -4.2412   -0.9262    1.1009 C   0  0  0  0  0  0  0  0  0  0  0  0
   -3.5991    0.4388    1.2466 C   0  0  0  0  0  0  0  0  0  0  0  0
   -2.5405    0.6334    0.2038 C   0  0  0  0  0  0  0  0  0  0  0  0
   -2.8782    1.1860   -1.0133 C   0  0  0  0  0  0  0  0  0  0  0  0
   -1.9113    1.3506   -1.9321 N   0  0  0  0  0  0  0  0  0  0  0  0
   -0.6272    0.9773   -1.6602 C   0  0  0  0  0  0  0  0  0  0  0  0
    0.3756    1.1755   -2.6625 N   0  0  0  0  0  0  0  0  0  0  0  0
   -0.2513    0.4287   -0.4738 C   0  0  0  0  0  0  0  0  0  0  0  0
   -1.2500    0.2523    0.4919 C   0  0  0  0  0  0  0  0  0  0  0  0
    1.1165    0.0251   -0.1888 C   0  0  0  0  0  0  0  0  0  0  0  0
    1.7089    0.4065    1.0079 C   0  0  0  0  0  0  0  0  0  0  0  0
    2.9981    0.0490    1.3354 C   0  0  0  0  0  0  0  0  0  0  0  0
    3.7633   -0.7215    0.4596 C   0  0  0  0  0  0  0  0  0  0  0  0
    3.1796   -1.0978   -0.7204 C   0  0  0  0  0  0  0  0  0  0  0  0
    1.8751   -0.7334   -1.0466 C   0  0  0  0  0  0  0  0  0  0  0  0
    5.0988   -1.0925    0.7973 N   0  0  0  0  0  0  0  0  0  0  0  0
    5.8651   -1.8441   -0.0415 O   0  0  0  0  0  0  0  0  0  0  0  0
    5.5707   -0.7200    1.8819 O   0  0  0  0  0  0  0  0  0  0  0  0
   -5.3334   -0.8595    1.2342 H   0  0  0  0  0  0  0  0  0  0  0  0
   -3.7740   -1.6775    1.7817 H   0  0  0  0  0  0  0  0  0  0  0  0
   -4.0202   -1.2758    0.0638 H   0  0  0  0  0  0  0  0  0  0  0  0
   -3.1453    0.4716    2.2561 H   0  0  0  0  0  0  0  0  0  0  0  0
   -4.3880    1.2106    1.1524 H   0  0  0  0  0  0  0  0  0  0  0  0
   -3.9170    1.4692   -1.1858 H   0  0  0  0  0  0  0  0  0  0  0  0
    0.0900    0.9907   -3.6472 H   0  0  0  0  0  0  0  0  0  0  0  0
    1.3304    1.4810   -2.4609 H   0  0  0  0  0  0  0  0  0  0  0  0
   -0.9468   -0.1845    1.4349 H   0  0  0  0  0  0  0  0  0  0  0  0
    1.1730    1.0022    1.7287 H   0  0  0  0  0  0  0  0  0  0  0  0
    3.4857    0.3314    2.2598 H   0  0  0  0  0  0  0  0  0  0  0  0
    3.7498   -1.6945   -1.4164 H   0  0  0  0  0  0  0  0  0  0  0  0
    1.4430   -1.0526   -1.9874 H   0  0  0  0  0  0  0  0  0  0  0  0
  1  2  1  0
  2  3  1  0
  3  4  2  0
  4  5  1  0
  5  6  2  0
  6  7  1  0
  6  8  1  0
  8  9  2  0
  8 10  1  0
 10 11  2  0
 11 12  1  0
 12 13  2  0
 13 14  1  0
 14 15  2  0
 13 16  1  0
 16 17  1  0
 16 18  2  0
  9  3  1  0
 15 10  1  0
  1 19  1  0
  1 20  1  0
  1 21  1  0
  2 22  1  0
  2 23  1  0
  4 24  1  0
  7 25  1  0
  7 26  1  0
  9 27  1  0
 11 28  1  0
 12 29  1  0
 14 30  1  0
 15 31  1  0
M  CHG  2  16   1  17  -1
M  END
$$$$
[H]c1nc([H])c2c([H])c([H])c([H])c(C(=O)N([H])C([H])([H])[C@@]3([H])C(=O)[C@]([H])(C(=O)N4C([H])([H])C([H])([H])N(C(=O)C([H])([H])[H])C([H])([H])C4([H])[H])C3([H])[H])c2c1[H]
     RDKit          3D

 54 57  0  0  0  0  0  0  0  0999 V2000
   -7.4197   -2.1427   -1.0226 C   0  0  0  0  0  0  0  0  0  0  0  0
   -6.8533   -0.7583   -1.2004 C   0  0  0  0  0  0  0  0  0  0  0  0
   -7.1683   -0.0780   -2.1979 O   0  0  0  0  0  0  0  0  0  0  0  0
   -5.9625   -0.2284   -0.2334 N   0  0  0  0  0  0  0  0  0  0  0  0
   -5.4166    1.0925   -0.3803 C   0  0  0  0  0  0  0  0  0  0  0  0
   -3.8928    0.9480   -0.4635 C   0  0  0  0  0  0  0  0  0  0  0  0
   -3.3936    0.1348    0.6226 N   0  0  0  0  0  0  0  0  0  0  0  0
   -4.0722   -1.0464    1.0953 C   0  0  0  0  0  0  0  0  0  0  0  0
   -5.5620   -0.9681    0.9471 C   0  0  0  0  0  0  0  0  0  0  0  0
   -2.1856    0.5255    1.2423 C   0  0  0  0  0  0  0  0  0  0  0  0
   -1.7509   -0.2002    2.2043 O   0  0  0  0  0  0  0  0  0  0  0  0
   -1.3663    1.6873    0.8975 C   0  0  2  0  0  0  0  0  0  0  0  0
   -0.8039    1.7643   -0.4831 C   0  0  0  0  0  0  0  0  0  0  0  0
    0.4502    1.0771    0.0317 C   0  0  1  0  0  0  0  0  0  0  0  0
    1.6623    1.7831   -0.4829 C   0  0  0  0  0  0  0  0  0  0  0  0
    2.9155    1.2146   -0.0593 N   0  0  0  0  0  0  0  0  0  0  0  0
    3.3500   -0.0827   -0.3374 C   0  0  0  0  0  0  0  0  0  0  0  0
    2.4868   -0.7759   -1.0301 O   0  0  0  0  0  0  0  0  0  0  0  0
    4.5266   -0.7970   -0.0154 C   0  0  0  0  0  0  0  0  0  0  0  0
    4.3987   -2.1176    0.4131 C   0  0  0  0  0  0  0  0  0  0  0  0
    5.4506   -2.8800    0.8494 C   0  0  0  0  0  0  0  0  0  0  0  0
    6.7051   -2.3253    0.8694 C   0  0  0  0  0  0  0  0  0  0  0  0
    6.8776   -1.0364    0.4578 C   0  0  0  0  0  0  0  0  0  0  0  0
    8.1637   -0.5511    0.4780 C   0  0  0  0  0  0  0  0  0  0  0  0
    8.3770    0.6965    0.0550 N   0  0  0  0  0  0  0  0  0  0  0  0
    7.3696    1.4605   -0.3807 C   0  0  0  0  0  0  0  0  0  0  0  0
    6.0653    0.9873   -0.4086 C   0  0  0  0  0  0  0  0  0  0  0  0
    5.7822   -0.2715    0.0123 C   0  0  0  0  0  0  0  0  0  0  0  0
    0.0535    1.5830    1.3937 C   0  0  0  0  0  0  0  0  0  0  0  0
    0.5368    1.8313    2.4587 O   0  0  0  0  0  0  0  0  0  0  0  0
   -7.7621   -2.2541    0.0187 H   0  0  0  0  0  0  0  0  0  0  0  0
   -8.2627   -2.2425   -1.6997 H   0  0  0  0  0  0  0  0  0  0  0  0
   -6.6083   -2.8722   -1.2565 H   0  0  0  0  0  0  0  0  0  0  0  0
   -5.7777    1.5816   -1.3045 H   0  0  0  0  0  0  0  0  0  0  0  0
   -5.6956    1.6706    0.5173 H   0  0  0  0  0  0  0  0  0  0  0  0
   -3.4881    1.9641   -0.4242 H   0  0  0  0  0  0  0  0  0  0  0  0
   -3.6516    0.5192   -1.4569 H   0  0  0  0  0  0  0  0  0  0  0  0
   -3.6905   -1.9496    0.5655 H   0  0  0  0  0  0  0  0  0  0  0  0
   -3.8475   -1.1869    2.1818 H   0  0  0  0  0  0  0  0  0  0  0  0
   -5.9691   -0.4380    1.8200 H   0  0  0  0  0  0  0  0  0  0  0  0
   -5.9458   -2.0135    0.9074 H   0  0  0  0  0  0  0  0  0  0  0  0
   -1.8599    2.6397    1.1674 H   0  0  0  0  0  0  0  0  0  0  0  0
   -1.3555    1.1415   -1.2170 H   0  0  0  0  0  0  0  0  0  0  0  0
   -0.6141    2.7947   -0.8658 H   0  0  0  0  0  0  0  0  0  0  0  0
    0.3539    0.0077   -0.1189 H   0  0  0  0  0  0  0  0  0  0  0  0
    1.6196    2.8356   -0.1471 H   0  0  0  0  0  0  0  0  0  0  0  0
    1.6208    1.8544   -1.6101 H   0  0  0  0  0  0  0  0  0  0  0  0
    3.5089    1.8300    0.5231 H   0  0  0  0  0  0  0  0  0  0  0  0
    3.3922   -2.5469    0.3888 H   0  0  0  0  0  0  0  0  0  0  0  0
    5.2898   -3.8925    1.1675 H   0  0  0  0  0  0  0  0  0  0  0  0
    7.5775   -2.9116    1.2185 H   0  0  0  0  0  0  0  0  0  0  0  0
    9.0173   -1.1209    0.8202 H   0  0  0  0  0  0  0  0  0  0  0  0
    7.5574    2.4655   -0.7172 H   0  0  0  0  0  0  0  0  0  0  0  0
    5.2669    1.5980   -0.7961 H   0  0  0  0  0  0  0  0  0  0  0  0
  1  2  1  0
  2  3  2  0
  2  4  1  0
  4  5  1  0
  5  6  1  0
  6  7  1  0
  7  8  1  0
  8  9  1  0
  7 10  1  0
 10 11  2  0
 10 12  1  0
 12 13  1  0
 13 14  1  0
 14 15  1  0
 15 16  1  0
 16 17  1  0
 17 18  2  0
 17 19  1  0
 19 20  2  0
 20 21  1  0
 21 22  2  0
 22 23  1  0
 23 24  2  0
 24 25  1  0
 25 26  2  0
 26 27  1  0
 27 28  2  0
 14 29  1  0
 29 30  2  0
  9  4  1  0
 29 12  1  0
 28 19  1  0
 28 23  1  0
  1 31  1  0
  1 32  1  0
  1 33  1  0
  5 34  1  0
  5 35  1  0
  6 36  1  0
  6 37  1  0
  8 38  1  0
  8 39  1  0
  9 40  1  0
  9 41  1  0
 12 42  1  1
 13 43  1  0
 13 44  1  0
 14 45  1  1
 15 46  1  0
 15 47  1  0
 16 48  1  0
 20 49  1  0
 21 50  1  0
 22 51  1  0
 24 52  1  0
 26 53  1  0
 27 54  1  0
M  END
$$$$
[H]c1nc([H])c([H])c(-c2c([H])sc3nc(-c4c([H])c([H])c([H])c([H])c4[H])nc(-c4c([H])nc(N([H])[H])c([H])c4[H])c23)c1[H]
     RDKit          3D

 43 47  0  0  0  0  0  0  0  0999 V2000
   -2.4886    4.5149    0.8037 N   0  0  0  0  0  0  0  0  0  0  0  0
   -1.8697    3.2752    0.4888 C   0  0  0  0  0  0  0  0  0  0  0  0
   -2.1185    2.5849   -0.6703 C   0  0  0  0  0  0  0  0  0  0  0  0
   -1.4860    1.3970   -0.9067 C   0  0  0  0  0  0  0  0  0  0  0  0
   -0.6076    0.8837   -0.0052 C   0  0  0  0  0  0  0  0  0  0  0  0
   -0.3785    1.6168    1.1677 C   0  0  0  0  0  0  0  0  0  0  0  0
   -0.9981    2.7714    1.3893 N   0  0  0  0  0  0  0  0  0  0  0  0
    0.1649   -0.3347   -0.1197 C   0  0  0  0  0  0  0  0  0  0  0  0
    1.5054   -0.0695   -0.1132 N   0  0  0  0  0  0  0  0  0  0  0  0
    2.4732   -0.9600   -0.2484 C   0  0  0  0  0  0  0  0  0  0  0  0
    2.0550   -2.2283   -0.4039 N   0  0  0  0  0  0  0  0  0  0  0  0
    0.7442   -2.5492   -0.4155 C   0  0  0  0  0  0  0  0  0  0  0  0
   -0.0620   -4.0391   -0.5865 S   0  0  0  0  0  0  0  0  0  0  0  0
   -1.6549   -3.5148   -0.4731 C   0  0  0  0  0  0  0  0  0  0  0  0
   -1.5294   -2.1210   -0.2950 C   0  0  0  0  0  0  0  0  0  0  0  0
   -2.8457   -1.4839   -0.0328 C   0  0  0  0  0  0  0  0  0  0  0  0
   -3.1101   -0.9954    1.2078 C   0  0  0  0  0  0  0  0  0  0  0  0
   -4.3305   -0.4496    1.5381 C   0  0  0  0  0  0  0  0  0  0  0  0
   -5.2671   -0.4163    0.5743 N   0  0  0  0  0  0  0  0  0  0  0  0
   -5.0481   -0.8890   -0.6684 C   0  0  0  0  0  0  0  0  0  0  0  0
   -3.8080   -1.4439   -1.0050 C   0  0  0  0  0  0  0  0  0  0  0  0
   -0.2879   -1.6271   -0.2718 C   0  0  0  0  0  0  0  0  0  0  0  0
    3.8876   -0.6023   -0.2311 C   0  0  0  0  0  0  0  0  0  0  0  0
    4.1999    0.7318   -0.0647 C   0  0  0  0  0  0  0  0  0  0  0  0
    5.5081    1.1919   -0.0319 C   0  0  0  0  0  0  0  0  0  0  0  0
    6.5028    0.2465   -0.1746 C   0  0  0  0  0  0  0  0  0  0  0  0
    6.1872   -1.0886   -0.3411 C   0  0  0  0  0  0  0  0  0  0  0  0
    4.8872   -1.5352   -0.3723 C   0  0  0  0  0  0  0  0  0  0  0  0
   -3.1141    4.5787    1.6419 H   0  0  0  0  0  0  0  0  0  0  0  0
   -2.3257    5.3553    0.2107 H   0  0  0  0  0  0  0  0  0  0  0  0
   -2.8330    3.0165   -1.3885 H   0  0  0  0  0  0  0  0  0  0  0  0
   -1.6755    0.8482   -1.8147 H   0  0  0  0  0  0  0  0  0  0  0  0
    0.3226    1.2474    1.9307 H   0  0  0  0  0  0  0  0  0  0  0  0
   -2.6043   -4.0874   -0.5223 H   0  0  0  0  0  0  0  0  0  0  0  0
   -2.3307   -1.0322    1.9812 H   0  0  0  0  0  0  0  0  0  0  0  0
   -4.4771   -0.0785    2.5425 H   0  0  0  0  0  0  0  0  0  0  0  0
   -5.8569   -0.8226   -1.3817 H   0  0  0  0  0  0  0  0  0  0  0  0
   -3.6258   -1.8193   -1.9822 H   0  0  0  0  0  0  0  0  0  0  0  0
    3.4113    1.4905    0.0497 H   0  0  0  0  0  0  0  0  0  0  0  0
    5.7683    2.2298    0.0972 H   0  0  0  0  0  0  0  0  0  0  0  0
    7.5385    0.5759   -0.1532 H   0  0  0  0  0  0  0  0  0  0  0  0
    6.9854   -1.8100   -0.4508 H   0  0  0  0  0  0  0  0  0  0  0  0
    4.5921   -2.5586   -0.4988 H   0  0  0  0  0  0  0  0  0  0  0  0
  1  2  1  0
  2  3  2  0
  3  4  1  0
  4  5  2  0
  5  6  1  0
  6  7  2  0
  5  8  1  0
  8  9  2  0
  9 10  1  0
 10 11  2  0
 11 12  1  0
 12 13  1  0
 13 14  1  0
 14 15  2  0
 15 16  1  0
 16 17  2  0
 17 18  1  0
 18 19  2  0
 19 20  1  0
 20 21  2  0
 15 22  1  0
 10 23  1  0
 23 24  2  0
 24 25  1  0
 25 26  2  0
 26 27  1  0
 27 28  2  0
  7  2  1  0
 22  8  1  0
 28 23  1  0
 22 12  2  0
 21 16  1  0
  1 29  1  0
  1 30  1  0
  3 31  1  0
  4 32  1  0
  6 33  1  0
 14 34  1  0
 17 35  1  0
 18 36  1  0
 20 37  1  0
 21 38  1  0
 24 39  1  0
 25 40  1  0
 26 41  1  0
 27 42  1  0
 28 43  1  0
M  END
$$$$
[H]C([H])([H])O[C@@]1([H])C(=O)[C@@]2([H])C([H])([H])C([H])(C(=O)N(C([H])([H])[H])C([H])([H])[H])C([H])([H])C([H])([H])[C@]2([H])C1([H])[H]
     RDKit          3D

 38 39  0  0  0  0  0  0  0  0999 V2000
    5.2051   -1.3567   -0.9313 C   0  0  0  0  0  0  0  0  0  0  0  0
    4.3558   -0.9850    0.1098 O   0  0  0  0  0  0  0  0  0  0  0  0
    3.1414   -0.6060   -0.4138 C   0  0  2  0  0  0  0  0  0  0  0  0
    2.7230    0.7890    0.0458 C   0  0  0  0  0  0  0  0  0  0  0  0
    1.4853    0.6092    0.8525 C   0  0  1  0  0  0  0  0  0  0  0  0
    0.4970    1.7116    0.8150 C   0  0  0  0  0  0  0  0  0  0  0  0
   -0.9285    1.3342    0.6418 C   0  0  0  0  0  0  0  0  0  0  0  0
   -1.3345   -0.0316    1.0428 C   0  0  0  0  0  0  0  0  0  0  0  0
   -0.2375   -1.0653    1.0694 C   0  0  0  0  0  0  0  0  0  0  0  0
    0.8514   -0.5964    0.1415 C   0  0  2  0  0  0  0  0  0  0  0  0
    2.0243   -1.4980    0.0764 C   0  0  0  0  0  0  0  0  0  0  0  0
    2.0659   -2.6751    0.3542 O   0  0  0  0  0  0  0  0  0  0  0  0
   -2.3912   -0.5201    0.1192 C   0  0  0  0  0  0  0  0  0  0  0  0
   -2.1476   -1.5411   -0.6133 O   0  0  0  0  0  0  0  0  0  0  0  0
   -3.6619    0.0754   -0.0056 N   0  0  0  0  0  0  0  0  0  0  0  0
   -4.6500   -0.4445   -0.9307 C   0  0  0  0  0  0  0  0  0  0  0  0
   -4.0320    1.2313    0.7915 C   0  0  0  0  0  0  0  0  0  0  0  0
    5.3729   -0.5095   -1.6496 H   0  0  0  0  0  0  0  0  0  0  0  0
    4.8038   -2.2225   -1.5022 H   0  0  0  0  0  0  0  0  0  0  0  0
    6.2065   -1.6649   -0.5623 H   0  0  0  0  0  0  0  0  0  0  0  0
    3.1405   -0.6888   -1.5098 H   0  0  0  0  0  0  0  0  0  0  0  0
    2.6414    1.5017   -0.7752 H   0  0  0  0  0  0  0  0  0  0  0  0
    3.5517    1.1539    0.7190 H   0  0  0  0  0  0  0  0  0  0  0  0
    1.7020    0.3468    1.9198 H   0  0  0  0  0  0  0  0  0  0  0  0
    0.7670    2.3622   -0.0708 H   0  0  0  0  0  0  0  0  0  0  0  0
    0.6654    2.4085    1.6899 H   0  0  0  0  0  0  0  0  0  0  0  0
   -1.3151    1.5491   -0.3909 H   0  0  0  0  0  0  0  0  0  0  0  0
   -1.5171    2.0557    1.2872 H   0  0  0  0  0  0  0  0  0  0  0  0
   -1.8290   -0.0377    2.0607 H   0  0  0  0  0  0  0  0  0  0  0  0
   -0.5758   -2.0560    0.7026 H   0  0  0  0  0  0  0  0  0  0  0  0
    0.1822   -1.1890    2.0662 H   0  0  0  0  0  0  0  0  0  0  0  0
    0.5028   -0.2542   -0.8305 H   0  0  0  0  0  0  0  0  0  0  0  0
   -4.7926    0.2681   -1.7875 H   0  0  0  0  0  0  0  0  0  0  0  0
   -4.3689   -1.4373   -1.2948 H   0  0  0  0  0  0  0  0  0  0  0  0
   -5.6402   -0.5223   -0.3948 H   0  0  0  0  0  0  0  0  0  0  0  0
   -3.6824    2.1335    0.2868 H   0  0  0  0  0  0  0  0  0  0  0  0
   -3.6233    1.0584    1.8031 H   0  0  0  0  0  0  0  0  0  0  0  0
   -5.1578    1.3134    0.8667 H   0  0  0  0  0  0  0  0  0  0  0  0
  1  2  1  0
  2  3  1  0
  3  4  1  0
  4  5  1  0
  5  6  1  0
  6  7  1  0
  7  8  1  0
  8  9  1  0
  9 10  1  0
 10 11  1  0
 11 12  2  0
  8 13  1  0
 13 14  2  0
 13 15  1  0
 15 16  1  0
 15 17  1  0
 11  3  1  0
 10  5  1  0
  1 18  1  0
  1 19  1  0
  1 20  1  0
  3 21  1  6
  4 22  1  0
  4 23  1  0
  5 24  1  1
  6 25  1  0
  6 26  1  0
  7 27  1  0
  7 28  1  0
  8 29  1  0
  9 30  1  0
  9 31  1  0
 10 32  1  6
 16 33  1  0
 16 34  1  0
 16 35  1  0
 17 36  1  0
 17 37  1  0
 17 38  1  0
M  END
$$$$
[H]OC(=O)C([H])([H])Oc1c([H])c([H])c(S(=O)(=O)N([H])c2c([H])c([H])c([H])c([H])c2C([H])([H])C([H])([H])/C(=N/S[H])C([H])([H])[H])c([H])c1OC([H])([H])[H]
     RDKit          3D

 51 52  0  0  0  0  0  0  0  0999 V2000
   -5.6195   -0.1638   -0.7759 C   0  0  0  0  0  0  0  0  0  0  0  0
   -5.4711    0.7321    0.3861 C   0  0  0  0  0  0  0  0  0  0  0  0
   -6.4809    1.5343    0.5929 N   0  0  0  0  0  0  0  0  0  0  0  0
   -7.8779    1.5197   -0.4424 S   0  0  0  0  0  0  0  0  0  0  0  0
   -4.3493    0.8336    1.3228 C   0  0  0  0  0  0  0  0  0  0  0  0
   -3.0718    1.3919    0.7995 C   0  0  0  0  0  0  0  0  0  0  0  0
   -2.4812    0.6395   -0.3013 C   0  0  0  0  0  0  0  0  0  0  0  0
   -2.7266    1.1312   -1.5944 C   0  0  0  0  0  0  0  0  0  0  0  0
   -2.2382    0.4881   -2.7070 C   0  0  0  0  0  0  0  0  0  0  0  0
   -1.4916   -0.6626   -2.5666 C   0  0  0  0  0  0  0  0  0  0  0  0
   -1.2303   -1.1720   -1.3209 C   0  0  0  0  0  0  0  0  0  0  0  0
   -1.7269   -0.5127   -0.2096 C   0  0  0  0  0  0  0  0  0  0  0  0
   -1.4302   -0.9792    1.1125 N   0  0  0  0  0  0  0  0  0  0  0  0
   -0.0772   -1.9592    1.4581 S   0  0  0  0  0  0  0  0  0  0  0  0
   -0.1065   -2.2938    2.9484 O   0  0  0  0  0  0  0  0  0  0  0  0
   -0.1891   -3.3052    0.7649 O   0  0  0  0  0  0  0  0  0  0  0  0
    1.4558   -1.1996    1.1097 C   0  0  0  0  0  0  0  0  0  0  0  0
    2.1124   -1.4473   -0.0695 C   0  0  0  0  0  0  0  0  0  0  0  0
    3.3200   -0.8644   -0.3780 C   0  0  0  0  0  0  0  0  0  0  0  0
    3.9347   -0.0054    0.4731 C   0  0  0  0  0  0  0  0  0  0  0  0
    5.1556    0.6089    0.2117 O   0  0  0  0  0  0  0  0  0  0  0  0
    5.9545    0.4468   -0.9049 C   0  0  0  0  0  0  0  0  0  0  0  0
    6.4792   -0.9185   -1.0921 C   0  0  0  0  0  0  0  0  0  0  0  0
    7.2073   -1.2347   -2.2166 O   0  0  0  0  0  0  0  0  0  0  0  0
    6.2631   -1.7940   -0.2276 O   0  0  0  0  0  0  0  0  0  0  0  0
    3.3085    0.2935    1.7097 C   0  0  0  0  0  0  0  0  0  0  0  0
    3.8713    1.1112    2.5456 O   0  0  0  0  0  0  0  0  0  0  0  0
    4.4007    1.9121    3.3888 C   0  0  0  0  0  0  0  0  0  0  0  0
    2.0685   -0.3352    1.9720 C   0  0  0  0  0  0  0  0  0  0  0  0
   -6.6003   -0.7507   -0.6972 H   0  0  0  0  0  0  0  0  0  0  0  0
   -5.7079    0.3685   -1.7402 H   0  0  0  0  0  0  0  0  0  0  0  0
   -4.8607   -0.9648   -0.8490 H   0  0  0  0  0  0  0  0  0  0  0  0
   -8.4887    0.2640   -0.3207 H   0  0  0  0  0  0  0  0  0  0  0  0
   -4.2207   -0.2167    1.7341 H   0  0  0  0  0  0  0  0  0  0  0  0
   -4.6534    1.3977    2.2597 H   0  0  0  0  0  0  0  0  0  0  0  0
   -3.2842    2.4482    0.4489 H   0  0  0  0  0  0  0  0  0  0  0  0
   -2.3304    1.5695    1.6325 H   0  0  0  0  0  0  0  0  0  0  0  0
   -3.3023    2.0214   -1.7375 H   0  0  0  0  0  0  0  0  0  0  0  0
   -2.4417    0.8899   -3.7114 H   0  0  0  0  0  0  0  0  0  0  0  0
   -1.1001   -1.1829   -3.4295 H   0  0  0  0  0  0  0  0  0  0  0  0
   -0.6610   -2.0678   -1.2464 H   0  0  0  0  0  0  0  0  0  0  0  0
   -2.0718   -0.6930    1.9110 H   0  0  0  0  0  0  0  0  0  0  0  0
    1.7021   -2.1170   -0.8009 H   0  0  0  0  0  0  0  0  0  0  0  0
    3.7767   -1.1070   -1.3557 H   0  0  0  0  0  0  0  0  0  0  0  0
    6.7911    1.1981   -0.8101 H   0  0  0  0  0  0  0  0  0  0  0  0
    5.4156    0.7086   -1.8600 H   0  0  0  0  0  0  0  0  0  0  0  0
    7.7259   -2.1193   -2.2774 H   0  0  0  0  0  0  0  0  0  0  0  0
    3.6311    2.2690    4.1685 H   0  0  0  0  0  0  0  0  0  0  0  0
    4.8705    2.8829    2.9856 H   0  0  0  0  0  0  0  0  0  0  0  0
    5.2450    1.4973    4.0610 H   0  0  0  0  0  0  0  0  0  0  0  0
    1.6020   -0.0911    2.9309 H   0  0  0  0  0  0  0  0  0  0  0  0
  1  2  1  0
  2  3  2  0
  3  4  1  0
  2  5  1  0
  5  6  1  0
  6  7  1  0
  7  8  2  0
  8  9  1  0
  9 10  2  0
 10 11  1  0
 11 12  2  0
 12 13  1  0
 13 14  1  0
 14 15  2  0
 14 16  2  0
 14 17  1  0
 17 18  2  0
 18 19  1  0
 19 20  2  0
 20 21  1  0
 21 22  1  0
 22 23  1  0
 23 24  1  0
 23 25  2  0
 20 26  1  0
 26 27  1  0
 27 28  1  0
 26 29  2  0
 12  7  1  0
 29 17  1  0
  1 30  1  0
  1 31  1  0
  1 32  1  0
  4 33  1  0
  5 34  1  0
  5 35  1  0
  6 36  1  0
  6 37  1  0
  8 38  1  0
  9 39  1  0
 10 40  1  0
 11 41  1  0
 13 42  1  0
 18 43  1  0
 19 44  1  0
 22 45  1  0
 22 46  1  0
 24 47  1  0
 28 48  1  0
 28 49  1  0
 28 50  1  0
 29 51  1  0
M  END
$$$$
[H]c1c([H])c(C#Cc2c([H])c([H])c(N([H])C([H])([H])C([H])([H])C([H])([H])C([H])([H])C([H])([H])C(=O)N3C([H])([H])C([H])([H])C([H])(N4C([H])([H])C([H])([H])C([H])([H])C4([H])[H])C([H])([H])C3([H])[H])c([H])c2[H])c([H])c(C(F)(F)F)c1[H]
     RDKit          3D

 73 76  0  0  0  0  0  0  0  0999 V2000
   13.0870    1.3869    0.0762 F   0  0  0  0  0  0  0  0  0  0  0  0
   13.1932    0.0503   -0.3153 C   0  0  0  0  0  0  0  0  0  0  0  0
   14.3962   -0.4869    0.1103 F   0  0  0  0  0  0  0  0  0  0  0  0
   13.2307    0.0444   -1.6911 F   0  0  0  0  0  0  0  0  0  0  0  0
   12.0603   -0.7414    0.2268 C   0  0  0  0  0  0  0  0  0  0  0  0
   12.2925   -1.8644    0.9841 C   0  0  0  0  0  0  0  0  0  0  0  0
   11.2560   -2.5956    1.4984 C   0  0  0  0  0  0  0  0  0  0  0  0
    9.9660   -2.1877    1.2434 C   0  0  0  0  0  0  0  0  0  0  0  0
    9.6854   -1.0652    0.4873 C   0  0  0  0  0  0  0  0  0  0  0  0
   10.7498   -0.3559   -0.0114 C   0  0  0  0  0  0  0  0  0  0  0  0
    8.3054   -0.6796    0.2801 C   0  0  0  0  0  0  0  0  0  0  0  0
    7.1438   -0.3436    0.1319 C   0  0  0  0  0  0  0  0  0  0  0  0
    5.7612    0.0655   -0.0031 C   0  0  0  0  0  0  0  0  0  0  0  0
    4.7513   -0.6135    0.6498 C   0  0  0  0  0  0  0  0  0  0  0  0
    3.4119   -0.2110    0.5490 C   0  0  0  0  0  0  0  0  0  0  0  0
    3.0714    0.8641   -0.1980 C   0  0  0  0  0  0  0  0  0  0  0  0
    1.6965    1.2962   -0.2964 N   0  0  0  0  0  0  0  0  0  0  0  0
    1.3808    2.5458   -0.8813 C   0  0  0  0  0  0  0  0  0  0  0  0
   -0.0146    2.9874   -0.8362 C   0  0  0  0  0  0  0  0  0  0  0  0
   -1.0267    2.2608   -1.5823 C   0  0  0  0  0  0  0  0  0  0  0  0
   -1.4468    0.8857   -1.3836 C   0  0  0  0  0  0  0  0  0  0  0  0
   -2.0792    0.4611   -0.1035 C   0  0  0  0  0  0  0  0  0  0  0  0
   -3.3165    1.2011    0.2713 C   0  0  0  0  0  0  0  0  0  0  0  0
   -3.1980    2.4539    0.4436 O   0  0  0  0  0  0  0  0  0  0  0  0
   -4.5785    0.5838    0.4455 N   0  0  0  0  0  0  0  0  0  0  0  0
   -4.7487   -0.8112    0.1500 C   0  0  0  0  0  0  0  0  0  0  0  0
   -6.1784   -1.2105    0.4102 C   0  0  0  0  0  0  0  0  0  0  0  0
   -7.1143   -0.2790   -0.2837 C   0  0  0  0  0  0  0  0  0  0  0  0
   -6.9232    1.1690    0.0619 C   0  0  0  0  0  0  0  0  0  0  0  0
   -5.6865    1.3566    0.9414 C   0  0  0  0  0  0  0  0  0  0  0  0
   -8.5134   -0.6602   -0.1936 N   0  0  0  0  0  0  0  0  0  0  0  0
   -8.7854   -1.9170   -0.8619 C   0  0  0  0  0  0  0  0  0  0  0  0
   -9.6934   -2.7290    0.0346 C   0  0  0  0  0  0  0  0  0  0  0  0
  -10.2242   -1.6425    0.9826 C   0  0  0  0  0  0  0  0  0  0  0  0
   -8.9267   -0.8707    1.1944 C   0  0  0  0  0  0  0  0  0  0  0  0
    4.0646    1.5528   -0.8565 C   0  0  0  0  0  0  0  0  0  0  0  0
    5.4046    1.1592   -0.7634 C   0  0  0  0  0  0  0  0  0  0  0  0
   13.3038   -2.1849    1.1831 H   0  0  0  0  0  0  0  0  0  0  0  0
   11.4603   -3.4968    2.1029 H   0  0  0  0  0  0  0  0  0  0  0  0
    9.1316   -2.7465    1.6384 H   0  0  0  0  0  0  0  0  0  0  0  0
   10.5501    0.5388   -0.6141 H   0  0  0  0  0  0  0  0  0  0  0  0
    5.0126   -1.4637    1.2468 H   0  0  0  0  0  0  0  0  0  0  0  0
    2.6534   -0.7868    1.0848 H   0  0  0  0  0  0  0  0  0  0  0  0
    0.9604    0.6701    0.0702 H   0  0  0  0  0  0  0  0  0  0  0  0
    1.6762    2.5524   -1.9915 H   0  0  0  0  0  0  0  0  0  0  0  0
    2.0551    3.3117   -0.3684 H   0  0  0  0  0  0  0  0  0  0  0  0
   -0.2723    3.1033    0.2756 H   0  0  0  0  0  0  0  0  0  0  0  0
    0.0001    4.0748   -1.2482 H   0  0  0  0  0  0  0  0  0  0  0  0
   -2.0013    2.8957   -1.6113 H   0  0  0  0  0  0  0  0  0  0  0  0
   -0.7842    2.3334   -2.7282 H   0  0  0  0  0  0  0  0  0  0  0  0
   -2.1711    0.6427   -2.2500 H   0  0  0  0  0  0  0  0  0  0  0  0
   -0.5715    0.2021   -1.6406 H   0  0  0  0  0  0  0  0  0  0  0  0
   -1.3883    0.5817    0.7687 H   0  0  0  0  0  0  0  0  0  0  0  0
   -2.3153   -0.6401   -0.1744 H   0  0  0  0  0  0  0  0  0  0  0  0
   -4.1224   -1.4400    0.8254 H   0  0  0  0  0  0  0  0  0  0  0  0
   -4.4745   -1.0097   -0.9314 H   0  0  0  0  0  0  0  0  0  0  0  0
   -6.2931   -1.1747    1.5339 H   0  0  0  0  0  0  0  0  0  0  0  0
   -6.3078   -2.2441    0.0361 H   0  0  0  0  0  0  0  0  0  0  0  0
   -6.8739   -0.3748   -1.3909 H   0  0  0  0  0  0  0  0  0  0  0  0
   -6.7230    1.7766   -0.8436 H   0  0  0  0  0  0  0  0  0  0  0  0
   -7.7673    1.6136    0.5951 H   0  0  0  0  0  0  0  0  0  0  0  0
   -5.9324    1.1169    2.0006 H   0  0  0  0  0  0  0  0  0  0  0  0
   -5.4280    2.4243    0.8926 H   0  0  0  0  0  0  0  0  0  0  0  0
   -9.4542   -1.6320   -1.7394 H   0  0  0  0  0  0  0  0  0  0  0  0
   -7.9016   -2.4507   -1.2160 H   0  0  0  0  0  0  0  0  0  0  0  0
  -10.5084   -3.2480   -0.4953 H   0  0  0  0  0  0  0  0  0  0  0  0
   -9.0837   -3.3934    0.6687 H   0  0  0  0  0  0  0  0  0  0  0  0
  -10.5894   -2.0898    1.9220 H   0  0  0  0  0  0  0  0  0  0  0  0
  -10.9845   -1.0596    0.4373 H   0  0  0  0  0  0  0  0  0  0  0  0
   -8.2542   -1.6274    1.7022 H   0  0  0  0  0  0  0  0  0  0  0  0
   -9.0385    0.0420    1.7624 H   0  0  0  0  0  0  0  0  0  0  0  0
    3.8224    2.3997   -1.4498 H   0  0  0  0  0  0  0  0  0  0  0  0
    6.1606    1.7233   -1.2989 H   0  0  0  0  0  0  0  0  0  0  0  0
  1  2  1  0
  2  3  1  0
  2  4  1  0
  2  5  1  0
  5  6  2  0
  6  7  1  0
  7  8  2  0
  8  9  1  0
  9 10  2  0
  9 11  1  0
 11 12  3  0
 12 13  1  0
 13 14  2  0
 14 15  1  0
 15 16  2  0
 16 17  1  0
 17 18  1  0
 18 19  1  0
 19 20  1  0
 20 21  1  0
 21 22  1  0
 22 23  1  0
 23 24  2  0
 23 25  1  0
 25 26  1  0
 26 27  1  0
 27 28  1  0
 28 29  1  0
 29 30  1  0
 28 31  1  0
 31 32  1  0
 32 33  1  0
 33 34  1  0
 34 35  1  0
 16 36  1  0
 36 37  2  0
 10  5  1  0
 37 13  1  0
 30 25  1  0
 35 31  1  0
  6 38  1  0
  7 39  1  0
  8 40  1  0
 10 41  1  0
 14 42  1  0
 15 43  1  0
 17 44  1  0
 18 45  1  0
 18 46  1  0
 19 47  1  0
 19 48  1  0
 20 49  1  0
 20 50  1  0
 21 51  1  0
 21 52  1  0
 22 53  1  0
 22 54  1  0
 26 55  1  0
 26 56  1  0
 27 57  1  0
 27 58  1  0
 28 59  1  0
 29 60  1  0
 29 61  1  0
 30 62  1  0
 30 63  1  0
 32 64  1  0
 32 65  1  0
 33 66  1  0
 33 67  1  0
 34 68  1  0
 34 69  1  0
 35 70  1  0
 35 71  1  0
 36 72  1  0
 37 73  1  0
M  END
$$$$
[H]OC(=O)c1c([H])nc(N([H])C([H])([H])[C@]([H])(O[H])c2c([H])c([H])c([H])c3c([H])c([H])c([H])c([H])c23)c2c([H])c(C(O[H])(C([H])([H])[H])C([H])([H])[H])c(-c3c([H])c([H])nc(N([H])C([H])(C([H])([H])[H])C([H])([H])[H])c3[H])c([H])c12
     RDKit          3D

 75 79  0  0  0  0  0  0  0  0999 V2000
    8.4676    0.6797    2.0186 C   0  0  0  0  0  0  0  0  0  0  0  0
    7.8933    1.6713    1.0520 C   0  0  0  0  0  0  0  0  0  0  0  0
    8.3394    3.0539    1.4626 C   0  0  0  0  0  0  0  0  0  0  0  0
    6.4435    1.5818    0.9716 N   0  0  0  0  0  0  0  0  0  0  0  0
    5.7932    0.3798    0.5647 C   0  0  0  0  0  0  0  0  0  0  0  0
    4.4098    0.2910    0.4869 C   0  0  0  0  0  0  0  0  0  0  0  0
    3.7819   -0.8614    0.0972 C   0  0  0  0  0  0  0  0  0  0  0  0
    4.5346   -1.9479   -0.2217 C   0  0  0  0  0  0  0  0  0  0  0  0
    5.9137   -1.8613   -0.1451 C   0  0  0  0  0  0  0  0  0  0  0  0
    6.5019   -0.7135    0.2415 N   0  0  0  0  0  0  0  0  0  0  0  0
    2.3341   -0.9250    0.0843 C   0  0  0  0  0  0  0  0  0  0  0  0
    1.6697   -1.1181    1.3143 C   0  0  0  0  0  0  0  0  0  0  0  0
    0.3080   -1.2123    1.4043 C   0  0  0  0  0  0  0  0  0  0  0  0
   -0.3223   -1.3889    2.6176 C   0  0  0  0  0  0  0  0  0  0  0  0
   -1.7306   -1.4576    2.6102 C   0  0  0  0  0  0  0  0  0  0  0  0
   -2.4341   -1.3605    1.4967 N   0  0  0  0  0  0  0  0  0  0  0  0
   -1.8091   -1.1868    0.2914 C   0  0  0  0  0  0  0  0  0  0  0  0
   -2.5719   -1.1306   -0.8940 N   0  0  0  0  0  0  0  0  0  0  0  0
   -4.0165   -1.1546   -0.9067 C   0  0  0  0  0  0  0  0  0  0  0  0
   -4.6910    0.1429   -0.6160 C   0  0  2  0  0  0  0  0  0  0  0  0
   -4.3476    0.5843    0.6544 O   0  0  0  0  0  0  0  0  0  0  0  0
   -6.1486   -0.0344   -0.6495 C   0  0  0  0  0  0  0  0  0  0  0  0
   -6.6812   -1.3081   -0.7709 C   0  0  0  0  0  0  0  0  0  0  0  0
   -8.0500   -1.4799   -0.7893 C   0  0  0  0  0  0  0  0  0  0  0  0
   -8.8992   -0.4048   -0.6889 C   0  0  0  0  0  0  0  0  0  0  0  0
   -8.3847    0.8769   -0.5672 C   0  0  0  0  0  0  0  0  0  0  0  0
   -9.2191    1.9754   -0.4692 C   0  0  0  0  0  0  0  0  0  0  0  0
   -8.6538    3.2245   -0.3553 C   0  0  0  0  0  0  0  0  0  0  0  0
   -7.2989    3.4323   -0.3345 C   0  0  0  0  0  0  0  0  0  0  0  0
   -6.4748    2.3201   -0.4337 C   0  0  0  0  0  0  0  0  0  0  0  0
   -6.9904    1.0404   -0.5497 C   0  0  0  0  0  0  0  0  0  0  0  0
   -0.4306   -1.1091    0.2196 C   0  0  0  0  0  0  0  0  0  0  0  0
    0.2315   -0.9198   -0.9755 C   0  0  0  0  0  0  0  0  0  0  0  0
    1.6288   -0.8217   -1.0835 C   0  0  0  0  0  0  0  0  0  0  0  0
    2.2433   -0.5943   -2.4121 C   0  0  0  0  0  0  0  0  0  0  0  0
    2.9251    0.7645   -2.5195 C   0  0  0  0  0  0  0  0  0  0  0  0
    1.1663   -0.5950   -3.5130 C   0  0  0  0  0  0  0  0  0  0  0  0
    3.1321   -1.5718   -2.8212 O   0  0  0  0  0  0  0  0  0  0  0  0
    0.3459   -1.5496    3.8761 C   0  0  0  0  0  0  0  0  0  0  0  0
    1.6601   -1.8058    4.0749 O   0  0  0  0  0  0  0  0  0  0  0  0
   -0.3549   -1.4483    4.9363 O   0  0  0  0  0  0  0  0  0  0  0  0
    8.7004   -0.2968    1.5473 H   0  0  0  0  0  0  0  0  0  0  0  0
    9.3729    1.1256    2.4777 H   0  0  0  0  0  0  0  0  0  0  0  0
    7.7433    0.5118    2.8570 H   0  0  0  0  0  0  0  0  0  0  0  0
    8.3286    1.4266    0.0441 H   0  0  0  0  0  0  0  0  0  0  0  0
    7.6160    3.4568    2.2090 H   0  0  0  0  0  0  0  0  0  0  0  0
    9.3188    3.0117    2.0074 H   0  0  0  0  0  0  0  0  0  0  0  0
    8.4282    3.7570    0.6354 H   0  0  0  0  0  0  0  0  0  0  0  0
    5.9070    2.4396    1.2261 H   0  0  0  0  0  0  0  0  0  0  0  0
    3.8435    1.1819    0.7505 H   0  0  0  0  0  0  0  0  0  0  0  0
    4.1216   -2.9204   -0.5333 H   0  0  0  0  0  0  0  0  0  0  0  0
    6.5304   -2.7072   -0.3926 H   0  0  0  0  0  0  0  0  0  0  0  0
    2.2984   -1.1742    2.1870 H   0  0  0  0  0  0  0  0  0  0  0  0
   -2.2836   -1.5953    3.5412 H   0  0  0  0  0  0  0  0  0  0  0  0
   -2.0999   -1.0738   -1.8147 H   0  0  0  0  0  0  0  0  0  0  0  0
   -4.3849   -1.6453   -1.8194 H   0  0  0  0  0  0  0  0  0  0  0  0
   -4.2942   -1.8490   -0.0520 H   0  0  0  0  0  0  0  0  0  0  0  0
   -4.3394    0.9631   -1.2905 H   0  0  0  0  0  0  0  0  0  0  0  0
   -5.0175    0.2388    1.2840 H   0  0  0  0  0  0  0  0  0  0  0  0
   -6.0848   -2.2092   -0.8579 H   0  0  0  0  0  0  0  0  0  0  0  0
   -8.4934   -2.4630   -0.8830 H   0  0  0  0  0  0  0  0  0  0  0  0
   -9.9750   -0.5158   -0.7007 H   0  0  0  0  0  0  0  0  0  0  0  0
  -10.2899    1.8125   -0.4856 H   0  0  0  0  0  0  0  0  0  0  0  0
   -9.3551    4.0691   -0.2799 H   0  0  0  0  0  0  0  0  0  0  0  0
   -6.8335    4.3955   -0.2469 H   0  0  0  0  0  0  0  0  0  0  0  0
   -5.3963    2.4231   -0.4291 H   0  0  0  0  0  0  0  0  0  0  0  0
   -0.3001   -0.8319   -1.9034 H   0  0  0  0  0  0  0  0  0  0  0  0
    2.6371    1.1940   -3.5030 H   0  0  0  0  0  0  0  0  0  0  0  0
    4.0291    0.6596   -2.5746 H   0  0  0  0  0  0  0  0  0  0  0  0
    2.5876    1.4720   -1.7589 H   0  0  0  0  0  0  0  0  0  0  0  0
    1.6712   -0.5881   -4.5153 H   0  0  0  0  0  0  0  0  0  0  0  0
    0.4582    0.2128   -3.3903 H   0  0  0  0  0  0  0  0  0  0  0  0
    0.6653   -1.5721   -3.4533 H   0  0  0  0  0  0  0  0  0  0  0  0
    2.6117   -2.3544   -3.1819 H   0  0  0  0  0  0  0  0  0  0  0  0
    2.0638   -2.6125    4.5409 H   0  0  0  0  0  0  0  0  0  0  0  0
  1  2  1  0
  2  3  1  0
  2  4  1  0
  4  5  1  0
  5  6  2  0
  6  7  1  0
  7  8  2  0
  8  9  1  0
  9 10  2  0
  7 11  1  0
 11 12  2  0
 12 13  1  0
 13 14  2  0
 14 15  1  0
 15 16  2  0
 16 17  1  0
 17 18  1  0
 18 19  1  0
 19 20  1  0
 20 21  1  0
 20 22  1  0
 22 23  2  0
 23 24  1  0
 24 25  2  0
 25 26  1  0
 26 27  2  0
 27 28  1  0
 28 29  2  0
 29 30  1  0
 30 31  2  0
 17 32  2  0
 32 33  1  0
 33 34  2  0
 34 35  1  0
 35 36  1  0
 35 37  1  0
 35 38  1  0
 14 39  1  0
 39 40  1  0
 39 41  2  0
 10  5  1  0
 34 11  1  0
 32 13  1  0
 31 22  1  0
 31 26  1  0
  1 42  1  0
  1 43  1  0
  1 44  1  0
  2 45  1  0
  3 46  1  0
  3 47  1  0
  3 48  1  0
  4 49  1  0
  6 50  1  0
  8 51  1  0
  9 52  1  0
 12 53  1  0
 15 54  1  0
 18 55  1  0
 19 56  1  0
 19 57  1  0
 20 58  1  6
 21 59  1  0
 23 60  1  0
 24 61  1  0
 25 62  1  0
 27 63  1  0
 28 64  1  0
 29 65  1  0
 30 66  1  0
 33 67  1  0
 36 68  1  0
 36 69  1  0
 36 70  1  0
 37 71  1  0
 37 72  1  0
 37 73  1  0
 38 74  1  0
 40 75  1  0
M  END
$$$$
[H]c1c([H])c([H])c(C2([H])C([H])([H])N([C@@]([H])(C(=O)N3C([H])([H])C([H])([H])N(c4c([H])c([H])c([H])c(Cl)c4F)C([H])([H])C3([H])[H])C([H])([H])C([H])(C([H])([H])[H])C([H])([H])[H])C2([H])[H])c([H])c1[H]
     RDKit          3D

 62 65  0  0  0  0  0  0  0  0999 V2000
   -2.2577   -4.2293   -1.3321 C   0  0  0  0  0  0  0  0  0  0  0  0
   -2.0696   -3.0636   -0.3282 C   0  0  0  0  0  0  0  0  0  0  0  0
   -1.5931   -3.7169    0.9243 C   0  0  0  0  0  0  0  0  0  0  0  0
   -1.1432   -2.1273   -1.0045 C   0  0  0  0  0  0  0  0  0  0  0  0
   -0.7544   -0.8796   -0.3228 C   0  0  1  0  0  0  0  0  0  0  0  0
   -1.9118   -0.0413   -0.0175 N   0  0  0  0  0  0  0  0  0  0  0  0
   -1.6014    1.2071    0.5712 C   0  0  0  0  0  0  0  0  0  0  0  0
   -2.2069    1.9686   -0.5850 C   0  0  0  0  0  0  0  0  0  0  0  0
   -2.4861    0.6364   -1.1546 C   0  0  0  0  0  0  0  0  0  0  0  0
   -3.3654    2.8138   -0.2278 C   0  0  0  0  0  0  0  0  0  0  0  0
   -3.3694    4.1125   -0.6892 C   0  0  0  0  0  0  0  0  0  0  0  0
   -4.4053    4.9910   -0.4129 C   0  0  0  0  0  0  0  0  0  0  0  0
   -5.4593    4.5400    0.3482 C   0  0  0  0  0  0  0  0  0  0  0  0
   -5.4486    3.2340    0.8083 C   0  0  0  0  0  0  0  0  0  0  0  0
   -4.4180    2.3613    0.5331 C   0  0  0  0  0  0  0  0  0  0  0  0
    0.0820   -1.1219    0.8482 C   0  0  0  0  0  0  0  0  0  0  0  0
   -0.4142   -0.7637    1.9828 O   0  0  0  0  0  0  0  0  0  0  0  0
    1.3516   -1.7034    0.7645 N   0  0  0  0  0  0  0  0  0  0  0  0
    2.0974   -1.9077    2.0215 C   0  0  0  0  0  0  0  0  0  0  0  0
    3.2466   -0.9005    1.9350 C   0  0  0  0  0  0  0  0  0  0  0  0
    3.7161   -0.7457    0.5697 N   0  0  0  0  0  0  0  0  0  0  0  0
    3.5497   -1.8905   -0.3040 C   0  0  0  0  0  0  0  0  0  0  0  0
    2.0322   -2.1198   -0.4254 C   0  0  0  0  0  0  0  0  0  0  0  0
    4.3109    0.4656    0.1316 C   0  0  0  0  0  0  0  0  0  0  0  0
    5.6344    0.4934   -0.3006 C   0  0  0  0  0  0  0  0  0  0  0  0
    6.2277    1.6613   -0.7249 C   0  0  0  0  0  0  0  0  0  0  0  0
    5.5414    2.8532   -0.7416 C   0  0  0  0  0  0  0  0  0  0  0  0
    4.2336    2.8382   -0.3171 C   0  0  0  0  0  0  0  0  0  0  0  0
    3.3523    4.3662   -0.3382 Cl  0  0  0  0  0  0  0  0  0  0  0  0
    3.6358    1.6599    0.1106 C   0  0  0  0  0  0  0  0  0  0  0  0
    2.3569    1.7430    0.5012 F   0  0  0  0  0  0  0  0  0  0  0  0
   -2.9185   -4.9913   -0.9158 H   0  0  0  0  0  0  0  0  0  0  0  0
   -1.2444   -4.6053   -1.6047 H   0  0  0  0  0  0  0  0  0  0  0  0
   -2.6809   -3.7932   -2.2496 H   0  0  0  0  0  0  0  0  0  0  0  0
   -3.0928   -2.6633   -0.1874 H   0  0  0  0  0  0  0  0  0  0  0  0
   -2.1608   -4.7023    0.9977 H   0  0  0  0  0  0  0  0  0  0  0  0
   -1.8767   -3.1996    1.8640 H   0  0  0  0  0  0  0  0  0  0  0  0
   -0.5379   -4.0399    0.8791 H   0  0  0  0  0  0  0  0  0  0  0  0
   -1.7143   -1.7973   -1.9509 H   0  0  0  0  0  0  0  0  0  0  0  0
   -0.3173   -2.7299   -1.4322 H   0  0  0  0  0  0  0  0  0  0  0  0
   -0.1346   -0.2274   -1.0103 H   0  0  0  0  0  0  0  0  0  0  0  0
   -2.2240    1.3547    1.4956 H   0  0  0  0  0  0  0  0  0  0  0  0
   -0.5450    1.4833    0.6894 H   0  0  0  0  0  0  0  0  0  0  0  0
   -1.4495    2.5089   -1.1994 H   0  0  0  0  0  0  0  0  0  0  0  0
   -1.9619    0.4160   -2.1154 H   0  0  0  0  0  0  0  0  0  0  0  0
   -3.5472    0.3404   -1.2727 H   0  0  0  0  0  0  0  0  0  0  0  0
   -2.5526    4.5126   -1.2973 H   0  0  0  0  0  0  0  0  0  0  0  0
   -4.3862    6.0074   -0.7867 H   0  0  0  0  0  0  0  0  0  0  0  0
   -6.2953    5.1688    0.5999 H   0  0  0  0  0  0  0  0  0  0  0  0
   -6.2684    2.8503    1.4123 H   0  0  0  0  0  0  0  0  0  0  0  0
   -4.3810    1.3400    0.8766 H   0  0  0  0  0  0  0  0  0  0  0  0
    2.5466   -2.9211    2.0464 H   0  0  0  0  0  0  0  0  0  0  0  0
    1.4962   -1.6700    2.8994 H   0  0  0  0  0  0  0  0  0  0  0  0
    2.8166    0.0708    2.2483 H   0  0  0  0  0  0  0  0  0  0  0  0
    4.0756   -1.2084    2.6104 H   0  0  0  0  0  0  0  0  0  0  0  0
    3.9573   -2.7891    0.2186 H   0  0  0  0  0  0  0  0  0  0  0  0
    3.9656   -1.7744   -1.2958 H   0  0  0  0  0  0  0  0  0  0  0  0
    1.7133   -1.4765   -1.2636 H   0  0  0  0  0  0  0  0  0  0  0  0
    1.8499   -3.1933   -0.6702 H   0  0  0  0  0  0  0  0  0  0  0  0
    6.1565   -0.4562   -0.2794 H   0  0  0  0  0  0  0  0  0  0  0  0
    7.2526    1.6639   -1.0558 H   0  0  0  0  0  0  0  0  0  0  0  0
    5.9951    3.7868   -1.0741 H   0  0  0  0  0  0  0  0  0  0  0  0
  1  2  1  0
  2  3  1  0
  2  4  1  0
  4  5  1  0
  5  6  1  0
  6  7  1  0
  7  8  1  0
  8  9  1  0
  8 10  1  0
 10 11  2  0
 11 12  1  0
 12 13  2  0
 13 14  1  0
 14 15  2  0
  5 16  1  0
 16 17  2  0
 16 18  1  0
 18 19  1  0
 19 20  1  0
 20 21  1  0
 21 22  1  0
 22 23  1  0
 21 24  1  0
 24 25  2  0
 25 26  1  0
 26 27  2  0
 27 28  1  0
 28 29  1  0
 28 30  2  0
 30 31  1  0
  9  6  1  0
 15 10  1  0
 23 18  1  0
 30 24  1  0
  1 32  1  0
  1 33  1  0
  1 34  1  0
  2 35  1  0
  3 36  1  0
  3 37  1  0
  3 38  1  0
  4 39  1  0
  4 40  1  0
  5 41  1  6
  7 42  1  0
  7 43  1  0
  8 44  1  0
  9 45  1  0
  9 46  1  0
 11 47  1  0
 12 48  1  0
 13 49  1  0
 14 50  1  0
 15 51  1  0
 19 52  1  0
 19 53  1  0
 20 54  1  0
 20 55  1  0
 22 56  1  0
 22 57  1  0
 23 58  1  0
 23 59  1  0
 25 60  1  0
 26 61  1  0
 27 62  1  0
M  END
$$$$
[H]OC(=O)[C@@]1([H])c2c([H])c([H])c(N([H])c3c([H])c([H])c([H])c([H])c3Cl)c([H])c2C([H])([H])C([H])([H])[C@@]1([H])C1([H])C([H])([H])N(C(=O)c2c(C([H])([H])[H])nn(C([H])([H])[H])c2C([H])([H])[H])C([H])([H])C1([H])[H]
     RDKit          3D

 67 71  0  0  0  0  0  0  0  0999 V2000
   -6.2846   -0.2808   -1.9659 C   0  0  0  0  0  0  0  0  0  0  0  0
   -6.0087    0.5530   -0.7855 C   0  0  0  0  0  0  0  0  0  0  0  0
   -6.2772    1.8733   -0.6118 N   0  0  0  0  0  0  0  0  0  0  0  0
   -5.8787    2.2448    0.5799 N   0  0  0  0  0  0  0  0  0  0  0  0
   -6.0136    3.6054    1.1050 C   0  0  0  0  0  0  0  0  0  0  0  0
   -5.3418    1.2072    1.2292 C   0  0  0  0  0  0  0  0  0  0  0  0
   -4.7769    1.2214    2.6076 C   0  0  0  0  0  0  0  0  0  0  0  0
   -5.4155    0.1289    0.3811 C   0  0  0  0  0  0  0  0  0  0  0  0
   -4.9351   -1.1993    0.7119 C   0  0  0  0  0  0  0  0  0  0  0  0
   -5.7371   -2.0214    1.2719 O   0  0  0  0  0  0  0  0  0  0  0  0
   -3.6259   -1.6446    0.4521 N   0  0  0  0  0  0  0  0  0  0  0  0
   -3.1063   -2.9423    0.7607 C   0  0  0  0  0  0  0  0  0  0  0  0
   -1.7296   -2.5628    1.3269 C   0  0  0  0  0  0  0  0  0  0  0  0
   -1.3077   -1.3066    0.5799 C   0  0  0  0  0  0  0  0  0  0  0  0
   -2.5328   -0.9283   -0.1680 C   0  0  0  0  0  0  0  0  0  0  0  0
   -0.1125   -1.6853   -0.2546 C   0  0  2  0  0  0  0  0  0  0  0  0
    0.9601   -2.1373    0.7076 C   0  0  0  0  0  0  0  0  0  0  0  0
    1.9400   -1.0264    1.0775 C   0  0  0  0  0  0  0  0  0  0  0  0
    2.5974   -0.6511   -0.1821 C   0  0  0  0  0  0  0  0  0  0  0  0
    3.9487   -0.4478   -0.2410 C   0  0  0  0  0  0  0  0  0  0  0  0
    4.5908   -0.0999   -1.3986 C   0  0  0  0  0  0  0  0  0  0  0  0
    5.9687    0.1388   -1.4526 N   0  0  0  0  0  0  0  0  0  0  0  0
    6.7980    0.7644   -0.5127 C   0  0  0  0  0  0  0  0  0  0  0  0
    6.3403    1.4792    0.5630 C   0  0  0  0  0  0  0  0  0  0  0  0
    7.2296    2.1165    1.4490 C   0  0  0  0  0  0  0  0  0  0  0  0
    8.5899    2.0537    1.2787 C   0  0  0  0  0  0  0  0  0  0  0  0
    9.0573    1.3418    0.2049 C   0  0  0  0  0  0  0  0  0  0  0  0
    8.1906    0.7194   -0.6599 C   0  0  0  0  0  0  0  0  0  0  0  0
    8.8038   -0.1903   -2.0280 Cl  0  0  0  0  0  0  0  0  0  0  0  0
    3.8339    0.0451   -2.5369 C   0  0  0  0  0  0  0  0  0  0  0  0
    2.4747   -0.1596   -2.4779 C   0  0  0  0  0  0  0  0  0  0  0  0
    1.8345   -0.5094   -1.3059 C   0  0  0  0  0  0  0  0  0  0  0  0
    0.3372   -0.7254   -1.2688 C   0  0  2  0  0  0  0  0  0  0  0  0
   -0.2579    0.6067   -1.2672 C   0  0  0  0  0  0  0  0  0  0  0  0
    0.0041    1.4873   -0.2273 O   0  0  0  0  0  0  0  0  0  0  0  0
   -1.0206    1.0444   -2.1661 O   0  0  0  0  0  0  0  0  0  0  0  0
   -7.1633    0.0357   -2.5305 H   0  0  0  0  0  0  0  0  0  0  0  0
   -6.3744   -1.3463   -1.6214 H   0  0  0  0  0  0  0  0  0  0  0  0
   -5.3853   -0.2976   -2.6510 H   0  0  0  0  0  0  0  0  0  0  0  0
   -6.9968    3.9772    0.7513 H   0  0  0  0  0  0  0  0  0  0  0  0
   -6.0682    3.5290    2.2033 H   0  0  0  0  0  0  0  0  0  0  0  0
   -5.1795    4.2172    0.7423 H   0  0  0  0  0  0  0  0  0  0  0  0
   -5.4779    1.7922    3.2580 H   0  0  0  0  0  0  0  0  0  0  0  0
   -4.7230    0.1871    3.0327 H   0  0  0  0  0  0  0  0  0  0  0  0
   -3.7881    1.6784    2.6758 H   0  0  0  0  0  0  0  0  0  0  0  0
   -2.9862   -3.5527   -0.1674 H   0  0  0  0  0  0  0  0  0  0  0  0
   -3.6622   -3.4891    1.5460 H   0  0  0  0  0  0  0  0  0  0  0  0
   -1.0992   -3.4431    1.0857 H   0  0  0  0  0  0  0  0  0  0  0  0
   -1.8717   -2.3878    2.3976 H   0  0  0  0  0  0  0  0  0  0  0  0
   -1.0215   -0.5360    1.3322 H   0  0  0  0  0  0  0  0  0  0  0  0
   -2.5271   -1.2453   -1.2406 H   0  0  0  0  0  0  0  0  0  0  0  0
   -2.7857    0.1668   -0.0654 H   0  0  0  0  0  0  0  0  0  0  0  0
   -0.4456   -2.6601   -0.7498 H   0  0  0  0  0  0  0  0  0  0  0  0
    0.5662   -2.4909    1.6845 H   0  0  0  0  0  0  0  0  0  0  0  0
    1.5751   -2.9050    0.1801 H   0  0  0  0  0  0  0  0  0  0  0  0
    1.4630   -0.1973    1.6212 H   0  0  0  0  0  0  0  0  0  0  0  0
    2.6444   -1.4997    1.8051 H   0  0  0  0  0  0  0  0  0  0  0  0
    4.5831   -0.5812    0.6533 H   0  0  0  0  0  0  0  0  0  0  0  0
    6.4264   -0.2237   -2.3654 H   0  0  0  0  0  0  0  0  0  0  0  0
    5.2712    1.5938    0.7508 H   0  0  0  0  0  0  0  0  0  0  0  0
    6.8544    2.6710    2.2863 H   0  0  0  0  0  0  0  0  0  0  0  0
    9.2761    2.5390    1.9532 H   0  0  0  0  0  0  0  0  0  0  0  0
   10.1397    1.2679    0.0337 H   0  0  0  0  0  0  0  0  0  0  0  0
    4.3136    0.3185   -3.4665 H   0  0  0  0  0  0  0  0  0  0  0  0
    1.8561   -0.0461   -3.3862 H   0  0  0  0  0  0  0  0  0  0  0  0
    0.1383   -1.1627   -2.2974 H   0  0  0  0  0  0  0  0  0  0  0  0
   -0.6892    1.9779    0.3040 H   0  0  0  0  0  0  0  0  0  0  0  0
  1  2  1  0
  2  3  2  0
  3  4  1  0
  4  5  1  0
  4  6  1  0
  6  7  1  0
  6  8  2  0
  8  9  1  0
  9 10  2  0
  9 11  1  0
 11 12  1  0
 12 13  1  0
 13 14  1  0
 14 15  1  0
 14 16  1  0
 16 17  1  0
 17 18  1  0
 18 19  1  0
 19 20  2  0
 20 21  1  0
 21 22  1  0
 22 23  1  0
 23 24  2  0
 24 25  1  0
 25 26  2  0
 26 27  1  0
 27 28  2  0
 28 29  1  0
 21 30  2  0
 30 31  1  0
 31 32  2  0
 32 33  1  0
 33 34  1  0
 34 35  1  0
 34 36  2  0
  8  2  1  0
 15 11  1  0
 33 16  1  0
 32 19  1  0
 28 23  1  0
  1 37  1  0
  1 38  1  0
  1 39  1  0
  5 40  1  0
  5 41  1  0
  5 42  1  0
  7 43  1  0
  7 44  1  0
  7 45  1  0
 12 46  1  0
 12 47  1  0
 13 48  1  0
 13 49  1  0
 14 50  1  0
 15 51  1  0
 15 52  1  0
 16 53  1  6
 17 54  1  0
 17 55  1  0
 18 56  1  0
 18 57  1  0
 20 58  1  0
 22 59  1  0
 24 60  1  0
 25 61  1  0
 26 62  1  0
 27 63  1  0
 30 64  1  0
 31 65  1  0
 33 66  1  6
 35 67  1  0
M  END
$$$$
[H]C(=Nc1c([H])c([H])c([H])c([H])c1[H])N([H])C([H])([H])C([H])(c1c([H])c([H])c([H])c([H])c1[H])c1c([H])c([H])c(F)c([H])c1[H]
     RDKit          3D

 43 45  0  0  0  0  0  0  0  0999 V2000
   -1.5549    4.6953    0.7035 F   0  0  0  0  0  0  0  0  0  0  0  0
   -1.3993    3.3396    0.5459 C   0  0  0  0  0  0  0  0  0  0  0  0
   -1.6172    2.7295   -0.6648 C   0  0  0  0  0  0  0  0  0  0  0  0
   -1.4564    1.3797   -0.7982 C   0  0  0  0  0  0  0  0  0  0  0  0
   -1.0768    0.6186    0.2701 C   0  0  0  0  0  0  0  0  0  0  0  0
   -0.8613    1.2392    1.4776 C   0  0  0  0  0  0  0  0  0  0  0  0
   -1.0150    2.6030    1.6473 C   0  0  0  0  0  0  0  0  0  0  0  0
   -0.8847   -0.8381    0.1989 C   0  0  0  0  0  0  0  0  0  0  0  0
   -0.3546   -1.2090   -1.1504 C   0  0  0  0  0  0  0  0  0  0  0  0
    0.9289   -0.5576   -1.4126 N   0  0  0  0  0  0  0  0  0  0  0  0
    1.6168   -0.7628   -2.6278 C   0  0  0  0  0  0  0  0  0  0  0  0
    2.8087   -0.3402   -2.7681 N   0  0  0  0  0  0  0  0  0  0  0  0
    3.4511    0.3377   -1.7071 C   0  0  0  0  0  0  0  0  0  0  0  0
    3.4939    1.7138   -1.6182 C   0  0  0  0  0  0  0  0  0  0  0  0
    4.1282    2.3426   -0.5712 C   0  0  0  0  0  0  0  0  0  0  0  0
    4.7286    1.5963    0.4016 C   0  0  0  0  0  0  0  0  0  0  0  0
    4.6935    0.2177    0.3253 C   0  0  0  0  0  0  0  0  0  0  0  0
    4.0590   -0.4001   -0.7219 C   0  0  0  0  0  0  0  0  0  0  0  0
   -2.1031   -1.6113    0.4895 C   0  0  0  0  0  0  0  0  0  0  0  0
   -2.3391   -1.9417    1.8175 C   0  0  0  0  0  0  0  0  0  0  0  0
   -3.4347   -2.6570    2.2208 C   0  0  0  0  0  0  0  0  0  0  0  0
   -4.3500   -3.0725    1.2753 C   0  0  0  0  0  0  0  0  0  0  0  0
   -4.1072   -2.7397   -0.0407 C   0  0  0  0  0  0  0  0  0  0  0  0
   -3.0057   -2.0198   -0.4510 C   0  0  0  0  0  0  0  0  0  0  0  0
   -1.9162    3.3837   -1.4749 H   0  0  0  0  0  0  0  0  0  0  0  0
   -1.6361    0.9330   -1.7637 H   0  0  0  0  0  0  0  0  0  0  0  0
   -0.5583    0.6843    2.3605 H   0  0  0  0  0  0  0  0  0  0  0  0
   -0.8344    3.0600    2.6230 H   0  0  0  0  0  0  0  0  0  0  0  0
   -0.1086   -1.1353    0.9428 H   0  0  0  0  0  0  0  0  0  0  0  0
   -0.1482   -2.3083   -1.1725 H   0  0  0  0  0  0  0  0  0  0  0  0
   -1.0082   -0.9894   -1.9929 H   0  0  0  0  0  0  0  0  0  0  0  0
    1.3178    0.0609   -0.6756 H   0  0  0  0  0  0  0  0  0  0  0  0
    1.1276   -1.2743   -3.4237 H   0  0  0  0  0  0  0  0  0  0  0  0
    3.0212    2.2969   -2.3842 H   0  0  0  0  0  0  0  0  0  0  0  0
    4.1268    3.4244   -0.5586 H   0  0  0  0  0  0  0  0  0  0  0  0
    5.2282    2.0891    1.2263 H   0  0  0  0  0  0  0  0  0  0  0  0
    5.1648   -0.3840    1.0887 H   0  0  0  0  0  0  0  0  0  0  0  0
    4.0285   -1.4720   -0.7866 H   0  0  0  0  0  0  0  0  0  0  0  0
   -1.6427   -1.6360    2.6098 H   0  0  0  0  0  0  0  0  0  0  0  0
   -3.6314   -2.9213    3.2490 H   0  0  0  0  0  0  0  0  0  0  0  0
   -5.2319   -3.6459    1.5833 H   0  0  0  0  0  0  0  0  0  0  0  0
   -4.8263   -3.0666   -0.7801 H   0  0  0  0  0  0  0  0  0  0  0  0
   -2.8215   -1.7623   -1.4842 H   0  0  0  0  0  0  0  0  0  0  0  0
  1  2  1  0
  2  3  2  0
  3  4  1  0
  4  5  2  0
  5  6  1  0
  6  7  2  0
  5  8  1  0
  8  9  1  0
  9 10  1  0
 10 11  1  0
 11 12  2  3
 12 13  1  0
 13 14  2  0
 14 15  1  0
 15 16  2  0
 16 17  1  0
 17 18  2  0
  8 19  1  0
 19 20  2  0
 20 21  1  0
 21 22  2  0
 22 23  1  0
 23 24  2  0
  7  2  1  0
 18 13  1  0
 24 19  1  0
  3 25  1  0
  4 26  1  0
  6 27  1  0
  7 28  1  0
  8 29  1  0
  9 30  1  0
  9 31  1  0
 10 32  1  0
 11 33  1  0
 14 34  1  0
 15 35  1  0
 16 36  1  0
 17 37  1  0
 18 38  1  0
 20 39  1  0
 21 40  1  0
 22 41  1  0
 23 42  1  0
 24 43  1  0
M  END
$$$$
[H]c1c(Cl)c([H])c(C(=O)N([H])[C@]([H])(C(=O)N([H])C([H])([H])c2c([H])c([H])c3c([H])c([H])c([H])c([H])c3c2[H])C([H])(C([H])([H])[H])C([H])([H])[H])c([H])c1Cl
     RDKit          3D

 51 53  0  0  0  0  0  0  0  0999 V2000
   -2.6225   -2.9078    0.8746 C   0  0  0  0  0  0  0  0  0  0  0  0
   -1.4938   -2.5670   -0.1101 C   0  0  0  0  0  0  0  0  0  0  0  0
   -0.3486   -3.4887    0.3434 C   0  0  0  0  0  0  0  0  0  0  0  0
   -1.0979   -1.1374    0.0275 C   0  0  2  0  0  0  0  0  0  0  0  0
   -2.2683   -0.2584   -0.1842 N   0  0  0  0  0  0  0  0  0  0  0  0
   -2.6981    0.5255    0.9079 C   0  0  0  0  0  0  0  0  0  0  0  0
   -2.1031    0.4731    2.0239 O   0  0  0  0  0  0  0  0  0  0  0  0
   -3.8570    1.4063    0.7189 C   0  0  0  0  0  0  0  0  0  0  0  0
   -4.3625    1.7571   -0.5094 C   0  0  0  0  0  0  0  0  0  0  0  0
   -5.4743    2.5966   -0.5953 C   0  0  0  0  0  0  0  0  0  0  0  0
   -6.0839    3.0168   -2.1796 Cl  0  0  0  0  0  0  0  0  0  0  0  0
   -6.0880    3.0912    0.5500 C   0  0  0  0  0  0  0  0  0  0  0  0
   -5.5914    2.7476    1.7922 C   0  0  0  0  0  0  0  0  0  0  0  0
   -6.3669    3.3711    3.2466 Cl  0  0  0  0  0  0  0  0  0  0  0  0
   -4.5017    1.9239    1.8450 C   0  0  0  0  0  0  0  0  0  0  0  0
   -0.0729   -0.6442   -0.9135 C   0  0  0  0  0  0  0  0  0  0  0  0
   -0.0764    0.6420   -1.0607 O   0  0  0  0  0  0  0  0  0  0  0  0
    0.8506   -1.4046   -1.6240 N   0  0  0  0  0  0  0  0  0  0  0  0
    1.7867   -0.6958   -2.5091 C   0  0  0  0  0  0  0  0  0  0  0  0
    2.8356   -0.0734   -1.6752 C   0  0  0  0  0  0  0  0  0  0  0  0
    3.6981    0.8241   -2.2970 C   0  0  0  0  0  0  0  0  0  0  0  0
    4.6854    1.4239   -1.5764 C   0  0  0  0  0  0  0  0  0  0  0  0
    4.8288    1.1395   -0.2275 C   0  0  0  0  0  0  0  0  0  0  0  0
    5.8247    1.7400    0.5099 C   0  0  0  0  0  0  0  0  0  0  0  0
    5.9674    1.4557    1.8522 C   0  0  0  0  0  0  0  0  0  0  0  0
    5.1265    0.5758    2.4750 C   0  0  0  0  0  0  0  0  0  0  0  0
    4.1221   -0.0337    1.7441 C   0  0  0  0  0  0  0  0  0  0  0  0
    3.9811    0.2544    0.3939 C   0  0  0  0  0  0  0  0  0  0  0  0
    2.9757   -0.3590   -0.3308 C   0  0  0  0  0  0  0  0  0  0  0  0
   -2.2522   -2.9200    1.9168 H   0  0  0  0  0  0  0  0  0  0  0  0
   -3.5137   -2.2903    0.7170 H   0  0  0  0  0  0  0  0  0  0  0  0
   -2.8923   -3.9701    0.6276 H   0  0  0  0  0  0  0  0  0  0  0  0
   -1.7625   -2.8510   -1.1262 H   0  0  0  0  0  0  0  0  0  0  0  0
   -0.6720   -4.0705    1.2298 H   0  0  0  0  0  0  0  0  0  0  0  0
    0.5307   -2.9034    0.6966 H   0  0  0  0  0  0  0  0  0  0  0  0
   -0.0893   -4.2338   -0.4454 H   0  0  0  0  0  0  0  0  0  0  0  0
   -0.7241   -0.9958    1.0581 H   0  0  0  0  0  0  0  0  0  0  0  0
   -2.7411   -0.2288   -1.0881 H   0  0  0  0  0  0  0  0  0  0  0  0
   -3.8882    1.3776   -1.4148 H   0  0  0  0  0  0  0  0  0  0  0  0
   -6.9434    3.7356    0.4080 H   0  0  0  0  0  0  0  0  0  0  0  0
   -4.0982    1.6437    2.8073 H   0  0  0  0  0  0  0  0  0  0  0  0
    0.9132   -2.4235   -1.5764 H   0  0  0  0  0  0  0  0  0  0  0  0
    2.1903   -1.4394   -3.2100 H   0  0  0  0  0  0  0  0  0  0  0  0
    1.1918    0.0748   -3.0406 H   0  0  0  0  0  0  0  0  0  0  0  0
    3.5589    1.0233   -3.3489 H   0  0  0  0  0  0  0  0  0  0  0  0
    5.3590    2.1229   -2.0558 H   0  0  0  0  0  0  0  0  0  0  0  0
    6.4733    2.4286   -0.0040 H   0  0  0  0  0  0  0  0  0  0  0  0
    6.7709    1.9507    2.4126 H   0  0  0  0  0  0  0  0  0  0  0  0
    5.2463    0.3618    3.5194 H   0  0  0  0  0  0  0  0  0  0  0  0
    3.4437   -0.7382    2.2282 H   0  0  0  0  0  0  0  0  0  0  0  0
    2.3238   -1.0490    0.1684 H   0  0  0  0  0  0  0  0  0  0  0  0
  1  2  1  0
  2  3  1  0
  2  4  1  0
  4  5  1  0
  5  6  1  0
  6  7  2  0
  6  8  1  0
  8  9  2  0
  9 10  1  0
 10 11  1  0
 10 12  2  0
 12 13  1  0
 13 14  1  0
 13 15  2  0
  4 16  1  0
 16 17  2  0
 16 18  1  0
 18 19  1  0
 19 20  1  0
 20 21  2  0
 21 22  1  0
 22 23  2  0
 23 24  1  0
 24 25  2  0
 25 26  1  0
 26 27  2  0
 27 28  1  0
 28 29  2  0
 15  8  1  0
 29 20  1  0
 28 23  1  0
  1 30  1  0
  1 31  1  0
  1 32  1  0
  2 33  1  0
  3 34  1  0
  3 35  1  0
  3 36  1  0
  4 37  1  1
  5 38  1  0
  9 39  1  0
 12 40  1  0
 15 41  1  0
 18 42  1  0
 19 43  1  0
 19 44  1  0
 21 45  1  0
 22 46  1  0
 24 47  1  0
 25 48  1  0
 26 49  1  0
 27 50  1  0
 29 51  1  0
M  END
$$$$
[H]c1c([H])c(C(=O)N2C([H])([H])C([H])([H])N([C@@]3([H])C([H])([H])C([H])([H])C([H])([H])C([H])([H])[C@]3([H])C(=O)OC([H])([H])[H])C([H])([H])C2([H])[H])c([H])c([H])c1Cl
     RDKit          3D

 50 52  0  0  0  0  0  0  0  0999 V2000
   -5.2189   -2.5343    0.8459 C   0  0  0  0  0  0  0  0  0  0  0  0
   -4.4205   -1.4344    0.3800 O   0  0  0  0  0  0  0  0  0  0  0  0
   -3.1265   -1.6271   -0.0762 C   0  0  0  0  0  0  0  0  0  0  0  0
   -2.6893   -2.8075   -0.0620 O   0  0  0  0  0  0  0  0  0  0  0  0
   -2.2680   -0.5151   -0.5659 C   0  0  1  0  0  0  0  0  0  0  0  0
   -2.9000    0.1596   -1.7647 C   0  0  0  0  0  0  0  0  0  0  0  0
   -4.1603    0.8974   -1.4460 C   0  0  0  0  0  0  0  0  0  0  0  0
   -3.9979    1.7318   -0.2218 C   0  0  0  0  0  0  0  0  0  0  0  0
   -2.5157    1.8234    0.1028 C   0  0  0  0  0  0  0  0  0  0  0  0
   -1.9358    0.4841    0.4965 C   0  0  2  0  0  0  0  0  0  0  0  0
   -0.5753    0.5993    0.8296 N   0  0  0  0  0  0  0  0  0  0  0  0
    0.0946   -0.4930    1.3683 C   0  0  0  0  0  0  0  0  0  0  0  0
    1.5106   -0.6265    0.7903 C   0  0  0  0  0  0  0  0  0  0  0  0
    2.1797    0.6328    0.7695 N   0  0  0  0  0  0  0  0  0  0  0  0
    1.4188    1.7817    1.3337 C   0  0  0  0  0  0  0  0  0  0  0  0
    0.1137    1.7688    0.5259 C   0  0  0  0  0  0  0  0  0  0  0  0
    3.4392    0.8966    0.2867 C   0  0  0  0  0  0  0  0  0  0  0  0
    3.7799    2.1716    0.4138 O   0  0  0  0  0  0  0  0  0  0  0  0
    4.4609    0.0858   -0.3242 C   0  0  0  0  0  0  0  0  0  0  0  0
    5.6860    0.6619   -0.7093 C   0  0  0  0  0  0  0  0  0  0  0  0
    6.6981   -0.0499   -1.2966 C   0  0  0  0  0  0  0  0  0  0  0  0
    6.5673   -1.3925   -1.5460 C   0  0  0  0  0  0  0  0  0  0  0  0
    7.8627   -2.3169   -2.3003 Cl  0  0  0  0  0  0  0  0  0  0  0  0
    5.3954   -1.9886   -1.1879 C   0  0  0  0  0  0  0  0  0  0  0  0
    4.3559   -1.2488   -0.5827 C   0  0  0  0  0  0  0  0  0  0  0  0
   -4.6396   -3.4798    0.8511 H   0  0  0  0  0  0  0  0  0  0  0  0
   -5.6708   -2.2825    1.8121 H   0  0  0  0  0  0  0  0  0  0  0  0
   -6.0480   -2.6309    0.1118 H   0  0  0  0  0  0  0  0  0  0  0  0
   -1.2977   -0.9352   -0.9392 H   0  0  0  0  0  0  0  0  0  0  0  0
   -3.1913   -0.6828   -2.4590 H   0  0  0  0  0  0  0  0  0  0  0  0
   -2.1983    0.7984   -2.3096 H   0  0  0  0  0  0  0  0  0  0  0  0
   -4.3984    1.5202   -2.3536 H   0  0  0  0  0  0  0  0  0  0  0  0
   -5.0329    0.2236   -1.3310 H   0  0  0  0  0  0  0  0  0  0  0  0
   -4.6139    1.4468    0.6297 H   0  0  0  0  0  0  0  0  0  0  0  0
   -4.2991    2.7861   -0.4907 H   0  0  0  0  0  0  0  0  0  0  0  0
   -2.4518    2.5599    0.9482 H   0  0  0  0  0  0  0  0  0  0  0  0
   -2.0065    2.1894   -0.8127 H   0  0  0  0  0  0  0  0  0  0  0  0
   -2.5014    0.1715    1.4228 H   0  0  0  0  0  0  0  0  0  0  0  0
    0.2312   -0.4955    2.4718 H   0  0  0  0  0  0  0  0  0  0  0  0
   -0.4177   -1.4400    1.1042 H   0  0  0  0  0  0  0  0  0  0  0  0
    2.0472   -1.4156    1.3845 H   0  0  0  0  0  0  0  0  0  0  0  0
    1.3502   -0.9756   -0.2449 H   0  0  0  0  0  0  0  0  0  0  0  0
    1.9610    2.7194    1.2449 H   0  0  0  0  0  0  0  0  0  0  0  0
    1.1793    1.5983    2.3877 H   0  0  0  0  0  0  0  0  0  0  0  0
   -0.4280    2.6799    0.7595 H   0  0  0  0  0  0  0  0  0  0  0  0
    0.4619    1.7221   -0.5477 H   0  0  0  0  0  0  0  0  0  0  0  0
    5.8107    1.7128   -0.5233 H   0  0  0  0  0  0  0  0  0  0  0  0
    7.6425    0.4044   -1.5912 H   0  0  0  0  0  0  0  0  0  0  0  0
    5.2777   -3.0453   -1.3780 H   0  0  0  0  0  0  0  0  0  0  0  0
    3.4790   -1.8101   -0.3429 H   0  0  0  0  0  0  0  0  0  0  0  0
  1  2  1  0
  2  3  1  0
  3  4  2  0
  3  5  1  0
  5  6  1  0
  6  7  1  0
  7  8  1  0
  8  9  1  0
  9 10  1  0
 10 11  1  0
 11 12  1  0
 12 13  1  0
 13 14  1  0
 14 15  1  0
 15 16  1  0
 14 17  1  0
 17 18  2  0
 17 19  1  0
 19 20  2  0
 20 21  1  0
 21 22  2  0
 22 23  1  0
 22 24  1  0
 24 25  2  0
 10  5  1  0
 16 11  1  0
 25 19  1  0
  1 26  1  0
  1 27  1  0
  1 28  1  0
  5 29  1  6
  6 30  1  0
  6 31  1  0
  7 32  1  0
  7 33  1  0
  8 34  1  0
  8 35  1  0
  9 36  1  0
  9 37  1  0
 10 38  1  1
 12 39  1  0
 12 40  1  0
 13 41  1  0
 13 42  1  0
 15 43  1  0
 15 44  1  0
 16 45  1  0
 16 46  1  0
 20 47  1  0
 21 48  1  0
 24 49  1  0
 25 50  1  0
M  END
$$$$
[H]Oc1c([H])c([H])c(OC(=O)N([H])c2nc([H])c([H])c(-c3c([H])c([H])nc([H])c3[H])c2[H])c([H])c1[H]
     RDKit          3D

 36 38  0  0  0  0  0  0  0  0999 V2000
   -7.6604   -0.8734   -0.9001 O   0  0  0  0  0  0  0  0  0  0  0  0
   -6.3121   -0.7245   -0.6609 C   0  0  0  0  0  0  0  0  0  0  0  0
   -5.6119   -1.6730    0.0706 C   0  0  0  0  0  0  0  0  0  0  0  0
   -4.2578   -1.5039    0.2993 C   0  0  0  0  0  0  0  0  0  0  0  0
   -3.5942   -0.4116   -0.1862 C   0  0  0  0  0  0  0  0  0  0  0  0
   -2.2335   -0.1993    0.0186 O   0  0  0  0  0  0  0  0  0  0  0  0
   -1.8004    0.5071    1.1438 C   0  0  0  0  0  0  0  0  0  0  0  0
   -2.6927    0.9168    1.9201 O   0  0  0  0  0  0  0  0  0  0  0  0
   -0.4104    0.7445    1.3876 N   0  0  0  0  0  0  0  0  0  0  0  0
    0.5899    0.2809    0.5088 C   0  0  0  0  0  0  0  0  0  0  0  0
    1.9116    0.5458    0.8094 C   0  0  0  0  0  0  0  0  0  0  0  0
    2.9270    0.1158   -0.0158 C   0  0  0  0  0  0  0  0  0  0  0  0
    2.5794   -0.5877   -1.1514 C   0  0  0  0  0  0  0  0  0  0  0  0
    1.2502   -0.8425   -1.4344 C   0  0  0  0  0  0  0  0  0  0  0  0
    0.2869   -0.4101   -0.6107 N   0  0  0  0  0  0  0  0  0  0  0  0
    4.3368    0.3847    0.2838 C   0  0  0  0  0  0  0  0  0  0  0  0
    4.6737    1.5490    0.9491 C   0  0  0  0  0  0  0  0  0  0  0  0
    5.9950    1.8070    1.2337 C   0  0  0  0  0  0  0  0  0  0  0  0
    6.9720    0.9474    0.8774 N   0  0  0  0  0  0  0  0  0  0  0  0
    6.6714   -0.1942    0.2282 C   0  0  0  0  0  0  0  0  0  0  0  0
    5.3516   -0.4614   -0.0613 C   0  0  0  0  0  0  0  0  0  0  0  0
   -4.2906    0.5281   -0.9116 C   0  0  0  0  0  0  0  0  0  0  0  0
   -5.6570    0.3823   -1.1571 C   0  0  0  0  0  0  0  0  0  0  0  0
   -8.0744   -1.3388   -1.6807 H   0  0  0  0  0  0  0  0  0  0  0  0
   -6.1192   -2.5475    0.4653 H   0  0  0  0  0  0  0  0  0  0  0  0
   -3.7096   -2.2406    0.8685 H   0  0  0  0  0  0  0  0  0  0  0  0
   -0.1723    1.2794    2.2496 H   0  0  0  0  0  0  0  0  0  0  0  0
    2.1426    1.1037    1.7147 H   0  0  0  0  0  0  0  0  0  0  0  0
    3.3259   -0.9519   -1.8385 H   0  0  0  0  0  0  0  0  0  0  0  0
    0.9401   -1.3937   -2.3201 H   0  0  0  0  0  0  0  0  0  0  0  0
    3.8989    2.2447    1.2395 H   0  0  0  0  0  0  0  0  0  0  0  0
    6.2505    2.7153    1.7520 H   0  0  0  0  0  0  0  0  0  0  0  0
    7.4356   -0.8735   -0.0543 H   0  0  0  0  0  0  0  0  0  0  0  0
    5.0746   -1.3722   -0.5834 H   0  0  0  0  0  0  0  0  0  0  0  0
   -3.8339    1.4171   -1.3271 H   0  0  0  0  0  0  0  0  0  0  0  0
   -6.1835    1.1300   -1.7271 H   0  0  0  0  0  0  0  0  0  0  0  0
  1  2  1  0
  2  3  2  0
  3  4  1  0
  4  5  2  0
  5  6  1  0
  6  7  1  0
  7  8  2  0
  7  9  1  0
  9 10  1  0
 10 11  2  0
 11 12  1  0
 12 13  2  0
 13 14  1  0
 14 15  2  0
 12 16  1  0
 16 17  2  0
 17 18  1  0
 18 19  2  0
 19 20  1  0
 20 21  2  0
  5 22  1  0
 22 23  2  0
 23  2  1  0
 15 10  1  0
 21 16  1  0
  1 24  1  0
  3 25  1  0
  4 26  1  0
  9 27  1  0
 11 28  1  0
 13 29  1  0
 14 30  1  0
 17 31  1  0
 18 32  1  0
 20 33  1  0
 21 34  1  0
 22 35  1  0
 23 36  1  0
M  END
$$$$
[H]c1nc2c([H])c(C#Cc3c([H])c([H])c([H])c([H])c3OC3([H])C([H])([H])C([H])([H])N(C(=S)N(C([H])([H])[H])C([H])([H])C([H])([H])C(F)(F)F)C([H])([H])C3([H])[H])c([H])nc2c([H])c1[H]
     RDKit          3D

 60 63  0  0  0  0  0  0  0  0999 V2000
   -7.2220    0.4827    0.1599 C   0  0  0  0  0  0  0  0  0  0  0  0
   -6.3625    1.7368    0.1720 C   0  0  0  0  0  0  0  0  0  0  0  0
   -5.0480    1.4358   -0.4367 N   0  0  0  0  0  0  0  0  0  0  0  0
   -5.0748    1.1491   -1.8522 C   0  0  0  0  0  0  0  0  0  0  0  0
   -3.8733    1.4554    0.3435 C   0  0  0  0  0  0  0  0  0  0  0  0
   -4.1241    1.8473    1.9493 S   0  0  0  0  0  0  0  0  0  0  0  0
   -2.5586    1.1933   -0.0451 N   0  0  0  0  0  0  0  0  0  0  0  0
   -2.0711    0.8231   -1.3426 C   0  0  0  0  0  0  0  0  0  0  0  0
   -0.7073    0.1754   -1.1926 C   0  0  0  0  0  0  0  0  0  0  0  0
   -0.6912   -0.7971   -0.0229 C   0  0  0  0  0  0  0  0  0  0  0  0
   -0.9557   -0.0445    1.2804 C   0  0  0  0  0  0  0  0  0  0  0  0
   -1.5039    1.3258    0.9869 C   0  0  0  0  0  0  0  0  0  0  0  0
    0.5913   -1.3672    0.0119 O   0  0  0  0  0  0  0  0  0  0  0  0
    0.9338   -2.6800    0.0831 C   0  0  0  0  0  0  0  0  0  0  0  0
   -0.0142   -3.6707    0.1628 C   0  0  0  0  0  0  0  0  0  0  0  0
    0.3160   -5.0246    0.2363 C   0  0  0  0  0  0  0  0  0  0  0  0
    1.6467   -5.3676    0.2282 C   0  0  0  0  0  0  0  0  0  0  0  0
    2.6098   -4.3793    0.1483 C   0  0  0  0  0  0  0  0  0  0  0  0
    2.2854   -3.0277    0.0745 C   0  0  0  0  0  0  0  0  0  0  0  0
    3.3073   -2.0196   -0.0148 C   0  0  0  0  0  0  0  0  0  0  0  0
    4.1736   -1.1857   -0.1093 C   0  0  0  0  0  0  0  0  0  0  0  0
    5.2189   -0.2091   -0.2384 C   0  0  0  0  0  0  0  0  0  0  0  0
    5.4951    0.3789   -1.4554 C   0  0  0  0  0  0  0  0  0  0  0  0
    6.4893    1.2991   -1.5549 N   0  0  0  0  0  0  0  0  0  0  0  0
    7.2385    1.6790   -0.5084 C   0  0  0  0  0  0  0  0  0  0  0  0
    8.2560    2.6276   -0.6344 C   0  0  0  0  0  0  0  0  0  0  0  0
    9.0175    3.0066    0.4564 C   0  0  0  0  0  0  0  0  0  0  0  0
    8.7254    2.4071    1.6633 C   0  0  0  0  0  0  0  0  0  0  0  0
    7.7342    1.4872    1.7708 N   0  0  0  0  0  0  0  0  0  0  0  0
    6.9932    1.1180    0.7109 C   0  0  0  0  0  0  0  0  0  0  0  0
    5.9900    0.1811    0.8418 C   0  0  0  0  0  0  0  0  0  0  0  0
   -8.5784    0.7647    0.7813 C   0  0  0  0  0  0  0  0  0  0  0  0
   -9.2575    1.7466    0.1006 F   0  0  0  0  0  0  0  0  0  0  0  0
   -9.3671   -0.3707    0.7137 F   0  0  0  0  0  0  0  0  0  0  0  0
   -8.4733    1.0945    2.1136 F   0  0  0  0  0  0  0  0  0  0  0  0
   -6.7156   -0.2577    0.8214 H   0  0  0  0  0  0  0  0  0  0  0  0
   -7.3740    0.0935   -0.8461 H   0  0  0  0  0  0  0  0  0  0  0  0
   -6.2473    2.1398    1.1942 H   0  0  0  0  0  0  0  0  0  0  0  0
   -6.8494    2.5156   -0.4445 H   0  0  0  0  0  0  0  0  0  0  0  0
   -5.0219    0.0557   -2.0793 H   0  0  0  0  0  0  0  0  0  0  0  0
   -6.0626    1.4530   -2.3048 H   0  0  0  0  0  0  0  0  0  0  0  0
   -4.3029    1.7462   -2.3761 H   0  0  0  0  0  0  0  0  0  0  0  0
   -2.6832    0.0635   -1.8729 H   0  0  0  0  0  0  0  0  0  0  0  0
   -1.9534    1.7142   -1.9581 H   0  0  0  0  0  0  0  0  0  0  0  0
   -0.4518   -0.4381   -2.1002 H   0  0  0  0  0  0  0  0  0  0  0  0
    0.0502    0.9405   -1.0325 H   0  0  0  0  0  0  0  0  0  0  0  0
   -1.5199   -1.5294   -0.0964 H   0  0  0  0  0  0  0  0  0  0  0  0
   -0.0117    0.0576    1.8486 H   0  0  0  0  0  0  0  0  0  0  0  0
   -1.6951   -0.5623    1.9231 H   0  0  0  0  0  0  0  0  0  0  0  0
   -0.7164    1.9473    0.5342 H   0  0  0  0  0  0  0  0  0  0  0  0
   -1.9143    1.8052    1.8991 H   0  0  0  0  0  0  0  0  0  0  0  0
   -1.0734   -3.4545    0.1732 H   0  0  0  0  0  0  0  0  0  0  0  0
   -0.4353   -5.7992    0.2995 H   0  0  0  0  0  0  0  0  0  0  0  0
    1.9055   -6.4158    0.2851 H   0  0  0  0  0  0  0  0  0  0  0  0
    3.6493   -4.6795    0.1432 H   0  0  0  0  0  0  0  0  0  0  0  0
    4.9046    0.0942   -2.3377 H   0  0  0  0  0  0  0  0  0  0  0  0
    8.4478    3.0651   -1.5838 H   0  0  0  0  0  0  0  0  0  0  0  0
    9.8078    3.7410    0.3679 H   0  0  0  0  0  0  0  0  0  0  0  0
    9.2958    2.6713    2.5515 H   0  0  0  0  0  0  0  0  0  0  0  0
    5.8284   -0.2385    1.8250 H   0  0  0  0  0  0  0  0  0  0  0  0
  1  2  1  0
  2  3  1  0
  3  4  1  0
  3  5  1  0
  5  6  2  0
  5  7  1  0
  7  8  1  0
  8  9  1  0
  9 10  1  0
 10 11  1  0
 11 12  1  0
 10 13  1  0
 13 14  1  0
 14 15  2  0
 15 16  1  0
 16 17  2  0
 17 18  1  0
 18 19  2  0
 19 20  1  0
 20 21  3  0
 21 22  1  0
 22 23  2  0
 23 24  1  0
 24 25  2  0
 25 26  1  0
 26 27  2  0
 27 28  1  0
 28 29  2  0
 29 30  1  0
 30 31  2  0
  1 32  1  0
 32 33  1  0
 32 34  1  0
 32 35  1  0
 12  7  1  0
 19 14  1  0
 31 22  1  0
 30 25  1  0
  1 36  1  0
  1 37  1  0
  2 38  1  0
  2 39  1  0
  4 40  1  0
  4 41  1  0
  4 42  1  0
  8 43  1  0
  8 44  1  0
  9 45  1  0
  9 46  1  0
 10 47  1  0
 11 48  1  0
 11 49  1  0
 12 50  1  0
 12 51  1  0
 15 52  1  0
 16 53  1  0
 17 54  1  0
 18 55  1  0
 23 56  1  0
 26 57  1  0
 27 58  1  0
 28 59  1  0
 31 60  1  0
M  END
$$$$
[H]c1c([H])c([H])c(C([H])([H])C([H])(C(=O)N([H])C([H])([H])c2nnc(-c3c([H])c([H])c([H])c([N+](=O)[O-])c3[H])o2)C([H])([H])C([H])([H])[H])c([H])c1[H]
     RDKit          3D

 48 50  0  0  0  0  0  0  0  0999 V2000
    2.9136   -2.5639    1.8123 C   0  0  0  0  0  0  0  0  0  0  0  0
    3.0871   -1.2105    1.1811 C   0  0  0  0  0  0  0  0  0  0  0  0
    3.1318   -1.3089   -0.3416 C   0  0  0  0  0  0  0  0  0  0  0  0
    3.3034    0.0263   -0.9824 C   0  0  0  0  0  0  0  0  0  0  0  0
    4.5194    0.7383   -0.6115 C   0  0  0  0  0  0  0  0  0  0  0  0
    4.5264    1.5881    0.4713 C   0  0  0  0  0  0  0  0  0  0  0  0
    5.6874    2.2793    0.8399 C   0  0  0  0  0  0  0  0  0  0  0  0
    6.8438    2.0985    0.0961 C   0  0  0  0  0  0  0  0  0  0  0  0
    6.8516    1.2463   -0.9964 C   0  0  0  0  0  0  0  0  0  0  0  0
    5.6747    0.5710   -1.3376 C   0  0  0  0  0  0  0  0  0  0  0  0
    1.7777   -1.8241   -0.7532 C   0  0  0  0  0  0  0  0  0  0  0  0
    1.6648   -2.9033   -1.3785 O   0  0  0  0  0  0  0  0  0  0  0  0
    0.6069   -1.0717   -0.4257 N   0  0  0  0  0  0  0  0  0  0  0  0
   -0.6889   -1.5500   -0.8111 C   0  0  0  0  0  0  0  0  0  0  0  0
   -1.7568   -0.6287   -0.3784 C   0  0  0  0  0  0  0  0  0  0  0  0
   -1.6297    0.5224    0.2891 N   0  0  0  0  0  0  0  0  0  0  0  0
   -2.8410    1.0609    0.4910 N   0  0  0  0  0  0  0  0  0  0  0  0
   -3.7102    0.1886   -0.0821 C   0  0  0  0  0  0  0  0  0  0  0  0
   -3.0317   -0.8125   -0.5941 O   0  0  0  0  0  0  0  0  0  0  0  0
   -5.1612    0.2912   -0.1496 C   0  0  0  0  0  0  0  0  0  0  0  0
   -5.9195   -0.6618   -0.7592 C   0  0  0  0  0  0  0  0  0  0  0  0
   -7.2818   -0.5627   -0.8210 C   0  0  0  0  0  0  0  0  0  0  0  0
   -7.9246    0.5166   -0.2611 C   0  0  0  0  0  0  0  0  0  0  0  0
   -7.1847    1.4934    0.3603 C   0  0  0  0  0  0  0  0  0  0  0  0
   -5.8242    1.3646    0.4051 C   0  0  0  0  0  0  0  0  0  0  0  0
   -7.8204    2.6099    0.9420 N   0  0  0  0  0  0  0  0  0  0  0  0
   -9.1807    2.7296    0.8922 O   0  0  0  0  0  0  0  0  0  0  0  0
   -7.1448    3.4929    1.5043 O   0  0  0  0  0  0  0  0  0  0  0  0
    3.5372   -3.3047    1.3090 H   0  0  0  0  0  0  0  0  0  0  0  0
    3.2852   -2.4765    2.8676 H   0  0  0  0  0  0  0  0  0  0  0  0
    1.8517   -2.8659    1.9009 H   0  0  0  0  0  0  0  0  0  0  0  0
    2.2676   -0.5239    1.4299 H   0  0  0  0  0  0  0  0  0  0  0  0
    4.0723   -0.8140    1.5612 H   0  0  0  0  0  0  0  0  0  0  0  0
    3.8824   -2.0326   -0.6797 H   0  0  0  0  0  0  0  0  0  0  0  0
    3.3328   -0.1379   -2.0900 H   0  0  0  0  0  0  0  0  0  0  0  0
    2.3760    0.6306   -0.8148 H   0  0  0  0  0  0  0  0  0  0  0  0
    3.6448    1.7596    1.0814 H   0  0  0  0  0  0  0  0  0  0  0  0
    5.6762    2.9439    1.6943 H   0  0  0  0  0  0  0  0  0  0  0  0
    7.7383    2.6249    0.3722 H   0  0  0  0  0  0  0  0  0  0  0  0
    7.7534    1.1043   -1.5778 H   0  0  0  0  0  0  0  0  0  0  0  0
    5.6366   -0.1004   -2.1787 H   0  0  0  0  0  0  0  0  0  0  0  0
    0.6703   -0.1679    0.0953 H   0  0  0  0  0  0  0  0  0  0  0  0
   -0.8540   -2.5242   -0.2932 H   0  0  0  0  0  0  0  0  0  0  0  0
   -0.7860   -1.6871   -1.9169 H   0  0  0  0  0  0  0  0  0  0  0  0
   -5.4587   -1.5371   -1.2184 H   0  0  0  0  0  0  0  0  0  0  0  0
   -7.8716   -1.3283   -1.3090 H   0  0  0  0  0  0  0  0  0  0  0  0
   -9.0063    0.5818   -0.3179 H   0  0  0  0  0  0  0  0  0  0  0  0
   -5.2364    2.1357    0.8960 H   0  0  0  0  0  0  0  0  0  0  0  0
  1  2  1  0
  2  3  1  0
  3  4  1  0
  4  5  1  0
  5  6  2  0
  6  7  1  0
  7  8  2  0
  8  9  1  0
  9 10  2  0
  3 11  1  0
 11 12  2  0
 11 13  1  0
 13 14  1  0
 14 15  1  0
 15 16  2  0
 16 17  1  0
 17 18  2  0
 18 19  1  0
 18 20  1  0
 20 21  2  0
 21 22  1  0
 22 23  2  0
 23 24  1  0
 24 25  2  0
 24 26  1  0
 26 27  1  0
 26 28  2  0
 10  5  1  0
 19 15  1  0
 25 20  1  0
  1 29  1  0
  1 30  1  0
  1 31  1  0
  2 32  1  0
  2 33  1  0
  3 34  1  0
  4 35  1  0
  4 36  1  0
  6 37  1  0
  7 38  1  0
  8 39  1  0
  9 40  1  0
 10 41  1  0
 13 42  1  0
 14 43  1  0
 14 44  1  0
 21 45  1  0
 22 46  1  0
 23 47  1  0
 25 48  1  0
M  CHG  2  26   1  27  -1
M  END
$$$$
[H]c1c(C([H])([H])[H])nc(C([H])([H])Sc2c([H])c([H])c(F)c([H])c2[H])c(S(=O)(=O)N([H])c2c([H])c(C(=O)N([H])C3([H])C([H])([H])C([H])([H])N(C(=O)C([H])([H])[H])C([H])([H])C3([H])[H])c([H])c([H])c2OC([H])([H])[H])c1[H]
     RDKit          3D

 71 74  0  0  0  0  0  0  0  0999 V2000
   -3.4584    0.7299   -4.2560 C   0  0  0  0  0  0  0  0  0  0  0  0
   -2.8537   -0.2531   -3.4715 O   0  0  0  0  0  0  0  0  0  0  0  0
   -1.5477   -0.1626   -2.9999 C   0  0  0  0  0  0  0  0  0  0  0  0
   -0.8099    0.9716   -3.3332 C   0  0  0  0  0  0  0  0  0  0  0  0
    0.4919    1.1267   -2.8997 C   0  0  0  0  0  0  0  0  0  0  0  0
    1.0762    0.1483   -2.1260 C   0  0  0  0  0  0  0  0  0  0  0  0
    0.3044   -0.9686   -1.8147 C   0  0  0  0  0  0  0  0  0  0  0  0
   -0.9826   -1.1603   -2.2224 C   0  0  0  0  0  0  0  0  0  0  0  0
   -1.7498   -2.3090   -1.9473 N   0  0  0  0  0  0  0  0  0  0  0  0
   -1.6418   -3.1238   -0.4451 S   0  0  0  0  0  0  0  0  0  0  0  0
   -2.4579   -4.4151   -0.4791 O   0  0  0  0  0  0  0  0  0  0  0  0
   -0.2318   -3.6019   -0.1400 O   0  0  0  0  0  0  0  0  0  0  0  0
   -2.1305   -2.1144    0.8954 C   0  0  0  0  0  0  0  0  0  0  0  0
   -1.2392   -1.7454    1.8905 C   0  0  0  0  0  0  0  0  0  0  0  0
   -1.5630   -0.9522    2.9434 C   0  0  0  0  0  0  0  0  0  0  0  0
   -2.8527   -0.4913    3.0206 C   0  0  0  0  0  0  0  0  0  0  0  0
   -3.2236    0.3814    4.1581 C   0  0  0  0  0  0  0  0  0  0  0  0
   -3.7386   -0.8321    2.0719 N   0  0  0  0  0  0  0  0  0  0  0  0
   -3.4368   -1.6152    1.0247 C   0  0  0  0  0  0  0  0  0  0  0  0
   -4.3858   -2.0322   -0.0160 C   0  0  0  0  0  0  0  0  0  0  0  0
   -6.0465   -1.4030    0.1290 S   0  0  0  0  0  0  0  0  0  0  0  0
   -6.1561    0.3286   -0.1592 C   0  0  0  0  0  0  0  0  0  0  0  0
   -6.1618    1.2200    0.8730 C   0  0  0  0  0  0  0  0  0  0  0  0
   -6.2350    2.5868    0.6170 C   0  0  0  0  0  0  0  0  0  0  0  0
   -6.3045    3.0906   -0.6509 C   0  0  0  0  0  0  0  0  0  0  0  0
   -6.3761    4.4259   -0.8985 F   0  0  0  0  0  0  0  0  0  0  0  0
   -6.2976    2.1705   -1.6834 C   0  0  0  0  0  0  0  0  0  0  0  0
   -6.2262    0.8190   -1.4618 C   0  0  0  0  0  0  0  0  0  0  0  0
    2.4497    0.2632   -1.7021 C   0  0  0  0  0  0  0  0  0  0  0  0
    3.3238    0.3155   -2.6393 O   0  0  0  0  0  0  0  0  0  0  0  0
    2.9321    0.3230   -0.3801 N   0  0  0  0  0  0  0  0  0  0  0  0
    4.3301    0.4170   -0.0631 C   0  0  0  0  0  0  0  0  0  0  0  0
    4.6301    1.6530    0.7177 C   0  0  0  0  0  0  0  0  0  0  0  0
    6.1151    1.7757    1.0134 C   0  0  0  0  0  0  0  0  0  0  0  0
    6.7307    0.5306    1.3481 N   0  0  0  0  0  0  0  0  0  0  0  0
    6.1574   -0.7838    1.1286 C   0  0  0  0  0  0  0  0  0  0  0  0
    4.6964   -0.7760    0.8073 C   0  0  0  0  0  0  0  0  0  0  0  0
    8.0195    0.5528    1.9446 C   0  0  0  0  0  0  0  0  0  0  0  0
    8.7238   -0.7071    2.3126 C   0  0  0  0  0  0  0  0  0  0  0  0
    8.5991    1.6639    2.1740 O   0  0  0  0  0  0  0  0  0  0  0  0
   -4.5697    0.5460   -4.2473 H   0  0  0  0  0  0  0  0  0  0  0  0
   -3.3236    1.7440   -3.7733 H   0  0  0  0  0  0  0  0  0  0  0  0
   -3.0892    0.7334   -5.2963 H   0  0  0  0  0  0  0  0  0  0  0  0
   -1.2820    1.7324   -3.9413 H   0  0  0  0  0  0  0  0  0  0  0  0
    1.0896    2.0058   -3.1493 H   0  0  0  0  0  0  0  0  0  0  0  0
    0.7871   -1.7046   -1.2143 H   0  0  0  0  0  0  0  0  0  0  0  0
   -2.4007   -2.6717   -2.6717 H   0  0  0  0  0  0  0  0  0  0  0  0
   -0.2237   -2.1322    1.7914 H   0  0  0  0  0  0  0  0  0  0  0  0
   -0.8234   -0.7097    3.6752 H   0  0  0  0  0  0  0  0  0  0  0  0
   -2.6679    0.1109    5.0821 H   0  0  0  0  0  0  0  0  0  0  0  0
   -2.9721    1.4363    3.8830 H   0  0  0  0  0  0  0  0  0  0  0  0
   -4.3020    0.2819    4.4038 H   0  0  0  0  0  0  0  0  0  0  0  0
   -4.0017   -1.6946   -1.0221 H   0  0  0  0  0  0  0  0  0  0  0  0
   -4.4379   -3.1565    0.0068 H   0  0  0  0  0  0  0  0  0  0  0  0
   -6.1254    0.9042    1.9182 H   0  0  0  0  0  0  0  0  0  0  0  0
   -6.2367    3.2757    1.4675 H   0  0  0  0  0  0  0  0  0  0  0  0
   -6.3542    2.5885   -2.6856 H   0  0  0  0  0  0  0  0  0  0  0  0
   -6.2217    0.1133   -2.2882 H   0  0  0  0  0  0  0  0  0  0  0  0
    2.2411    0.2998    0.3976 H   0  0  0  0  0  0  0  0  0  0  0  0
    4.9805    0.4059   -0.9667 H   0  0  0  0  0  0  0  0  0  0  0  0
    4.0148    1.6338    1.6456 H   0  0  0  0  0  0  0  0  0  0  0  0
    4.3332    2.5569    0.1591 H   0  0  0  0  0  0  0  0  0  0  0  0
    6.2848    2.5006    1.8263 H   0  0  0  0  0  0  0  0  0  0  0  0
    6.6149    2.1927    0.1003 H   0  0  0  0  0  0  0  0  0  0  0  0
    6.6846   -1.3328    0.3208 H   0  0  0  0  0  0  0  0  0  0  0  0
    6.3054   -1.3937    2.0466 H   0  0  0  0  0  0  0  0  0  0  0  0
    4.1141   -0.6759    1.7518 H   0  0  0  0  0  0  0  0  0  0  0  0
    4.4650   -1.7180    0.2600 H   0  0  0  0  0  0  0  0  0  0  0  0
    8.4994   -1.5234    1.6047 H   0  0  0  0  0  0  0  0  0  0  0  0
    8.3295   -0.9821    3.3290 H   0  0  0  0  0  0  0  0  0  0  0  0
    9.8156   -0.5479    2.3060 H   0  0  0  0  0  0  0  0  0  0  0  0
  1  2  1  0
  2  3  1  0
  3  4  2  0
  4  5  1  0
  5  6  2  0
  6  7  1  0
  7  8  2  0
  8  9  1  0
  9 10  1  0
 10 11  2  0
 10 12  2  0
 10 13  1  0
 13 14  2  0
 14 15  1  0
 15 16  2  0
 16 17  1  0
 16 18  1  0
 18 19  2  0
 19 20  1  0
 20 21  1  0
 21 22  1  0
 22 23  2  0
 23 24  1  0
 24 25  2  0
 25 26  1  0
 25 27  1  0
 27 28  2  0
  6 29  1  0
 29 30  2  0
 29 31  1  0
 31 32  1  0
 32 33  1  0
 33 34  1  0
 34 35  1  0
 35 36  1  0
 36 37  1  0
 35 38  1  0
 38 39  1  0
 38 40  2  0
  8  3  1  0
 19 13  1  0
 28 22  1  0
 37 32  1  0
  1 41  1  0
  1 42  1  0
  1 43  1  0
  4 44  1  0
  5 45  1  0
  7 46  1  0
  9 47  1  0
 14 48  1  0
 15 49  1  0
 17 50  1  0
 17 51  1  0
 17 52  1  0
 20 53  1  0
 20 54  1  0
 23 55  1  0
 24 56  1  0
 27 57  1  0
 28 58  1  0
 31 59  1  0
 32 60  1  0
 33 61  1  0
 33 62  1  0
 34 63  1  0
 34 64  1  0
 36 65  1  0
 36 66  1  0
 37 67  1  0
 37 68  1  0
 39 69  1  0
 39 70  1  0
 39 71  1  0
M  END
$$$$
[H]/C(C(=O)N([H])C([H])([H])C(=O)N([H])[C@@]([H])(C(=O)N([H])C([H])([H])C([H])([H])C([H])([H])N1C([H])([H])C([H])([H])C([H])([H])C1([H])[H])C([H])([H])c1c([H])c([H])c([H])c([H])c1[H])=C(/[H])C([H])(C([H])([H])[H])C([H])([H])[H]
     RDKit          3D

 67 68  0  0  0  0  0  0  0  0999 V2000
   10.1119   -0.7322    0.3459 C   0  0  0  0  0  0  0  0  0  0  0  0
    8.9970   -1.7008   -0.0585 C   0  0  0  0  0  0  0  0  0  0  0  0
    9.3745   -3.1125    0.3359 C   0  0  0  0  0  0  0  0  0  0  0  0
    7.7779   -1.3062    0.6849 C   0  0  0  0  0  0  0  0  0  0  0  0
    6.6721   -0.9697    0.0478 C   0  0  0  0  0  0  0  0  0  0  0  0
    5.4467   -0.5748    0.7077 C   0  0  0  0  0  0  0  0  0  0  0  0
    5.4101   -0.5471    1.9574 O   0  0  0  0  0  0  0  0  0  0  0  0
    4.3105   -0.2239   -0.0380 N   0  0  0  0  0  0  0  0  0  0  0  0
    3.1077    0.1693    0.6412 C   0  0  0  0  0  0  0  0  0  0  0  0
    2.0120    0.5188   -0.2927 C   0  0  0  0  0  0  0  0  0  0  0  0
    2.2417    0.4254   -1.5196 O   0  0  0  0  0  0  0  0  0  0  0  0
    0.7377    0.9490    0.1312 N   0  0  0  0  0  0  0  0  0  0  0  0
   -0.2933    1.2821   -0.8026 C   0  0  2  0  0  0  0  0  0  0  0  0
   -0.5227    2.7815   -0.8799 C   0  0  0  0  0  0  0  0  0  0  0  0
   -0.9042    3.3890    0.4110 C   0  0  0  0  0  0  0  0  0  0  0  0
   -2.2179    3.5586    0.7516 C   0  0  0  0  0  0  0  0  0  0  0  0
   -2.6011    4.1157    1.9680 C   0  0  0  0  0  0  0  0  0  0  0  0
   -1.6481    4.5117    2.8618 C   0  0  0  0  0  0  0  0  0  0  0  0
   -0.3170    4.3478    2.5336 C   0  0  0  0  0  0  0  0  0  0  0  0
    0.0444    3.7979    1.3331 C   0  0  0  0  0  0  0  0  0  0  0  0
   -1.5715    0.6025   -0.5928 C   0  0  0  0  0  0  0  0  0  0  0  0
   -1.6138   -0.1625    0.4380 O   0  0  0  0  0  0  0  0  0  0  0  0
   -2.6942    0.7260   -1.4030 N   0  0  0  0  0  0  0  0  0  0  0  0
   -3.9438    0.0348   -1.1612 C   0  0  0  0  0  0  0  0  0  0  0  0
   -3.8502   -1.4493   -1.1943 C   0  0  0  0  0  0  0  0  0  0  0  0
   -5.1406   -2.1507   -1.0165 C   0  0  0  0  0  0  0  0  0  0  0  0
   -5.8902   -1.9237    0.1695 N   0  0  0  0  0  0  0  0  0  0  0  0
   -6.9130   -3.0179    0.2875 C   0  0  0  0  0  0  0  0  0  0  0  0
   -7.8317   -2.7027   -0.8651 C   0  0  0  0  0  0  0  0  0  0  0  0
   -7.8359   -1.2071   -1.0045 C   0  0  0  0  0  0  0  0  0  0  0  0
   -6.8300   -0.8168    0.0930 C   0  0  0  0  0  0  0  0  0  0  0  0
   10.4973   -1.0051    1.3518 H   0  0  0  0  0  0  0  0  0  0  0  0
   10.9426   -0.7618   -0.3946 H   0  0  0  0  0  0  0  0  0  0  0  0
    9.6611    0.2953    0.4225 H   0  0  0  0  0  0  0  0  0  0  0  0
    8.8664   -1.6012   -1.1551 H   0  0  0  0  0  0  0  0  0  0  0  0
    8.6157   -3.8006   -0.0826 H   0  0  0  0  0  0  0  0  0  0  0  0
   10.3733   -3.3973   -0.0440 H   0  0  0  0  0  0  0  0  0  0  0  0
    9.3782   -3.1610    1.4486 H   0  0  0  0  0  0  0  0  0  0  0  0
    7.7995   -1.2959    1.7546 H   0  0  0  0  0  0  0  0  0  0  0  0
    6.7204   -1.0025   -1.0345 H   0  0  0  0  0  0  0  0  0  0  0  0
    4.3664   -0.2580   -1.0836 H   0  0  0  0  0  0  0  0  0  0  0  0
    3.3320    1.0512    1.2638 H   0  0  0  0  0  0  0  0  0  0  0  0
    2.7383   -0.6759    1.2634 H   0  0  0  0  0  0  0  0  0  0  0  0
    0.5662    1.0177    1.1828 H   0  0  0  0  0  0  0  0  0  0  0  0
    0.0886    1.0111   -1.8319 H   0  0  0  0  0  0  0  0  0  0  0  0
   -1.4121    2.8893   -1.5704 H   0  0  0  0  0  0  0  0  0  0  0  0
    0.2950    3.3082   -1.3850 H   0  0  0  0  0  0  0  0  0  0  0  0
   -3.0259    3.2764    0.0878 H   0  0  0  0  0  0  0  0  0  0  0  0
   -3.6382    4.2398    2.2181 H   0  0  0  0  0  0  0  0  0  0  0  0
   -1.9359    4.9518    3.8239 H   0  0  0  0  0  0  0  0  0  0  0  0
    0.4078    4.6790    3.2761 H   0  0  0  0  0  0  0  0  0  0  0  0
    1.0740    3.6831    1.1069 H   0  0  0  0  0  0  0  0  0  0  0  0
   -2.6531    1.3547   -2.2479 H   0  0  0  0  0  0  0  0  0  0  0  0
   -4.7576    0.4166   -1.8020 H   0  0  0  0  0  0  0  0  0  0  0  0
   -4.2567    0.2966   -0.0866 H   0  0  0  0  0  0  0  0  0  0  0  0
   -3.4616   -1.7205   -2.2333 H   0  0  0  0  0  0  0  0  0  0  0  0
   -3.1009   -1.8085   -0.4461 H   0  0  0  0  0  0  0  0  0  0  0  0
   -5.8078   -2.0228   -1.9333 H   0  0  0  0  0  0  0  0  0  0  0  0
   -4.9099   -3.2656   -1.0560 H   0  0  0  0  0  0  0  0  0  0  0  0
   -6.4461   -3.9939    0.1500 H   0  0  0  0  0  0  0  0  0  0  0  0
   -7.4208   -2.8640    1.2452 H   0  0  0  0  0  0  0  0  0  0  0  0
   -8.8821   -3.0172   -0.6539 H   0  0  0  0  0  0  0  0  0  0  0  0
   -7.4736   -3.1512   -1.8188 H   0  0  0  0  0  0  0  0  0  0  0  0
   -7.4723   -0.8488   -1.9826 H   0  0  0  0  0  0  0  0  0  0  0  0
   -8.8301   -0.7482   -0.7980 H   0  0  0  0  0  0  0  0  0  0  0  0
   -6.4607    0.1457   -0.1768 H   0  0  0  0  0  0  0  0  0  0  0  0
   -7.4022   -0.8287    1.0503 H   0  0  0  0  0  0  0  0  0  0  0  0
  1  2  1  0
  2  3  1  0
  2  4  1  0
  4  5  2  0
  5  6  1  0
  6  7  2  0
  6  8  1  0
  8  9  1  0
  9 10  1  0
 10 11  2  0
 10 12  1  0
 12 13  1  0
 13 14  1  0
 14 15  1  0
 15 16  2  0
 16 17  1  0
 17 18  2  0
 18 19  1  0
 19 20  2  0
 13 21  1  0
 21 22  2  0
 21 23  1  0
 23 24  1  0
 24 25  1  0
 25 26  1  0
 26 27  1  0
 27 28  1  0
 28 29  1  0
 29 30  1  0
 30 31  1  0
 20 15  1  0
 31 27  1  0
  1 32  1  0
  1 33  1  0
  1 34  1  0
  2 35  1  0
  3 36  1  0
  3 37  1  0
  3 38  1  0
  4 39  1  0
  5 40  1  0
  8 41  1  0
  9 42  1  0
  9 43  1  0
 12 44  1  0
 13 45  1  6
 14 46  1  0
 14 47  1  0
 16 48  1  0
 17 49  1  0
 18 50  1  0
 19 51  1  0
 20 52  1  0
 23 53  1  0
 24 54  1  0
 24 55  1  0
 25 56  1  0
 25 57  1  0
 26 58  1  0
 26 59  1  0
 28 60  1  0
 28 61  1  0
 29 62  1  0
 29 63  1  0
 30 64  1  0
 30 65  1  0
 31 66  1  0
 31 67  1  0
M  END
$$$$
[H]c1c(-c2c([H])c([H])c3c(c2[H])C([H])([H])C([H])([H])O3)nnc(C([H])(N(C(=O)C([H])([H])N2C([H])([H])C([H])([H])C([H])([H])C2([H])[H])C([H])(c2c([H])c([H])c(C(F)(F)F)c([H])c2[H])C([H])([H])[H])C([H])([H])C2([H])C([H])([H])C([H])([H])C([H])([H])C([H])([H])C2([H])[H])c1[H]
     RDKit          3D

 85 90  0  0  0  0  0  0  0  0999 V2000
   -4.1098   -0.3481   -0.7512 C   0  0  0  0  0  0  0  0  0  0  0  0
   -3.0861    0.6395   -0.2726 C   0  0  0  0  0  0  0  0  0  0  0  0
   -1.9191    0.0325    0.3347 N   0  0  0  0  0  0  0  0  0  0  0  0
   -1.6287    0.3073    1.6953 C   0  0  0  0  0  0  0  0  0  0  0  0
   -0.6179   -0.0753    2.3121 O   0  0  0  0  0  0  0  0  0  0  0  0
   -2.6077    1.1241    2.4916 C   0  0  0  0  0  0  0  0  0  0  0  0
   -2.1145    1.2909    3.8639 N   0  0  0  0  0  0  0  0  0  0  0  0
   -3.1832    1.8543    4.6566 C   0  0  0  0  0  0  0  0  0  0  0  0
   -2.7768    3.2027    5.1272 C   0  0  0  0  0  0  0  0  0  0  0  0
   -1.2480    3.1020    5.0660 C   0  0  0  0  0  0  0  0  0  0  0  0
   -1.0262    2.2247    3.8761 C   0  0  0  0  0  0  0  0  0  0  0  0
   -1.0998   -0.9336   -0.3660 C   0  0  0  0  0  0  0  0  0  0  0  0
   -1.4242   -2.2375    0.3157 C   0  0  0  0  0  0  0  0  0  0  0  0
   -0.7707   -3.4792   -0.1026 C   0  0  0  0  0  0  0  0  0  0  0  0
   -0.9262   -3.9383   -1.5004 C   0  0  0  0  0  0  0  0  0  0  0  0
   -1.8349   -5.1316   -1.6999 C   0  0  0  0  0  0  0  0  0  0  0  0
   -1.4187   -6.3375   -0.8854 C   0  0  0  0  0  0  0  0  0  0  0  0
   -0.8896   -5.9137    0.4719 C   0  0  0  0  0  0  0  0  0  0  0  0
   -1.4521   -4.5732    0.7862 C   0  0  0  0  0  0  0  0  0  0  0  0
    0.3306   -0.6173   -0.4427 C   0  0  0  0  0  0  0  0  0  0  0  0
    0.8565    0.6427   -0.2187 C   0  0  0  0  0  0  0  0  0  0  0  0
    2.2219    0.8268   -0.3344 C   0  0  0  0  0  0  0  0  0  0  0  0
    3.0936   -0.1828   -0.6657 C   0  0  0  0  0  0  0  0  0  0  0  0
    2.5224   -1.4096   -0.8804 N   0  0  0  0  0  0  0  0  0  0  0  0
    1.2384   -1.5923   -0.7717 N   0  0  0  0  0  0  0  0  0  0  0  0
    4.5310   -0.0264   -0.7842 C   0  0  0  0  0  0  0  0  0  0  0  0
    5.2495   -1.1336   -1.2139 C   0  0  0  0  0  0  0  0  0  0  0  0
    6.6171   -1.1110   -1.3189 C   0  0  0  0  0  0  0  0  0  0  0  0
    7.3306    0.0232   -0.9975 C   0  0  0  0  0  0  0  0  0  0  0  0
    8.7113    0.2952   -1.0156 O   0  0  0  0  0  0  0  0  0  0  0  0
    8.8630    1.6970   -1.0753 C   0  0  0  0  0  0  0  0  0  0  0  0
    7.6492    2.1798   -0.2920 C   0  0  0  0  0  0  0  0  0  0  0  0
    6.6321    1.1410   -0.5674 C   0  0  0  0  0  0  0  0  0  0  0  0
    5.2372    1.1029   -0.4657 C   0  0  0  0  0  0  0  0  0  0  0  0
   -2.7682    1.6278   -1.3395 C   0  0  0  0  0  0  0  0  0  0  0  0
   -2.2661    2.8848   -1.0763 C   0  0  0  0  0  0  0  0  0  0  0  0
   -1.9663    3.7949   -2.0745 C   0  0  0  0  0  0  0  0  0  0  0  0
   -2.1619    3.4764   -3.3994 C   0  0  0  0  0  0  0  0  0  0  0  0
   -2.6634    2.2244   -3.6849 C   0  0  0  0  0  0  0  0  0  0  0  0
   -2.9607    1.3191   -2.6809 C   0  0  0  0  0  0  0  0  0  0  0  0
   -1.8489    4.4569   -4.4983 C   0  0  0  0  0  0  0  0  0  0  0  0
   -0.8613    3.9992   -5.3382 F   0  0  0  0  0  0  0  0  0  0  0  0
   -1.5170    5.6556   -3.9418 F   0  0  0  0  0  0  0  0  0  0  0  0
   -2.9787    4.6444   -5.2918 F   0  0  0  0  0  0  0  0  0  0  0  0
   -4.7017   -0.8042    0.0739 H   0  0  0  0  0  0  0  0  0  0  0  0
   -3.7517   -1.0774   -1.4794 H   0  0  0  0  0  0  0  0  0  0  0  0
   -4.8808    0.2677   -1.3042 H   0  0  0  0  0  0  0  0  0  0  0  0
   -3.6127    1.2580    0.5230 H   0  0  0  0  0  0  0  0  0  0  0  0
   -2.6903    2.1524    2.0914 H   0  0  0  0  0  0  0  0  0  0  0  0
   -3.6022    0.6722    2.5635 H   0  0  0  0  0  0  0  0  0  0  0  0
   -3.3454    1.1538    5.5167 H   0  0  0  0  0  0  0  0  0  0  0  0
   -4.1326    1.9132    4.0830 H   0  0  0  0  0  0  0  0  0  0  0  0
   -3.1294    3.4642    6.1358 H   0  0  0  0  0  0  0  0  0  0  0  0
   -3.0390    3.9917    4.3698 H   0  0  0  0  0  0  0  0  0  0  0  0
   -0.8009    4.1163    4.9392 H   0  0  0  0  0  0  0  0  0  0  0  0
   -0.8587    2.6330    6.0050 H   0  0  0  0  0  0  0  0  0  0  0  0
   -1.1079    2.8709    2.9563 H   0  0  0  0  0  0  0  0  0  0  0  0
   -0.0412    1.7081    3.8857 H   0  0  0  0  0  0  0  0  0  0  0  0
   -1.4925   -0.9372   -1.4155 H   0  0  0  0  0  0  0  0  0  0  0  0
   -1.3043   -2.1122    1.4053 H   0  0  0  0  0  0  0  0  0  0  0  0
   -2.5358   -2.3939    0.1696 H   0  0  0  0  0  0  0  0  0  0  0  0
    0.2945   -3.5598    0.2646 H   0  0  0  0  0  0  0  0  0  0  0  0
    0.1085   -4.1926   -1.8856 H   0  0  0  0  0  0  0  0  0  0  0  0
   -1.3460   -3.1309   -2.1495 H   0  0  0  0  0  0  0  0  0  0  0  0
   -2.8823   -4.8849   -1.4616 H   0  0  0  0  0  0  0  0  0  0  0  0
   -1.7536   -5.4367   -2.7642 H   0  0  0  0  0  0  0  0  0  0  0  0
   -0.7188   -7.0061   -1.4250 H   0  0  0  0  0  0  0  0  0  0  0  0
   -2.3376   -6.9334   -0.6985 H   0  0  0  0  0  0  0  0  0  0  0  0
    0.2200   -5.9079    0.4070 H   0  0  0  0  0  0  0  0  0  0  0  0
   -1.1506   -6.6028    1.2824 H   0  0  0  0  0  0  0  0  0  0  0  0
   -1.3474   -4.2997    1.8424 H   0  0  0  0  0  0  0  0  0  0  0  0
   -2.5177   -4.5348    0.5130 H   0  0  0  0  0  0  0  0  0  0  0  0
    0.2184    1.4606    0.0460 H   0  0  0  0  0  0  0  0  0  0  0  0
    2.6224    1.8254   -0.1544 H   0  0  0  0  0  0  0  0  0  0  0  0
    4.7457   -2.0571   -1.4855 H   0  0  0  0  0  0  0  0  0  0  0  0
    7.1852   -1.9874   -1.6621 H   0  0  0  0  0  0  0  0  0  0  0  0
    8.7618    2.0819   -2.1210 H   0  0  0  0  0  0  0  0  0  0  0  0
    9.8085    2.0326   -0.6059 H   0  0  0  0  0  0  0  0  0  0  0  0
    7.9396    2.1846    0.7888 H   0  0  0  0  0  0  0  0  0  0  0  0
    7.3785    3.1753   -0.6692 H   0  0  0  0  0  0  0  0  0  0  0  0
    4.7169    1.9762   -0.1271 H   0  0  0  0  0  0  0  0  0  0  0  0
   -2.1159    3.1443   -0.0162 H   0  0  0  0  0  0  0  0  0  0  0  0
   -1.5795    4.7604   -1.8329 H   0  0  0  0  0  0  0  0  0  0  0  0
   -2.8213    1.9506   -4.7360 H   0  0  0  0  0  0  0  0  0  0  0  0
   -3.3601    0.3362   -2.9181 H   0  0  0  0  0  0  0  0  0  0  0  0
  1  2  1  0
  2  3  1  0
  3  4  1  0
  4  5  2  0
  4  6  1  0
  6  7  1  0
  7  8  1  0
  8  9  1  0
  9 10  1  0
 10 11  1  0
  3 12  1  0
 12 13  1  0
 13 14  1  0
 14 15  1  0
 15 16  1  0
 16 17  1  0
 17 18  1  0
 18 19  1  0
 12 20  1  0
 20 21  2  0
 21 22  1  0
 22 23  2  0
 23 24  1  0
 24 25  2  0
 23 26  1  0
 26 27  2  0
 27 28  1  0
 28 29  2  0
 29 30  1  0
 30 31  1  0
 31 32  1  0
 32 33  1  0
 33 34  2  0
  2 35  1  0
 35 36  2  0
 36 37  1  0
 37 38  2  0
 38 39  1  0
 39 40  2  0
 38 41  1  0
 41 42  1  0
 41 43  1  0
 41 44  1  0
 11  7  1  0
 19 14  1  0
 25 20  1  0
 34 26  1  0
 40 35  1  0
 33 29  1  0
  1 45  1  0
  1 46  1  0
  1 47  1  0
  2 48  1  0
  6 49  1  0
  6 50  1  0
  8 51  1  0
  8 52  1  0
  9 53  1  0
  9 54  1  0
 10 55  1  0
 10 56  1  0
 11 57  1  0
 11 58  1  0
 12 59  1  0
 13 60  1  0
 13 61  1  0
 14 62  1  0
 15 63  1  0
 15 64  1  0
 16 65  1  0
 16 66  1  0
 17 67  1  0
 17 68  1  0
 18 69  1  0
 18 70  1  0
 19 71  1  0
 19 72  1  0
 21 73  1  0
 22 74  1  0
 27 75  1  0
 28 76  1  0
 31 77  1  0
 31 78  1  0
 32 79  1  0
 32 80  1  0
 34 81  1  0
 36 82  1  0
 37 83  1  0
 39 84  1  0
 40 85  1  0
M  END
$$$$
[H]OC(=O)c1c([H])c([H])c2nc(C([H])([H])c3c([H])c([H])c([H])c([H])c3[H])sc2c1[H]
     RDKit          3D

 30 32  0  0  0  0  0  0  0  0999 V2000
    5.8649    0.9532    1.3706 O   0  0  0  0  0  0  0  0  0  0  0  0
    5.3813   -0.2899    1.0127 C   0  0  0  0  0  0  0  0  0  0  0  0
    6.1473   -1.2752    1.1724 O   0  0  0  0  0  0  0  0  0  0  0  0
    4.0588   -0.4733    0.4773 C   0  0  0  0  0  0  0  0  0  0  0  0
    3.5349   -1.6949    0.1069 C   0  0  0  0  0  0  0  0  0  0  0  0
    2.2772   -1.8861   -0.4046 C   0  0  0  0  0  0  0  0  0  0  0  0
    1.4279   -0.7746   -0.5791 C   0  0  0  0  0  0  0  0  0  0  0  0
    0.2148   -0.8083   -1.0517 N   0  0  0  0  0  0  0  0  0  0  0  0
   -0.4866    0.2992   -1.1696 C   0  0  0  0  0  0  0  0  0  0  0  0
   -1.8667    0.5278   -1.6705 C   0  0  0  0  0  0  0  0  0  0  0  0
   -2.8886    0.4502   -0.6462 C   0  0  0  0  0  0  0  0  0  0  0  0
   -3.5045   -0.7374   -0.3493 C   0  0  0  0  0  0  0  0  0  0  0  0
   -4.4815   -0.8463    0.6201 C   0  0  0  0  0  0  0  0  0  0  0  0
   -4.8603    0.2743    1.3227 C   0  0  0  0  0  0  0  0  0  0  0  0
   -4.2607    1.4844    1.0488 C   0  0  0  0  0  0  0  0  0  0  0  0
   -3.2693    1.5687    0.0576 C   0  0  0  0  0  0  0  0  0  0  0  0
    0.6043    1.4757   -0.5867 S   0  0  0  0  0  0  0  0  0  0  0  0
    1.9343    0.4434   -0.2159 C   0  0  0  0  0  0  0  0  0  0  0  0
    3.2234    0.6186    0.3055 C   0  0  0  0  0  0  0  0  0  0  0  0
    6.3859    1.5247    0.7206 H   0  0  0  0  0  0  0  0  0  0  0  0
    4.1859   -2.5812    0.2359 H   0  0  0  0  0  0  0  0  0  0  0  0
    1.9738   -2.8909   -0.6601 H   0  0  0  0  0  0  0  0  0  0  0  0
   -2.0448   -0.1409   -2.5459 H   0  0  0  0  0  0  0  0  0  0  0  0
   -1.8971    1.5689   -2.1069 H   0  0  0  0  0  0  0  0  0  0  0  0
   -3.2105   -1.6160   -0.8971 H   0  0  0  0  0  0  0  0  0  0  0  0
   -4.9289   -1.8232    0.8038 H   0  0  0  0  0  0  0  0  0  0  0  0
   -5.6283    0.1448    2.0725 H   0  0  0  0  0  0  0  0  0  0  0  0
   -4.5735    2.3523    1.6129 H   0  0  0  0  0  0  0  0  0  0  0  0
   -2.8113    2.5323   -0.1405 H   0  0  0  0  0  0  0  0  0  0  0  0
    3.4982    1.6195    0.5494 H   0  0  0  0  0  0  0  0  0  0  0  0
  1  2  1  0
  2  3  2  0
  2  4  1  0
  4  5  2  0
  5  6  1  0
  6  7  2  0
  7  8  1  0
  8  9  2  0
  9 10  1  0
 10 11  1  0
 11 12  2  0
 12 13  1  0
 13 14  2  0
 14 15  1  0
 15 16  2  0
  9 17  1  0
 17 18  1  0
 18 19  2  0
 19  4  1  0
 18  7  1  0
 16 11  1  0
  1 20  1  0
  5 21  1  0
  6 22  1  0
 10 23  1  0
 10 24  1  0
 12 25  1  0
 13 26  1  0
 14 27  1  0
 15 28  1  0
 16 29  1  0
 19 30  1  0
M  END
$$$$
[H]c1nc2c([H])c([H])c([N+](=O)[O-])c([H])c2c(-c2c([H])sc(N([H])C([H])(C(=O)N3C(=O)C([H])([H])C([H])([H])C3([H])[H])C(F)(F)F)c2[H])c1[H]
     RDKit          3D

 47 50  0  0  0  0  0  0  0  0999 V2000
   -3.5847    0.2483   -3.9820 F   0  0  0  0  0  0  0  0  0  0  0  0
   -3.5428    1.3894   -3.1918 C   0  0  0  0  0  0  0  0  0  0  0  0
   -4.6844    1.5266   -2.4812 F   0  0  0  0  0  0  0  0  0  0  0  0
   -3.3321    2.5090   -3.9530 F   0  0  0  0  0  0  0  0  0  0  0  0
   -2.3145    1.2907   -2.2422 C   0  0  0  0  0  0  0  0  0  0  0  0
   -2.4784    0.1037   -1.3970 C   0  0  0  0  0  0  0  0  0  0  0  0
   -2.0397   -0.9989   -1.8582 O   0  0  0  0  0  0  0  0  0  0  0  0
   -3.0791    0.0850   -0.1209 N   0  0  0  0  0  0  0  0  0  0  0  0
   -3.2863   -1.1218    0.6941 C   0  0  0  0  0  0  0  0  0  0  0  0
   -4.5523   -0.7974    1.4495 C   0  0  0  0  0  0  0  0  0  0  0  0
   -4.3489    0.6490    1.8371 C   0  0  0  0  0  0  0  0  0  0  0  0
   -3.5681    1.1660    0.6672 C   0  0  0  0  0  0  0  0  0  0  0  0
   -3.4091    2.3943    0.4760 O   0  0  0  0  0  0  0  0  0  0  0  0
   -1.1528    1.1204   -3.0735 N   0  0  0  0  0  0  0  0  0  0  0  0
    0.1599    0.9661   -2.5180 C   0  0  0  0  0  0  0  0  0  0  0  0
    0.5466    0.9522   -1.2108 C   0  0  0  0  0  0  0  0  0  0  0  0
    1.8461    0.7857   -0.9250 C   0  0  0  0  0  0  0  0  0  0  0  0
    2.6931    0.6407   -2.0033 C   0  0  0  0  0  0  0  0  0  0  0  0
    1.6505    0.7421   -3.3425 S   0  0  0  0  0  0  0  0  0  0  0  0
    2.4038    0.7996    0.4601 C   0  0  0  0  0  0  0  0  0  0  0  0
    2.2560    1.9351    1.2348 C   0  0  0  0  0  0  0  0  0  0  0  0
    2.8026    1.9910    2.4866 C   0  0  0  0  0  0  0  0  0  0  0  0
    3.4763    0.9378    2.9423 N   0  0  0  0  0  0  0  0  0  0  0  0
    3.6530   -0.1847    2.2452 C   0  0  0  0  0  0  0  0  0  0  0  0
    4.3488   -1.2423    2.7715 C   0  0  0  0  0  0  0  0  0  0  0  0
    4.5194   -2.4157    2.0424 C   0  0  0  0  0  0  0  0  0  0  0  0
    3.9782   -2.5059    0.7774 C   0  0  0  0  0  0  0  0  0  0  0  0
    3.2762   -1.4242    0.2600 C   0  0  0  0  0  0  0  0  0  0  0  0
    3.0987   -0.2595    0.9608 C   0  0  0  0  0  0  0  0  0  0  0  0
    4.1205   -3.6861   -0.0096 N   0  0  0  0  0  0  0  0  0  0  0  0
    4.8145   -4.7845    0.4420 O   0  0  0  0  0  0  0  0  0  0  0  0
    3.5957   -3.7297   -1.1475 O   0  0  0  0  0  0  0  0  0  0  0  0
   -2.2942    2.2393   -1.6968 H   0  0  0  0  0  0  0  0  0  0  0  0
   -2.4305   -1.2252    1.3563 H   0  0  0  0  0  0  0  0  0  0  0  0
   -3.4226   -1.9940    0.0146 H   0  0  0  0  0  0  0  0  0  0  0  0
   -4.6837   -1.4486    2.3491 H   0  0  0  0  0  0  0  0  0  0  0  0
   -5.4419   -0.8998    0.7641 H   0  0  0  0  0  0  0  0  0  0  0  0
   -5.2661    1.2096    2.0210 H   0  0  0  0  0  0  0  0  0  0  0  0
   -3.6939    0.6256    2.7517 H   0  0  0  0  0  0  0  0  0  0  0  0
   -1.2368    1.1050   -4.1016 H   0  0  0  0  0  0  0  0  0  0  0  0
   -0.2160    1.0801   -0.4138 H   0  0  0  0  0  0  0  0  0  0  0  0
    3.7892    0.4946   -1.9511 H   0  0  0  0  0  0  0  0  0  0  0  0
    1.6907    2.7649    0.8003 H   0  0  0  0  0  0  0  0  0  0  0  0
    2.6550    2.9129    3.0523 H   0  0  0  0  0  0  0  0  0  0  0  0
    4.7818   -1.1963    3.7602 H   0  0  0  0  0  0  0  0  0  0  0  0
    5.0718   -3.2430    2.4709 H   0  0  0  0  0  0  0  0  0  0  0  0
    2.8303   -1.5070   -0.7421 H   0  0  0  0  0  0  0  0  0  0  0  0
  1  2  1  0
  2  3  1  0
  2  4  1  0
  2  5  1  0
  5  6  1  0
  6  7  2  0
  6  8  1  0
  8  9  1  0
  9 10  1  0
 10 11  1  0
 11 12  1  0
 12 13  2  0
  5 14  1  0
 14 15  1  0
 15 16  2  0
 16 17  1  0
 17 18  2  0
 18 19  1  0
 17 20  1  0
 20 21  2  0
 21 22  1  0
 22 23  2  0
 23 24  1  0
 24 25  2  0
 25 26  1  0
 26 27  2  0
 27 28  1  0
 28 29  2  0
 27 30  1  0
 30 31  1  0
 30 32  2  0
 12  8  1  0
 19 15  1  0
 29 20  1  0
 29 24  1  0
  5 33  1  0
  9 34  1  0
  9 35  1  0
 10 36  1  0
 10 37  1  0
 11 38  1  0
 11 39  1  0
 14 40  1  0
 16 41  1  0
 18 42  1  0
 21 43  1  0
 22 44  1  0
 25 45  1  0
 26 46  1  0
 28 47  1  0
M  CHG  2  30   1  31  -1
M  END
$$$$
[H]c1c([H])c([H])c2c([H])c(S(=O)(=O)[C@@]3([H])N(C([H])([H])C(=O)N([H])C([H])([H])C([H])([H])OC([H])([H])[H])C([H])([H])C([H])([H])C3([H])[H])sc2c1[H]
     RDKit          3D

 47 49  0  0  0  0  0  0  0  0999 V2000
    5.8573    2.9953   -0.3191 C   0  0  0  0  0  0  0  0  0  0  0  0
    5.3804    1.7493   -0.6515 O   0  0  0  0  0  0  0  0  0  0  0  0
    5.9051    0.7297    0.1401 C   0  0  0  0  0  0  0  0  0  0  0  0
    5.3103   -0.5648   -0.3215 C   0  0  0  0  0  0  0  0  0  0  0  0
    3.8669   -0.6168   -0.2213 N   0  0  0  0  0  0  0  0  0  0  0  0
    3.1543   -0.5022    0.9736 C   0  0  0  0  0  0  0  0  0  0  0  0
    3.7817   -0.3351    2.0759 O   0  0  0  0  0  0  0  0  0  0  0  0
    1.6896   -0.5564    1.0786 C   0  0  0  0  0  0  0  0  0  0  0  0
    1.0250   -0.7806   -0.1458 N   0  0  0  0  0  0  0  0  0  0  0  0
    1.2730   -2.1550   -0.5703 C   0  0  0  0  0  0  0  0  0  0  0  0
    0.0975   -2.9781   -0.0961 C   0  0  0  0  0  0  0  0  0  0  0  0
   -0.8304   -1.9407    0.5487 C   0  0  0  0  0  0  0  0  0  0  0  0
   -0.3924   -0.7047   -0.1587 C   0  0  1  0  0  0  0  0  0  0  0  0
   -1.1151    0.7823    0.3900 S   0  0  0  0  0  0  0  0  0  0  0  0
   -0.6511    1.9104   -0.4413 O   0  0  0  0  0  0  0  0  0  0  0  0
   -0.9426    1.0583    1.8494 O   0  0  0  0  0  0  0  0  0  0  0  0
   -2.8706    0.6300    0.1786 C   0  0  0  0  0  0  0  0  0  0  0  0
   -3.6954    1.3971   -0.5911 C   0  0  0  0  0  0  0  0  0  0  0  0
   -5.0123    1.0792   -0.5912 C   0  0  0  0  0  0  0  0  0  0  0  0
   -6.0379    1.7260   -1.3039 C   0  0  0  0  0  0  0  0  0  0  0  0
   -7.3368    1.3100   -1.2233 C   0  0  0  0  0  0  0  0  0  0  0  0
   -7.7265    0.2409   -0.4481 C   0  0  0  0  0  0  0  0  0  0  0  0
   -6.7318   -0.4044    0.2572 C   0  0  0  0  0  0  0  0  0  0  0  0
   -5.3975    0.0214    0.1763 C   0  0  0  0  0  0  0  0  0  0  0  0
   -3.9326   -0.5049    0.8776 S   0  0  0  0  0  0  0  0  0  0  0  0
    5.3679    3.7253   -1.0182 H   0  0  0  0  0  0  0  0  0  0  0  0
    6.9461    3.1178   -0.4062 H   0  0  0  0  0  0  0  0  0  0  0  0
    5.4669    3.2542    0.6895 H   0  0  0  0  0  0  0  0  0  0  0  0
    5.6418    0.9292    1.1921 H   0  0  0  0  0  0  0  0  0  0  0  0
    7.0167    0.7224    0.0988 H   0  0  0  0  0  0  0  0  0  0  0  0
    5.6888   -1.4285    0.2819 H   0  0  0  0  0  0  0  0  0  0  0  0
    5.5883   -0.7852   -1.3708 H   0  0  0  0  0  0  0  0  0  0  0  0
    3.3177   -0.7367   -1.1220 H   0  0  0  0  0  0  0  0  0  0  0  0
    1.3844    0.3792    1.6044 H   0  0  0  0  0  0  0  0  0  0  0  0
    1.4645   -1.3555    1.8563 H   0  0  0  0  0  0  0  0  0  0  0  0
    1.4053   -2.1626   -1.6680 H   0  0  0  0  0  0  0  0  0  0  0  0
    2.1719   -2.5621   -0.0353 H   0  0  0  0  0  0  0  0  0  0  0  0
   -0.4514   -3.3391   -1.0088 H   0  0  0  0  0  0  0  0  0  0  0  0
    0.3708   -3.7848    0.5818 H   0  0  0  0  0  0  0  0  0  0  0  0
   -1.8906   -2.2114    0.3711 H   0  0  0  0  0  0  0  0  0  0  0  0
   -0.5696   -1.9352    1.6232 H   0  0  0  0  0  0  0  0  0  0  0  0
   -0.6979   -0.8217   -1.2424 H   0  0  0  0  0  0  0  0  0  0  0  0
   -3.2432    2.2363   -1.1725 H   0  0  0  0  0  0  0  0  0  0  0  0
   -5.8314    2.5910   -1.9519 H   0  0  0  0  0  0  0  0  0  0  0  0
   -8.1015    1.8541   -1.8043 H   0  0  0  0  0  0  0  0  0  0  0  0
   -8.7668   -0.0371   -0.4255 H   0  0  0  0  0  0  0  0  0  0  0  0
   -6.9467   -1.2355    0.8770 H   0  0  0  0  0  0  0  0  0  0  0  0
  1  2  1  0
  2  3  1  0
  3  4  1  0
  4  5  1  0
  5  6  1  0
  6  7  2  0
  6  8  1  0
  8  9  1  0
  9 10  1  0
 10 11  1  0
 11 12  1  0
 12 13  1  0
 13 14  1  0
 14 15  2  0
 14 16  2  0
 14 17  1  0
 17 18  2  0
 18 19  1  0
 19 20  2  0
 20 21  1  0
 21 22  2  0
 22 23  1  0
 23 24  2  0
 24 25  1  0
 13  9  1  0
 25 17  1  0
 24 19  1  0
  1 26  1  0
  1 27  1  0
  1 28  1  0
  3 29  1  0
  3 30  1  0
  4 31  1  0
  4 32  1  0
  5 33  1  0
  8 34  1  0
  8 35  1  0
 10 36  1  0
 10 37  1  0
 11 38  1  0
 11 39  1  0
 12 40  1  0
 12 41  1  0
 13 42  1  6
 18 43  1  0
 20 44  1  0
 21 45  1  0
 22 46  1  0
 23 47  1  0
M  END
$$$$
[H]c1c(C([H])([H])[H])c([H])c(C([H])([H])[H])c([H])c1C([H])([H])[H]
     RDKit          3D

 21 21  0  0  0  0  0  0  0  0999 V2000
   -1.5004   -2.4095    0.2725 C   0  0  0  0  0  0  0  0  0  0  0  0
   -0.6890   -1.1706    0.1988 C   0  0  0  0  0  0  0  0  0  0  0  0
   -1.3291    0.0240    0.4392 C   0  0  0  0  0  0  0  0  0  0  0  0
   -0.6123    1.2049    0.3813 C   0  0  0  0  0  0  0  0  0  0  0  0
   -1.3278    2.4760    0.6445 C   0  0  0  0  0  0  0  0  0  0  0  0
    0.7350    1.1785    0.0842 C   0  0  0  0  0  0  0  0  0  0  0  0
    1.3747   -0.0190   -0.1563 C   0  0  0  0  0  0  0  0  0  0  0  0
    2.8121   -0.0844   -0.4764 C   0  0  0  0  0  0  0  0  0  0  0  0
    0.6401   -1.2064   -0.0951 C   0  0  0  0  0  0  0  0  0  0  0  0
   -1.0361   -3.2488   -0.2851 H   0  0  0  0  0  0  0  0  0  0  0  0
   -1.5852   -2.6546    1.3710 H   0  0  0  0  0  0  0  0  0  0  0  0
   -2.4963   -2.1647   -0.1535 H   0  0  0  0  0  0  0  0  0  0  0  0
   -2.4057    0.0400    0.6761 H   0  0  0  0  0  0  0  0  0  0  0  0
   -1.8432    2.7793   -0.3025 H   0  0  0  0  0  0  0  0  0  0  0  0
   -0.6663    3.2951    0.9421 H   0  0  0  0  0  0  0  0  0  0  0  0
   -2.1403    2.2788    1.3744 H   0  0  0  0  0  0  0  0  0  0  0  0
    1.2780    2.1324    0.0453 H   0  0  0  0  0  0  0  0  0  0  0  0
    3.4350   -0.3335    0.4131 H   0  0  0  0  0  0  0  0  0  0  0  0
    3.1932    0.8913   -0.8571 H   0  0  0  0  0  0  0  0  0  0  0  0
    3.0543   -0.8461   -1.2452 H   0  0  0  0  0  0  0  0  0  0  0  0
    1.1093   -2.1626   -0.2780 H   0  0  0  0  0  0  0  0  0  0  0  0
  1  2  1  0
  2  3  2  0
  3  4  1  0
  4  5  1  0
  4  6  2  0
  6  7  1  0
  7  8  1  0
  7  9  2  0
  9  2  1  0
  1 10  1  0
  1 11  1  0
  1 12  1  0
  3 13  1  0
  5 14  1  0
  5 15  1  0
  5 16  1  0
  6 17  1  0
  8 18  1  0
  8 19  1  0
  8 20  1  0
  9 21  1  0
M  END
$$$$
[H]c1nc([H])c(C(=O)N([H])[C@]2([H])c3c([H])c(C(F)(F)F)c([H])c([H])c3O[C@]([H])(c3c([H])c([H])c([H])c([H])c3[H])C([H])([H])C2([H])[H])c([H])c1[H]
     RDKit          3D

 49 52  0  0  0  0  0  0  0  0999 V2000
    3.3861    0.0589    1.8010 O   0  0  0  0  0  0  0  0  0  0  0  0
    3.0525    0.4983    0.6327 C   0  0  0  0  0  0  0  0  0  0  0  0
    1.7508    0.3068    0.1615 N   0  0  0  0  0  0  0  0  0  0  0  0
    0.7159   -0.3604    0.9636 C   0  0  1  0  0  0  0  0  0  0  0  0
   -0.2532    0.6788    1.4843 C   0  0  0  0  0  0  0  0  0  0  0  0
   -1.1091    1.2664    0.3849 C   0  0  0  0  0  0  0  0  0  0  0  0
   -2.3623    0.4660    0.3564 C   0  0  2  0  0  0  0  0  0  0  0  0
   -2.0882   -0.6053   -0.5724 O   0  0  0  0  0  0  0  0  0  0  0  0
   -1.1272   -1.6012   -0.3971 C   0  0  0  0  0  0  0  0  0  0  0  0
   -1.5334   -2.7772   -0.9714 C   0  0  0  0  0  0  0  0  0  0  0  0
   -0.7002   -3.9068   -0.8928 C   0  0  0  0  0  0  0  0  0  0  0  0
    0.5251   -3.8039   -0.2258 C   0  0  0  0  0  0  0  0  0  0  0  0
    0.8703   -2.5971    0.3254 C   0  0  0  0  0  0  0  0  0  0  0  0
    0.0677   -1.4561    0.2641 C   0  0  0  0  0  0  0  0  0  0  0  0
    1.3699   -5.0269   -0.1514 C   0  0  0  0  0  0  0  0  0  0  0  0
    2.4214   -4.9182   -1.0160 F   0  0  0  0  0  0  0  0  0  0  0  0
    1.8216   -5.1529    1.1627 F   0  0  0  0  0  0  0  0  0  0  0  0
    0.5993   -6.1349   -0.4240 F   0  0  0  0  0  0  0  0  0  0  0  0
   -3.5916    1.1319   -0.0410 C   0  0  0  0  0  0  0  0  0  0  0  0
   -3.7723    2.4876   -0.0687 C   0  0  0  0  0  0  0  0  0  0  0  0
   -4.9645    3.0900   -0.4115 C   0  0  0  0  0  0  0  0  0  0  0  0
   -6.0405    2.3327   -0.7469 C   0  0  0  0  0  0  0  0  0  0  0  0
   -5.8930    0.9442   -0.7316 C   0  0  0  0  0  0  0  0  0  0  0  0
   -4.6939    0.3638   -0.3867 C   0  0  0  0  0  0  0  0  0  0  0  0
    4.0763    1.1671   -0.1025 C   0  0  0  0  0  0  0  0  0  0  0  0
    4.6648    2.3101    0.4693 C   0  0  0  0  0  0  0  0  0  0  0  0
    5.6472    2.9371   -0.2293 C   0  0  0  0  0  0  0  0  0  0  0  0
    6.0388    2.4408   -1.4629 C   0  0  0  0  0  0  0  0  0  0  0  0
    5.4750    1.3543   -1.9946 N   0  0  0  0  0  0  0  0  0  0  0  0
    4.4919    0.7094   -1.3259 C   0  0  0  0  0  0  0  0  0  0  0  0
    1.4784    0.6326   -0.8055 H   0  0  0  0  0  0  0  0  0  0  0  0
    1.2300   -0.7507    1.8724 H   0  0  0  0  0  0  0  0  0  0  0  0
   -0.9310    0.3079    2.2627 H   0  0  0  0  0  0  0  0  0  0  0  0
    0.3585    1.4893    1.9426 H   0  0  0  0  0  0  0  0  0  0  0  0
   -1.1997    2.3279    0.5469 H   0  0  0  0  0  0  0  0  0  0  0  0
   -0.5049    1.1404   -0.5618 H   0  0  0  0  0  0  0  0  0  0  0  0
   -2.5362   -0.0567    1.3543 H   0  0  0  0  0  0  0  0  0  0  0  0
   -2.4730   -2.8816   -1.5033 H   0  0  0  0  0  0  0  0  0  0  0  0
   -1.0407   -4.8096   -1.3464 H   0  0  0  0  0  0  0  0  0  0  0  0
    1.8306   -2.5683    0.8283 H   0  0  0  0  0  0  0  0  0  0  0  0
   -2.9471    3.1307    0.2000 H   0  0  0  0  0  0  0  0  0  0  0  0
   -5.0617    4.1659   -0.4145 H   0  0  0  0  0  0  0  0  0  0  0  0
   -7.0038    2.7570   -1.0236 H   0  0  0  0  0  0  0  0  0  0  0  0
   -6.7459    0.3282   -0.9986 H   0  0  0  0  0  0  0  0  0  0  0  0
   -4.6452   -0.7089   -0.3918 H   0  0  0  0  0  0  0  0  0  0  0  0
    4.3361    2.6705    1.4292 H   0  0  0  0  0  0  0  0  0  0  0  0
    6.1215    3.8201    0.1886 H   0  0  0  0  0  0  0  0  0  0  0  0
    6.8307    2.9604   -1.9918 H   0  0  0  0  0  0  0  0  0  0  0  0
    4.0579   -0.1584   -1.7832 H   0  0  0  0  0  0  0  0  0  0  0  0
  1  2  2  0
  2  3  1  0
  3  4  1  0
  4  5  1  0
  5  6  1  0
  6  7  1  0
  7  8  1  0
  8  9  1  0
  9 10  2  0
 10 11  1  0
 11 12  2  0
 12 13  1  0
 13 14  2  0
 12 15  1  0
 15 16  1  0
 15 17  1  0
 15 18  1  0
  7 19  1  0
 19 20  2  0
 20 21  1  0
 21 22  2  0
 22 23  1  0
 23 24  2  0
  2 25  1  0
 25 26  2  0
 26 27  1  0
 27 28  2  0
 28 29  1  0
 29 30  2  0
 14  4  1  0
 24 19  1  0
 30 25  1  0
 14  9  1  0
  3 31  1  0
  4 32  1  1
  5 33  1  0
  5 34  1  0
  6 35  1  0
  6 36  1  0
  7 37  1  1
 10 38  1  0
 11 39  1  0
 13 40  1  0
 20 41  1  0
 21 42  1  0
 22 43  1  0
 23 44  1  0
 24 45  1  0
 26 46  1  0
 27 47  1  0
 28 48  1  0
 30 49  1  0
M  END
$$$$
[H]c1sc(C([H])([H])c2nc3c([H])c([H])c([H])c([H])c3c(=O)n2[H])c(C([H])([H])[H])c1[H]
     RDKit          3D

 30 32  0  0  0  0  0  0  0  0999 V2000
   -2.4295    0.9448    1.4871 C   0  0  0  0  0  0  0  0  0  0  0  0
   -2.9856    0.1385    0.3159 C   0  0  0  0  0  0  0  0  0  0  0  0
   -4.0327   -0.6905    0.4882 C   0  0  0  0  0  0  0  0  0  0  0  0
   -4.4746   -1.3723   -0.6212 C   0  0  0  0  0  0  0  0  0  0  0  0
   -3.4195   -0.8316   -1.8429 S   0  0  0  0  0  0  0  0  0  0  0  0
   -2.4531    0.2329   -0.9350 C   0  0  0  0  0  0  0  0  0  0  0  0
   -1.3065    1.0604   -1.3869 C   0  0  0  0  0  0  0  0  0  0  0  0
    0.0138    0.5414   -1.0349 C   0  0  0  0  0  0  0  0  0  0  0  0
    0.6593    0.8937    0.0876 N   0  0  0  0  0  0  0  0  0  0  0  0
    1.8801    0.4068    0.4019 C   0  0  0  0  0  0  0  0  0  0  0  0
    2.5542    0.7624    1.5550 C   0  0  0  0  0  0  0  0  0  0  0  0
    3.8049    0.2576    1.8677 C   0  0  0  0  0  0  0  0  0  0  0  0
    4.3968   -0.6289    0.9999 C   0  0  0  0  0  0  0  0  0  0  0  0
    3.7589   -0.9996   -0.1447 C   0  0  0  0  0  0  0  0  0  0  0  0
    2.5129   -0.4854   -0.4385 C   0  0  0  0  0  0  0  0  0  0  0  0
    1.8465   -0.8468   -1.5938 C   0  0  0  0  0  0  0  0  0  0  0  0
    2.4306   -1.6687   -2.3670 O   0  0  0  0  0  0  0  0  0  0  0  0
    0.6443   -0.3313   -1.8469 N   0  0  0  0  0  0  0  0  0  0  0  0
   -2.0150    1.8983    1.1157 H   0  0  0  0  0  0  0  0  0  0  0  0
   -3.2562    1.2184    2.1811 H   0  0  0  0  0  0  0  0  0  0  0  0
   -1.6392    0.3918    2.0011 H   0  0  0  0  0  0  0  0  0  0  0  0
   -4.5468   -0.8447    1.4729 H   0  0  0  0  0  0  0  0  0  0  0  0
   -5.3147   -2.0893   -0.6679 H   0  0  0  0  0  0  0  0  0  0  0  0
   -1.4079    2.0662   -0.8968 H   0  0  0  0  0  0  0  0  0  0  0  0
   -1.4035    1.2857   -2.4860 H   0  0  0  0  0  0  0  0  0  0  0  0
    2.0697    1.4619    2.2243 H   0  0  0  0  0  0  0  0  0  0  0  0
    4.3306    0.5480    2.7870 H   0  0  0  0  0  0  0  0  0  0  0  0
    5.3766   -1.0121    1.2643 H   0  0  0  0  0  0  0  0  0  0  0  0
    4.2582   -1.7017   -0.8050 H   0  0  0  0  0  0  0  0  0  0  0  0
    0.1475   -0.6060   -2.7164 H   0  0  0  0  0  0  0  0  0  0  0  0
  1  2  1  0
  2  3  1  0
  3  4  2  0
  4  5  1  0
  5  6  1  0
  6  7  1  0
  7  8  1  0
  8  9  2  0
  9 10  1  0
 10 11  2  0
 11 12  1  0
 12 13  2  0
 13 14  1  0
 14 15  2  0
 15 16  1  0
 16 17  2  0
 16 18  1  0
  6  2  2  0
 18  8  1  0
 15 10  1  0
  1 19  1  0
  1 20  1  0
  1 21  1  0
  3 22  1  0
  4 23  1  0
  7 24  1  0
  7 25  1  0
 11 26  1  0
 12 27  1  0
 13 28  1  0
 14 29  1  0
 18 30  1  0
M  END
$$$$
[H]c1c([H])c(C([H])([H])N2C([H])([H])C([H])([H])N(S(=O)(=O)C([H])([H])[H])C([H])([H])C2([H])[H])c([H])c([H])c1-n1nc(C([H])([H])C([H])(C([H])([H])[H])C([H])([H])[H])nc1C([H])([H])[H]
     RDKit          3D

 56 58  0  0  0  0  0  0  0  0999 V2000
    7.7403    0.2713    1.3433 C   0  0  0  0  0  0  0  0  0  0  0  0
    7.2238    1.6277    0.3100 S   0  0  0  0  0  0  0  0  0  0  0  0
    7.2230    2.9060    1.0621 O   0  0  0  0  0  0  0  0  0  0  0  0
    8.2174    1.7387   -0.8013 O   0  0  0  0  0  0  0  0  0  0  0  0
    5.6467    1.2987   -0.3108 N   0  0  0  0  0  0  0  0  0  0  0  0
    4.6679    1.1685    0.7225 C   0  0  0  0  0  0  0  0  0  0  0  0
    3.3483    0.8005    0.0312 C   0  0  0  0  0  0  0  0  0  0  0  0
    3.4620   -0.5521   -0.4202 N   0  0  0  0  0  0  0  0  0  0  0  0
    2.5450   -0.8886   -1.4647 C   0  0  0  0  0  0  0  0  0  0  0  0
    1.1418   -0.7135   -1.0207 C   0  0  0  0  0  0  0  0  0  0  0  0
    0.5036   -1.7812   -0.4289 C   0  0  0  0  0  0  0  0  0  0  0  0
   -0.7909   -1.6555   -0.0075 C   0  0  0  0  0  0  0  0  0  0  0  0
   -1.4953   -0.4839   -0.1532 C   0  0  0  0  0  0  0  0  0  0  0  0
   -0.8442    0.5887   -0.7512 C   0  0  0  0  0  0  0  0  0  0  0  0
    0.4613    0.4858   -1.1843 C   0  0  0  0  0  0  0  0  0  0  0  0
   -2.8525   -0.3543    0.2892 N   0  0  0  0  0  0  0  0  0  0  0  0
   -3.8566   -1.1004   -0.1050 N   0  0  0  0  0  0  0  0  0  0  0  0
   -4.9990   -0.7040    0.5134 C   0  0  0  0  0  0  0  0  0  0  0  0
   -6.3199   -1.3472    0.2847 C   0  0  0  0  0  0  0  0  0  0  0  0
   -6.9803   -0.6160   -0.8631 C   0  0  0  0  0  0  0  0  0  0  0  0
   -7.1360    0.8274   -0.4646 C   0  0  0  0  0  0  0  0  0  0  0  0
   -8.3551   -1.1672   -1.1720 C   0  0  0  0  0  0  0  0  0  0  0  0
   -4.6856    0.3189    1.3133 N   0  0  0  0  0  0  0  0  0  0  0  0
   -3.3604    0.5261    1.1673 C   0  0  0  0  0  0  0  0  0  0  0  0
   -2.5441    1.5707    1.8630 C   0  0  0  0  0  0  0  0  0  0  0  0
    4.8057   -0.9716   -0.6965 C   0  0  0  0  0  0  0  0  0  0  0  0
    5.6527    0.1796   -1.2227 C   0  0  0  0  0  0  0  0  0  0  0  0
    8.1838   -0.5495    0.7270 H   0  0  0  0  0  0  0  0  0  0  0  0
    8.5660    0.5941    2.0284 H   0  0  0  0  0  0  0  0  0  0  0  0
    6.9048   -0.1686    1.9089 H   0  0  0  0  0  0  0  0  0  0  0  0
    4.9113    0.3681    1.4561 H   0  0  0  0  0  0  0  0  0  0  0  0
    4.5086    2.1489    1.1939 H   0  0  0  0  0  0  0  0  0  0  0  0
    2.5383    0.8863    0.7731 H   0  0  0  0  0  0  0  0  0  0  0  0
    3.2184    1.4632   -0.8498 H   0  0  0  0  0  0  0  0  0  0  0  0
    2.7082   -1.9554   -1.7297 H   0  0  0  0  0  0  0  0  0  0  0  0
    2.7562   -0.3223   -2.4164 H   0  0  0  0  0  0  0  0  0  0  0  0
    1.0675   -2.7245   -0.3105 H   0  0  0  0  0  0  0  0  0  0  0  0
   -1.3067   -2.4823    0.4584 H   0  0  0  0  0  0  0  0  0  0  0  0
   -1.3786    1.5210   -0.8764 H   0  0  0  0  0  0  0  0  0  0  0  0
    0.9616    1.3308   -1.6511 H   0  0  0  0  0  0  0  0  0  0  0  0
   -6.1540   -2.4041    0.0383 H   0  0  0  0  0  0  0  0  0  0  0  0
   -6.9495   -1.3295    1.2009 H   0  0  0  0  0  0  0  0  0  0  0  0
   -6.3278   -0.7416   -1.7492 H   0  0  0  0  0  0  0  0  0  0  0  0
   -7.2826    0.8764    0.6167 H   0  0  0  0  0  0  0  0  0  0  0  0
   -6.2875    1.4383   -0.8338 H   0  0  0  0  0  0  0  0  0  0  0  0
   -8.0418    1.2234   -0.9647 H   0  0  0  0  0  0  0  0  0  0  0  0
   -8.8242   -0.4600   -1.8949 H   0  0  0  0  0  0  0  0  0  0  0  0
   -8.2827   -2.1857   -1.5909 H   0  0  0  0  0  0  0  0  0  0  0  0
   -8.9201   -1.1905   -0.2084 H   0  0  0  0  0  0  0  0  0  0  0  0
   -3.1305    1.9356    2.7519 H   0  0  0  0  0  0  0  0  0  0  0  0
   -2.3258    2.4221    1.1888 H   0  0  0  0  0  0  0  0  0  0  0  0
   -1.6062    1.0649    2.1836 H   0  0  0  0  0  0  0  0  0  0  0  0
    4.8152   -1.7713   -1.4417 H   0  0  0  0  0  0  0  0  0  0  0  0
    5.3255   -1.3096    0.2432 H   0  0  0  0  0  0  0  0  0  0  0  0
    5.2463    0.5338   -2.1965 H   0  0  0  0  0  0  0  0  0  0  0  0
    6.6864   -0.1851   -1.3414 H   0  0  0  0  0  0  0  0  0  0  0  0
  1  2  1  0
  2  3  2  0
  2  4  2  0
  2  5  1  0
  5  6  1  0
  6  7  1  0
  7  8  1  0
  8  9  1  0
  9 10  1  0
 10 11  2  0
 11 12  1  0
 12 13  2  0
 13 14  1  0
 14 15  2  0
 13 16  1  0
 16 17  1  0
 17 18  2  0
 18 19  1  0
 19 20  1  0
 20 21  1  0
 20 22  1  0
 18 23  1  0
 23 24  2  0
 24 25  1  0
  8 26  1  0
 26 27  1  0
 27  5  1  0
 15 10  1  0
 24 16  1  0
  1 28  1  0
  1 29  1  0
  1 30  1  0
  6 31  1  0
  6 32  1  0
  7 33  1  0
  7 34  1  0
  9 35  1  0
  9 36  1  0
 11 37  1  0
 12 38  1  0
 14 39  1  0
 15 40  1  0
 19 41  1  0
 19 42  1  0
 20 43  1  0
 21 44  1  0
 21 45  1  0
 21 46  1  0
 22 47  1  0
 22 48  1  0
 22 49  1  0
 25 50  1  0
 25 51  1  0
 25 52  1  0
 26 53  1  0
 26 54  1  0
 27 55  1  0
 27 56  1  0
M  END
$$$$
[H]c1nc(N2C([H])([H])C([H])([H])N(C([H])([H])C([H])([H])C([H])([H])N([H])C(=O)c3sc(C([H])([H])C([H])([H])N([H])c4nc(-c5c([H])c([H])c([H])c(OC([H])([H])[H])c5[H])c5c([H])c([H])c([H])c([H])c5n4)c([H])c3[H])C([H])([H])C2([H])[H])nc([H])c1[H]
     RDKit          3D

 80 85  0  0  0  0  0  0  0  0999 V2000
   11.1312   -0.2022   -1.5186 C   0  0  0  0  0  0  0  0  0  0  0  0
   10.3703   -1.2633   -2.0730 O   0  0  0  0  0  0  0  0  0  0  0  0
    9.0109   -1.3573   -1.8305 C   0  0  0  0  0  0  0  0  0  0  0  0
    8.2915   -2.4032   -2.3849 C   0  0  0  0  0  0  0  0  0  0  0  0
    6.9402   -2.4662   -2.1231 C   0  0  0  0  0  0  0  0  0  0  0  0
    6.3542   -1.5085   -1.3355 C   0  0  0  0  0  0  0  0  0  0  0  0
    7.0714   -0.4567   -0.7768 C   0  0  0  0  0  0  0  0  0  0  0  0
    8.4060   -0.3951   -1.0347 C   0  0  0  0  0  0  0  0  0  0  0  0
    6.4121    0.4858    0.0882 C   0  0  0  0  0  0  0  0  0  0  0  0
    5.7076   -0.0387    1.1300 N   0  0  0  0  0  0  0  0  0  0  0  0
    5.0363    0.6779    2.0127 C   0  0  0  0  0  0  0  0  0  0  0  0
    4.3234    0.0621    3.0685 N   0  0  0  0  0  0  0  0  0  0  0  0
    4.2928   -1.3568    3.2203 C   0  0  0  0  0  0  0  0  0  0  0  0
    3.6250   -2.0906    2.1035 C   0  0  0  0  0  0  0  0  0  0  0  0
    2.1846   -1.6987    1.9742 C   0  0  0  0  0  0  0  0  0  0  0  0
    1.3954   -0.9203    2.7665 C   0  0  0  0  0  0  0  0  0  0  0  0
    0.1252   -0.7226    2.3855 C   0  0  0  0  0  0  0  0  0  0  0  0
   -0.2946   -1.3126    1.2308 C   0  0  0  0  0  0  0  0  0  0  0  0
    1.1159   -2.1405    0.7002 S   0  0  0  0  0  0  0  0  0  0  0  0
   -1.6140   -1.2536    0.5727 C   0  0  0  0  0  0  0  0  0  0  0  0
   -1.7497   -1.8587   -0.5187 O   0  0  0  0  0  0  0  0  0  0  0  0
   -2.6419   -0.5263    1.1996 N   0  0  0  0  0  0  0  0  0  0  0  0
   -3.9779   -0.4340    0.5801 C   0  0  0  0  0  0  0  0  0  0  0  0
   -4.6332   -1.7410    0.4216 C   0  0  0  0  0  0  0  0  0  0  0  0
   -5.9853   -1.7115   -0.1664 C   0  0  0  0  0  0  0  0  0  0  0  0
   -6.2060   -1.1718   -1.4570 N   0  0  0  0  0  0  0  0  0  0  0  0
   -7.5226   -1.6255   -1.9685 C   0  0  0  0  0  0  0  0  0  0  0  0
   -8.5887   -0.6159   -1.9293 C   0  0  0  0  0  0  0  0  0  0  0  0
   -8.4335    0.4445   -0.9915 N   0  0  0  0  0  0  0  0  0  0  0  0
   -7.1200    0.8933   -0.6365 C   0  0  0  0  0  0  0  0  0  0  0  0
   -6.1832    0.2394   -1.6308 C   0  0  0  0  0  0  0  0  0  0  0  0
   -9.5743    1.0596   -0.4308 C   0  0  0  0  0  0  0  0  0  0  0  0
  -10.7904    0.7419   -0.9296 N   0  0  0  0  0  0  0  0  0  0  0  0
  -11.9494    1.2662   -0.4700 C   0  0  0  0  0  0  0  0  0  0  0  0
  -11.8994    2.1878    0.5766 C   0  0  0  0  0  0  0  0  0  0  0  0
  -10.6636    2.5057    1.0779 C   0  0  0  0  0  0  0  0  0  0  0  0
   -9.5365    1.9503    0.5803 N   0  0  0  0  0  0  0  0  0  0  0  0
    5.0471    2.0384    1.8751 N   0  0  0  0  0  0  0  0  0  0  0  0
    5.7074    2.6545    0.8858 C   0  0  0  0  0  0  0  0  0  0  0  0
    5.7122    4.0249    0.7327 C   0  0  0  0  0  0  0  0  0  0  0  0
    6.3831    4.6424   -0.2967 C   0  0  0  0  0  0  0  0  0  0  0  0
    7.0664    3.8591   -1.1967 C   0  0  0  0  0  0  0  0  0  0  0  0
    7.0614    2.4667   -1.0402 C   0  0  0  0  0  0  0  0  0  0  0  0
    6.3995    1.8442   -0.0192 C   0  0  0  0  0  0  0  0  0  0  0  0
   10.7967    0.7626   -1.9979 H   0  0  0  0  0  0  0  0  0  0  0  0
   12.2070   -0.2973   -1.7909 H   0  0  0  0  0  0  0  0  0  0  0  0
   11.0266   -0.1168   -0.4296 H   0  0  0  0  0  0  0  0  0  0  0  0
    8.7759   -3.1570   -3.0095 H   0  0  0  0  0  0  0  0  0  0  0  0
    6.3776   -3.2780   -2.5530 H   0  0  0  0  0  0  0  0  0  0  0  0
    5.2863   -1.5288   -1.1090 H   0  0  0  0  0  0  0  0  0  0  0  0
    9.0543    0.3913   -0.6339 H   0  0  0  0  0  0  0  0  0  0  0  0
    3.8276    0.6783    3.7418 H   0  0  0  0  0  0  0  0  0  0  0  0
    5.3583   -1.7112    3.2312 H   0  0  0  0  0  0  0  0  0  0  0  0
    3.8869   -1.6691    4.2166 H   0  0  0  0  0  0  0  0  0  0  0  0
    4.1277   -1.9152    1.1358 H   0  0  0  0  0  0  0  0  0  0  0  0
    3.6956   -3.2070    2.2496 H   0  0  0  0  0  0  0  0  0  0  0  0
    1.8054   -0.4726    3.7105 H   0  0  0  0  0  0  0  0  0  0  0  0
   -0.5911   -0.1025    2.9701 H   0  0  0  0  0  0  0  0  0  0  0  0
   -2.4410   -0.0556    2.1069 H   0  0  0  0  0  0  0  0  0  0  0  0
   -4.5690    0.2376    1.2068 H   0  0  0  0  0  0  0  0  0  0  0  0
   -3.7358   -0.0443   -0.4392 H   0  0  0  0  0  0  0  0  0  0  0  0
   -4.7767   -2.1419    1.4923 H   0  0  0  0  0  0  0  0  0  0  0  0
   -3.9747   -2.5252   -0.0467 H   0  0  0  0  0  0  0  0  0  0  0  0
   -6.4048   -2.7879   -0.1406 H   0  0  0  0  0  0  0  0  0  0  0  0
   -6.6593   -1.2283    0.6150 H   0  0  0  0  0  0  0  0  0  0  0  0
   -7.3078   -1.8863   -3.0339 H   0  0  0  0  0  0  0  0  0  0  0  0
   -7.7472   -2.5724   -1.4553 H   0  0  0  0  0  0  0  0  0  0  0  0
   -8.8063   -0.1660   -2.9420 H   0  0  0  0  0  0  0  0  0  0  0  0
   -9.5511   -1.1515   -1.6714 H   0  0  0  0  0  0  0  0  0  0  0  0
   -6.9929    1.9999   -0.8180 H   0  0  0  0  0  0  0  0  0  0  0  0
   -6.9151    0.7149    0.4041 H   0  0  0  0  0  0  0  0  0  0  0  0
   -6.7002    0.4119   -2.6401 H   0  0  0  0  0  0  0  0  0  0  0  0
   -5.2550    0.7546   -1.7265 H   0  0  0  0  0  0  0  0  0  0  0  0
  -12.9098    0.9995   -0.8822 H   0  0  0  0  0  0  0  0  0  0  0  0
  -12.8430    2.5880    0.9192 H   0  0  0  0  0  0  0  0  0  0  0  0
  -10.6003    3.2283    1.9022 H   0  0  0  0  0  0  0  0  0  0  0  0
    5.1649    4.6355    1.4550 H   0  0  0  0  0  0  0  0  0  0  0  0
    6.3834    5.7237   -0.4107 H   0  0  0  0  0  0  0  0  0  0  0  0
    7.6151    4.2672   -2.0299 H   0  0  0  0  0  0  0  0  0  0  0  0
    7.5848    1.8486   -1.7654 H   0  0  0  0  0  0  0  0  0  0  0  0
  1  2  1  0
  2  3  1  0
  3  4  2  0
  4  5  1  0
  5  6  2  0
  6  7  1  0
  7  8  2  0
  7  9  1  0
  9 10  2  0
 10 11  1  0
 11 12  1  0
 12 13  1  0
 13 14  1  0
 14 15  1  0
 15 16  2  0
 16 17  1  0
 17 18  2  0
 18 19  1  0
 18 20  1  0
 20 21  2  0
 20 22  1  0
 22 23  1  0
 23 24  1  0
 24 25  1  0
 25 26  1  0
 26 27  1  0
 27 28  1  0
 28 29  1  0
 29 30  1  0
 30 31  1  0
 29 32  1  0
 32 33  2  0
 33 34  1  0
 34 35  2  0
 35 36  1  0
 36 37  2  0
 11 38  2  0
 38 39  1  0
 39 40  2  0
 40 41  1  0
 41 42  2  0
 42 43  1  0
 43 44  2  0
  8  3  1  0
 44  9  1  0
 19 15  1  0
 31 26  1  0
 37 32  1  0
 44 39  1  0
  1 45  1  0
  1 46  1  0
  1 47  1  0
  4 48  1  0
  5 49  1  0
  6 50  1  0
  8 51  1  0
 12 52  1  0
 13 53  1  0
 13 54  1  0
 14 55  1  0
 14 56  1  0
 16 57  1  0
 17 58  1  0
 22 59  1  0
 23 60  1  0
 23 61  1  0
 24 62  1  0
 24 63  1  0
 25 64  1  0
 25 65  1  0
 27 66  1  0
 27 67  1  0
 28 68  1  0
 28 69  1  0
 30 70  1  0
 30 71  1  0
 31 72  1  0
 31 73  1  0
 34 74  1  0
 35 75  1  0
 36 76  1  0
 40 77  1  0
 41 78  1  0
 42 79  1  0
 43 80  1  0
M  END
$$$$
[H]c1nc(N([H])c2c([H])c([H])c(N3C([H])([H])C([H])([H])C([H])(n4c([H])nc([H])c4[H])C([H])([H])C3([H])[H])c([H])c2[H])nc(N([H])C(=O)c2nc([H])c([H])c([H])c2[H])c1[H]
     RDKit          3D

 57 61  0  0  0  0  0  0  0  0999 V2000
    8.5546    2.2081    0.6486 O   0  0  0  0  0  0  0  0  0  0  0  0
    7.6615    1.3440    0.1976 C   0  0  0  0  0  0  0  0  0  0  0  0
    6.3950    1.5284    0.6297 N   0  0  0  0  0  0  0  0  0  0  0  0
    5.1944    0.7802    0.5808 C   0  0  0  0  0  0  0  0  0  0  0  0
    5.0879   -0.5408    0.2845 C   0  0  0  0  0  0  0  0  0  0  0  0
    3.8319   -1.1520    0.1869 C   0  0  0  0  0  0  0  0  0  0  0  0
    2.7528   -0.3944    0.3968 N   0  0  0  0  0  0  0  0  0  0  0  0
    2.7866    0.9111    0.6946 C   0  0  0  0  0  0  0  0  0  0  0  0
    1.6513    1.7118    0.9174 N   0  0  0  0  0  0  0  0  0  0  0  0
    0.3276    1.2333    0.8719 C   0  0  0  0  0  0  0  0  0  0  0  0
   -0.6957    2.1756    0.6135 C   0  0  0  0  0  0  0  0  0  0  0  0
   -1.9956    1.7956    0.5803 C   0  0  0  0  0  0  0  0  0  0  0  0
   -2.4319    0.5058    0.7867 C   0  0  0  0  0  0  0  0  0  0  0  0
   -1.4301   -0.4158    1.0400 C   0  0  0  0  0  0  0  0  0  0  0  0
   -0.0999   -0.0458    1.0779 C   0  0  0  0  0  0  0  0  0  0  0  0
   -3.7898    0.1026    0.7543 N   0  0  0  0  0  0  0  0  0  0  0  0
   -4.8937    0.9918    0.5327 C   0  0  0  0  0  0  0  0  0  0  0  0
   -5.5573    0.5400   -0.7523 C   0  0  0  0  0  0  0  0  0  0  0  0
   -6.1142   -0.8412   -0.5011 C   0  0  0  0  0  0  0  0  0  0  0  0
   -5.6106   -1.4866    0.7538 C   0  0  0  0  0  0  0  0  0  0  0  0
   -4.1221   -1.2969    0.9528 C   0  0  0  0  0  0  0  0  0  0  0  0
   -7.5570   -0.6954   -0.3591 N   0  0  0  0  0  0  0  0  0  0  0  0
   -8.3415    0.0672   -1.1489 C   0  0  0  0  0  0  0  0  0  0  0  0
   -9.6328   -0.0494   -0.7078 C   0  0  0  0  0  0  0  0  0  0  0  0
   -9.6440   -0.8799    0.3489 N   0  0  0  0  0  0  0  0  0  0  0  0
   -8.3704   -1.2618    0.5445 C   0  0  0  0  0  0  0  0  0  0  0  0
    4.0272    1.4456    0.7738 N   0  0  0  0  0  0  0  0  0  0  0  0
    8.2164    0.3620   -0.6862 C   0  0  0  0  0  0  0  0  0  0  0  0
    9.5711    0.0013   -0.5900 C   0  0  0  0  0  0  0  0  0  0  0  0
   10.1724   -0.8572   -1.4594 C   0  0  0  0  0  0  0  0  0  0  0  0
    9.4313   -1.4033   -2.4826 C   0  0  0  0  0  0  0  0  0  0  0  0
    8.1037   -1.0628   -2.5937 C   0  0  0  0  0  0  0  0  0  0  0  0
    7.5774   -0.2156   -1.7078 N   0  0  0  0  0  0  0  0  0  0  0  0
    6.2754    2.4213    1.2971 H   0  0  0  0  0  0  0  0  0  0  0  0
    5.9182   -1.1936    0.1631 H   0  0  0  0  0  0  0  0  0  0  0  0
    3.7604   -2.1965   -0.0498 H   0  0  0  0  0  0  0  0  0  0  0  0
    1.8359    2.7302    1.1306 H   0  0  0  0  0  0  0  0  0  0  0  0
   -0.3546    3.2002    0.4489 H   0  0  0  0  0  0  0  0  0  0  0  0
   -2.7529    2.5429    0.3789 H   0  0  0  0  0  0  0  0  0  0  0  0
   -1.7267   -1.4634    1.2123 H   0  0  0  0  0  0  0  0  0  0  0  0
    0.6036   -0.8236    1.3006 H   0  0  0  0  0  0  0  0  0  0  0  0
   -5.6745    0.7996    1.3311 H   0  0  0  0  0  0  0  0  0  0  0  0
   -4.6917    2.0524    0.5848 H   0  0  0  0  0  0  0  0  0  0  0  0
   -6.3039    1.2468   -1.1103 H   0  0  0  0  0  0  0  0  0  0  0  0
   -4.7523    0.4532   -1.5172 H   0  0  0  0  0  0  0  0  0  0  0  0
   -5.9355   -1.4898   -1.3922 H   0  0  0  0  0  0  0  0  0  0  0  0
   -6.1581   -1.1654    1.6583 H   0  0  0  0  0  0  0  0  0  0  0  0
   -5.7869   -2.5884    0.6427 H   0  0  0  0  0  0  0  0  0  0  0  0
   -3.6007   -1.8674    0.1570 H   0  0  0  0  0  0  0  0  0  0  0  0
   -3.8611   -1.6487    1.9689 H   0  0  0  0  0  0  0  0  0  0  0  0
   -8.0546    0.6746   -1.9851 H   0  0  0  0  0  0  0  0  0  0  0  0
  -10.5464    0.4084   -1.0813 H   0  0  0  0  0  0  0  0  0  0  0  0
   -8.0182   -1.9431    1.3291 H   0  0  0  0  0  0  0  0  0  0  0  0
   10.1325    0.4463    0.2258 H   0  0  0  0  0  0  0  0  0  0  0  0
   11.2245   -1.0847   -1.3161 H   0  0  0  0  0  0  0  0  0  0  0  0
    9.9041   -2.0891   -3.1802 H   0  0  0  0  0  0  0  0  0  0  0  0
    7.5068   -1.4709   -3.3764 H   0  0  0  0  0  0  0  0  0  0  0  0
  1  2  2  0
  2  3  1  0
  3  4  1  0
  4  5  2  0
  5  6  1  0
  6  7  2  0
  7  8  1  0
  8  9  1  0
  9 10  1  0
 10 11  2  0
 11 12  1  0
 12 13  2  0
 13 14  1  0
 14 15  2  0
 13 16  1  0
 16 17  1  0
 17 18  1  0
 18 19  1  0
 19 20  1  0
 20 21  1  0
 19 22  1  0
 22 23  1  0
 23 24  2  0
 24 25  1  0
 25 26  2  0
  8 27  2  0
  2 28  1  0
 28 29  2  0
 29 30  1  0
 30 31  2  0
 31 32  1  0
 32 33  2  0
 27  4  1  0
 33 28  1  0
 15 10  1  0
 21 16  1  0
 26 22  1  0
  3 34  1  0
  5 35  1  0
  6 36  1  0
  9 37  1  0
 11 38  1  0
 12 39  1  0
 14 40  1  0
 15 41  1  0
 17 42  1  0
 17 43  1  0
 18 44  1  0
 18 45  1  0
 19 46  1  0
 20 47  1  0
 20 48  1  0
 21 49  1  0
 21 50  1  0
 23 51  1  0
 24 52  1  0
 26 53  1  0
 29 54  1  0
 30 55  1  0
 31 56  1  0
 32 57  1  0
M  END
$$$$
[H]ON([H])C(=O)C([H])([H])C([H])([H])C([H])([H])C([H])([H])[C@@]1([H])N([H])C(=O)[C@@]2([H])N(C(=O)[C@@]([H])(C([H])([H])c3c([H])c([H])c(Cl)c([H])c3[H])N([H])C(=O)[C@]1([H])N([H])[H])C([H])([H])c1c([H])c([H])c([H])c([H])c1C2([H])[H]
     RDKit          3D

 70 73  0  0  0  0  0  0  0  0999 V2000
    8.5261    0.1941    0.2060 O   0  0  0  0  0  0  0  0  0  0  0  0
    7.4258    0.2046   -0.4011 N   0  0  0  0  0  0  0  0  0  0  0  0
    6.2111    0.2161   -1.0713 C   0  0  0  0  0  0  0  0  0  0  0  0
    5.4073   -0.7623   -1.1209 O   0  0  0  0  0  0  0  0  0  0  0  0
    5.7853    1.4322   -1.7844 C   0  0  0  0  0  0  0  0  0  0  0  0
    4.3908    1.8492   -1.9297 C   0  0  0  0  0  0  0  0  0  0  0  0
    3.5819    2.2124   -0.7412 C   0  0  0  0  0  0  0  0  0  0  0  0
    3.1352    1.2146    0.2260 C   0  0  0  0  0  0  0  0  0  0  0  0
    2.1442    0.1601   -0.3075 C   0  0  1  0  0  0  0  0  0  0  0  0
    1.8023   -0.7853    0.6817 N   0  0  0  0  0  0  0  0  0  0  0  0
    0.8524   -0.9315    1.6811 C   0  0  0  0  0  0  0  0  0  0  0  0
    1.2531   -0.7973    2.9205 O   0  0  0  0  0  0  0  0  0  0  0  0
   -0.5981   -1.2227    1.6878 C   0  0  2  0  0  0  0  0  0  0  0  0
   -0.9206   -2.2114    2.8366 C   0  0  0  0  0  0  0  0  0  0  0  0
   -1.9659   -3.1830    2.5231 C   0  0  0  0  0  0  0  0  0  0  0  0
   -2.9217   -3.5821    3.4656 C   0  0  0  0  0  0  0  0  0  0  0  0
   -3.8777   -4.5143    3.1567 C   0  0  0  0  0  0  0  0  0  0  0  0
   -3.9046   -5.0798    1.8866 C   0  0  0  0  0  0  0  0  0  0  0  0
   -2.9434   -4.6683    0.9633 C   0  0  0  0  0  0  0  0  0  0  0  0
   -1.9901   -3.7431    1.2582 C   0  0  0  0  0  0  0  0  0  0  0  0
   -0.9504   -3.2119    0.3349 C   0  0  0  0  0  0  0  0  0  0  0  0
   -1.1612   -1.7409    0.5058 N   0  0  0  0  0  0  0  0  0  0  0  0
   -1.9013   -1.1310   -0.5033 C   0  0  0  0  0  0  0  0  0  0  0  0
   -2.4980   -1.9000   -1.3477 O   0  0  0  0  0  0  0  0  0  0  0  0
   -2.1071    0.3023   -0.7592 C   0  0  1  0  0  0  0  0  0  0  0  0
   -3.6076    0.5433   -0.5631 C   0  0  0  0  0  0  0  0  0  0  0  0
   -4.0032    1.9403   -0.7847 C   0  0  0  0  0  0  0  0  0  0  0  0
   -4.1532    2.8456    0.2473 C   0  0  0  0  0  0  0  0  0  0  0  0
   -4.5016    4.1596    0.0324 C   0  0  0  0  0  0  0  0  0  0  0  0
   -4.7051    4.5668   -1.2658 C   0  0  0  0  0  0  0  0  0  0  0  0
   -5.1481    6.2271   -1.5423 Cl  0  0  0  0  0  0  0  0  0  0  0  0
   -4.5712    3.7125   -2.3337 C   0  0  0  0  0  0  0  0  0  0  0  0
   -4.2222    2.4131   -2.0789 C   0  0  0  0  0  0  0  0  0  0  0  0
   -1.3272    1.1996    0.0044 N   0  0  0  0  0  0  0  0  0  0  0  0
    0.0325    1.5234   -0.1701 C   0  0  0  0  0  0  0  0  0  0  0  0
    0.4677    2.5330    0.5011 O   0  0  0  0  0  0  0  0  0  0  0  0
    1.0188    0.8848   -1.0030 C   0  0  2  0  0  0  0  0  0  0  0  0
    0.5428    0.0813   -2.1110 N   0  0  0  0  0  0  0  0  0  0  0  0
    9.2991   -0.1301   -0.3603 H   0  0  0  0  0  0  0  0  0  0  0  0
    7.2253   -1.0678    0.0430 H   0  0  0  0  0  0  0  0  0  0  0  0
    6.2289    1.3957   -2.8560 H   0  0  0  0  0  0  0  0  0  0  0  0
    6.3574    2.3221   -1.3701 H   0  0  0  0  0  0  0  0  0  0  0  0
    4.3995    2.7430   -2.6427 H   0  0  0  0  0  0  0  0  0  0  0  0
    3.8183    1.0876   -2.5776 H   0  0  0  0  0  0  0  0  0  0  0  0
    4.3167    2.8954   -0.1199 H   0  0  0  0  0  0  0  0  0  0  0  0
    2.8114    2.9773   -1.0637 H   0  0  0  0  0  0  0  0  0  0  0  0
    3.9717    0.6548    0.6784 H   0  0  0  0  0  0  0  0  0  0  0  0
    2.6603    1.6982    1.1357 H   0  0  0  0  0  0  0  0  0  0  0  0
    2.6836   -0.3354   -1.1316 H   0  0  0  0  0  0  0  0  0  0  0  0
    2.4979   -1.6277    0.6692 H   0  0  0  0  0  0  0  0  0  0  0  0
   -1.1535   -0.2985    2.0683 H   0  0  0  0  0  0  0  0  0  0  0  0
   -1.2256   -1.6814    3.7607 H   0  0  0  0  0  0  0  0  0  0  0  0
    0.0515   -2.7148    3.1286 H   0  0  0  0  0  0  0  0  0  0  0  0
   -2.8607   -3.1182    4.4400 H   0  0  0  0  0  0  0  0  0  0  0  0
   -4.6323   -4.8295    3.8875 H   0  0  0  0  0  0  0  0  0  0  0  0
   -4.6581   -5.8140    1.6385 H   0  0  0  0  0  0  0  0  0  0  0  0
   -2.9765   -5.1052   -0.0109 H   0  0  0  0  0  0  0  0  0  0  0  0
   -1.1305   -3.5240   -0.6872 H   0  0  0  0  0  0  0  0  0  0  0  0
    0.0741   -3.4604    0.6742 H   0  0  0  0  0  0  0  0  0  0  0  0
   -1.9910    0.4528   -1.8764 H   0  0  0  0  0  0  0  0  0  0  0  0
   -4.2335   -0.1282   -1.1455 H   0  0  0  0  0  0  0  0  0  0  0  0
   -3.8077    0.3111    0.5400 H   0  0  0  0  0  0  0  0  0  0  0  0
   -3.9975    2.4721    1.2708 H   0  0  0  0  0  0  0  0  0  0  0  0
   -4.5973    4.8112    0.8883 H   0  0  0  0  0  0  0  0  0  0  0  0
   -4.7332    4.0699   -3.3669 H   0  0  0  0  0  0  0  0  0  0  0  0
   -4.1032    1.7025   -2.8966 H   0  0  0  0  0  0  0  0  0  0  0  0
   -1.8239    1.6927    0.8043 H   0  0  0  0  0  0  0  0  0  0  0  0
    1.5428    1.7093   -1.5761 H   0  0  0  0  0  0  0  0  0  0  0  0
    0.1980    0.6036   -2.9199 H   0  0  0  0  0  0  0  0  0  0  0  0
    1.1899   -0.7153   -2.3261 H   0  0  0  0  0  0  0  0  0  0  0  0
  1  2  1  0
  2  3  1  0
  3  4  2  0
  3  5  1  0
  5  6  1  0
  6  7  1  0
  7  8  1  0
  8  9  1  0
  9 10  1  0
 10 11  1  0
 11 12  2  0
 11 13  1  0
 13 14  1  0
 14 15  1  0
 15 16  2  0
 16 17  1  0
 17 18  2  0
 18 19  1  0
 19 20  2  0
 20 21  1  0
 21 22  1  0
 22 23  1  0
 23 24  2  0
 23 25  1  0
 25 26  1  0
 26 27  1  0
 27 28  2  0
 28 29  1  0
 29 30  2  0
 30 31  1  0
 30 32  1  0
 32 33  2  0
 25 34  1  0
 34 35  1  0
 35 36  2  0
 35 37  1  0
 37 38  1  0
 37  9  1  0
 22 13  1  0
 33 27  1  0
 20 15  1  0
  1 39  1  0
  2 40  1  0
  5 41  1  0
  5 42  1  0
  6 43  1  0
  6 44  1  0
  7 45  1  0
  7 46  1  0
  8 47  1  0
  8 48  1  0
  9 49  1  6
 10 50  1  0
 13 51  1  1
 14 52  1  0
 14 53  1  0
 16 54  1  0
 17 55  1  0
 18 56  1  0
 19 57  1  0
 21 58  1  0
 21 59  1  0
 25 60  1  6
 26 61  1  0
 26 62  1  0
 28 63  1  0
 29 64  1  0
 32 65  1  0
 33 66  1  0
 34 67  1  0
 37 68  1  6
 38 69  1  0
 38 70  1  0
M  END
$$$$
[H]C(=O)C([H])([H])C([H])([H])C([H])([H])C([H])([H])Oc1c([H])c([H])c([H])c(C(=O)N([H])[C@]([H])(c2c([H])c([H])c(N3C([H])([H])C([H])([H])C([H])([H])C([H])(N([H])[H])C([H])([H])C3([H])[H])c([H])c2[H])C2([H])C([H])([H])C2([H])[H])c1[H]
     RDKit          3D

 71 74  0  0  0  0  0  0  0  0999 V2000
   -9.1525    0.3000    0.6074 N   0  0  0  0  0  0  0  0  0  0  0  0
   -8.2689    0.4588   -0.5212 C   0  0  0  0  0  0  0  0  0  0  0  0
   -7.6865    1.8528   -0.5425 C   0  0  0  0  0  0  0  0  0  0  0  0
   -6.9889    2.1487    0.7392 C   0  0  0  0  0  0  0  0  0  0  0  0
   -5.5121    1.8264    0.6375 C   0  0  0  0  0  0  0  0  0  0  0  0
   -5.2994    0.4044    0.4102 N   0  0  0  0  0  0  0  0  0  0  0  0
   -6.2849   -0.6108    0.5968 C   0  0  0  0  0  0  0  0  0  0  0  0
   -7.1978   -0.5782   -0.6340 C   0  0  0  0  0  0  0  0  0  0  0  0
   -3.9792    0.0581   -0.0346 C   0  0  0  0  0  0  0  0  0  0  0  0
   -3.6394   -1.2029   -0.4440 C   0  0  0  0  0  0  0  0  0  0  0  0
   -2.3799   -1.5548   -0.8675 C   0  0  0  0  0  0  0  0  0  0  0  0
   -1.3843   -0.6181   -0.8951 C   0  0  0  0  0  0  0  0  0  0  0  0
   -1.7136    0.6532   -0.4855 C   0  0  0  0  0  0  0  0  0  0  0  0
   -2.9866    1.0101   -0.0571 C   0  0  0  0  0  0  0  0  0  0  0  0
    0.0050   -0.9120   -1.3417 C   0  0  1  0  0  0  0  0  0  0  0  0
    0.9876   -0.3020   -0.4698 N   0  0  0  0  0  0  0  0  0  0  0  0
    1.8750    0.7160   -0.9430 C   0  0  0  0  0  0  0  0  0  0  0  0
    1.8298    1.1196   -2.1283 O   0  0  0  0  0  0  0  0  0  0  0  0
    2.8683    1.3247   -0.0616 C   0  0  0  0  0  0  0  0  0  0  0  0
    2.7447    2.6495    0.2729 C   0  0  0  0  0  0  0  0  0  0  0  0
    3.6991    3.1934    1.1047 C   0  0  0  0  0  0  0  0  0  0  0  0
    4.7342    2.4266    1.5753 C   0  0  0  0  0  0  0  0  0  0  0  0
    4.8844    1.0641    1.2466 C   0  0  0  0  0  0  0  0  0  0  0  0
    5.9510    0.3882    1.7708 O   0  0  0  0  0  0  0  0  0  0  0  0
    6.4177   -0.8813    1.6725 C   0  0  0  0  0  0  0  0  0  0  0  0
    6.8473   -1.3991    0.3426 C   0  0  0  0  0  0  0  0  0  0  0  0
    7.9636   -0.5880   -0.2778 C   0  0  0  0  0  0  0  0  0  0  0  0
    9.2096   -0.5458    0.5846 C   0  0  0  0  0  0  0  0  0  0  0  0
   10.1938    0.2854   -0.1473 C   0  0  0  0  0  0  0  0  0  0  0  0
   10.5007    0.0548   -1.2995 O   0  0  0  0  0  0  0  0  0  0  0  0
    3.9169    0.5439    0.4145 C   0  0  0  0  0  0  0  0  0  0  0  0
    0.2893   -2.3784   -1.4629 C   0  0  0  0  0  0  0  0  0  0  0  0
    0.2050   -3.3165   -0.3583 C   0  0  0  0  0  0  0  0  0  0  0  0
    1.5818   -2.8381   -0.8163 C   0  0  0  0  0  0  0  0  0  0  0  0
   -9.6495    1.2221    0.7484 H   0  0  0  0  0  0  0  0  0  0  0  0
   -9.8838   -0.4186    0.3377 H   0  0  0  0  0  0  0  0  0  0  0  0
   -8.9081    0.3545   -1.4281 H   0  0  0  0  0  0  0  0  0  0  0  0
   -6.9400    1.8757   -1.3861 H   0  0  0  0  0  0  0  0  0  0  0  0
   -8.4601    2.6202   -0.7985 H   0  0  0  0  0  0  0  0  0  0  0  0
   -7.0285    3.2750    0.8726 H   0  0  0  0  0  0  0  0  0  0  0  0
   -7.4388    1.6994    1.6364 H   0  0  0  0  0  0  0  0  0  0  0  0
   -5.1263    2.3589   -0.2678 H   0  0  0  0  0  0  0  0  0  0  0  0
   -4.9985    2.1579    1.5555 H   0  0  0  0  0  0  0  0  0  0  0  0
   -6.9801   -0.3167    1.4429 H   0  0  0  0  0  0  0  0  0  0  0  0
   -5.9378   -1.6053    0.8520 H   0  0  0  0  0  0  0  0  0  0  0  0
   -7.6893   -1.5599   -0.7678 H   0  0  0  0  0  0  0  0  0  0  0  0
   -6.5913   -0.3101   -1.5271 H   0  0  0  0  0  0  0  0  0  0  0  0
   -4.4368   -1.9749   -0.4295 H   0  0  0  0  0  0  0  0  0  0  0  0
   -2.1970   -2.5674   -1.1754 H   0  0  0  0  0  0  0  0  0  0  0  0
   -0.9683    1.4674   -0.4775 H   0  0  0  0  0  0  0  0  0  0  0  0
   -3.1964    2.0439    0.2602 H   0  0  0  0  0  0  0  0  0  0  0  0
    0.1242   -0.4458   -2.3388 H   0  0  0  0  0  0  0  0  0  0  0  0
    1.0777   -0.5835    0.5318 H   0  0  0  0  0  0  0  0  0  0  0  0
    1.9154    3.2689   -0.1046 H   0  0  0  0  0  0  0  0  0  0  0  0
    3.6029    4.2544    1.3763 H   0  0  0  0  0  0  0  0  0  0  0  0
    5.4783    2.8662    2.2279 H   0  0  0  0  0  0  0  0  0  0  0  0
    5.6935   -1.6364    2.1204 H   0  0  0  0  0  0  0  0  0  0  0  0
    7.3256   -0.9697    2.3437 H   0  0  0  0  0  0  0  0  0  0  0  0
    6.0469   -1.4877   -0.4043 H   0  0  0  0  0  0  0  0  0  0  0  0
    7.2725   -2.4406    0.4467 H   0  0  0  0  0  0  0  0  0  0  0  0
    8.2616   -1.1368   -1.2117 H   0  0  0  0  0  0  0  0  0  0  0  0
    7.6453    0.4209   -0.6129 H   0  0  0  0  0  0  0  0  0  0  0  0
    9.5464   -1.6163    0.6514 H   0  0  0  0  0  0  0  0  0  0  0  0
    9.0603   -0.2044    1.6023 H   0  0  0  0  0  0  0  0  0  0  0  0
   10.6640    1.1358    0.3484 H   0  0  0  0  0  0  0  0  0  0  0  0
    3.9942   -0.5067    0.1442 H   0  0  0  0  0  0  0  0  0  0  0  0
    0.1700   -2.8166   -2.5004 H   0  0  0  0  0  0  0  0  0  0  0  0
   -0.0265   -4.3894   -0.5580 H   0  0  0  0  0  0  0  0  0  0  0  0
   -0.0095   -3.0395    0.6857 H   0  0  0  0  0  0  0  0  0  0  0  0
    2.2079   -3.6035   -1.3177 H   0  0  0  0  0  0  0  0  0  0  0  0
    2.1491   -2.1440   -0.2000 H   0  0  0  0  0  0  0  0  0  0  0  0
  1  2  1  0
  2  3  1  0
  3  4  1  0
  4  5  1  0
  5  6  1  0
  6  7  1  0
  7  8  1  0
  6  9  1  0
  9 10  2  0
 10 11  1  0
 11 12  2  0
 12 13  1  0
 13 14  2  0
 12 15  1  0
 15 16  1  0
 16 17  1  0
 17 18  2  0
 17 19  1  0
 19 20  2  0
 20 21  1  0
 21 22  2  0
 22 23  1  0
 23 24  1  0
 24 25  1  0
 25 26  1  0
 26 27  1  0
 27 28  1  0
 28 29  1  0
 29 30  2  0
 23 31  2  0
 15 32  1  0
 32 33  1  0
 33 34  1  0
  8  2  1  0
 14  9  1  0
 31 19  1  0
 34 32  1  0
  1 35  1  0
  1 36  1  0
  2 37  1  0
  3 38  1  0
  3 39  1  0
  4 40  1  0
  4 41  1  0
  5 42  1  0
  5 43  1  0
  7 44  1  0
  7 45  1  0
  8 46  1  0
  8 47  1  0
 10 48  1  0
 11 49  1  0
 13 50  1  0
 14 51  1  0
 15 52  1  6
 16 53  1  0
 20 54  1  0
 21 55  1  0
 22 56  1  0
 25 57  1  0
 25 58  1  0
 26 59  1  0
 26 60  1  0
 27 61  1  0
 27 62  1  0
 28 63  1  0
 28 64  1  0
 29 65  1  0
 31 66  1  0
 32 67  1  0
 33 68  1  0
 33 69  1  0
 34 70  1  0
 34 71  1  0
M  END
$$$$
[H]c1nc(C([H])([H])c2c([H])c([H])c(F)c([H])c2[H])c([H])c([H])c1-c1nc(N2C([H])([H])C([H])([H])N(C([H])([H])c3c([H])c([H])c([H])c([H])c3[H])C([H])([H])C2([H])[H])nn1-c1c([H])c([H])c(Cl)c([H])c1[H]
     RDKit          3D

 67 72  0  0  0  0  0  0  0  0999 V2000
    8.9676    1.5154    4.1543 F   0  0  0  0  0  0  0  0  0  0  0  0
    8.3582    1.4515    2.9459 C   0  0  0  0  0  0  0  0  0  0  0  0
    8.4569    0.3233    2.1803 C   0  0  0  0  0  0  0  0  0  0  0  0
    7.8431    0.2382    0.9449 C   0  0  0  0  0  0  0  0  0  0  0  0
    7.1157    1.2827    0.4484 C   0  0  0  0  0  0  0  0  0  0  0  0
    6.4717    1.1637   -0.8717 C   0  0  0  0  0  0  0  0  0  0  0  0
    5.0949    0.6067   -0.7627 C   0  0  0  0  0  0  0  0  0  0  0  0
    4.8437   -0.7454   -0.8131 C   0  0  0  0  0  0  0  0  0  0  0  0
    3.5289   -1.2516   -0.7086 C   0  0  0  0  0  0  0  0  0  0  0  0
    2.4779   -0.4262   -0.5566 C   0  0  0  0  0  0  0  0  0  0  0  0
    2.8018    0.9471   -0.5121 C   0  0  0  0  0  0  0  0  0  0  0  0
    4.0475    1.4004   -0.6124 N   0  0  0  0  0  0  0  0  0  0  0  0
    1.0678   -0.7682   -0.4510 C   0  0  0  0  0  0  0  0  0  0  0  0
    0.0749    0.1723   -0.2198 N   0  0  0  0  0  0  0  0  0  0  0  0
   -1.1165   -0.4146   -0.1830 C   0  0  0  0  0  0  0  0  0  0  0  0
   -0.9006   -1.7097   -0.3862 N   0  0  0  0  0  0  0  0  0  0  0  0
    0.4441   -1.9232   -0.5507 N   0  0  0  0  0  0  0  0  0  0  0  0
    0.9502   -3.2291   -0.7957 C   0  0  0  0  0  0  0  0  0  0  0  0
    1.2485   -4.1218    0.2427 C   0  0  0  0  0  0  0  0  0  0  0  0
    1.6984   -5.3981   -0.0139 C   0  0  0  0  0  0  0  0  0  0  0  0
    1.8725   -5.8451   -1.3044 C   0  0  0  0  0  0  0  0  0  0  0  0
    2.4496   -7.4759   -1.6319 Cl  0  0  0  0  0  0  0  0  0  0  0  0
    1.5910   -4.9997   -2.3479 C   0  0  0  0  0  0  0  0  0  0  0  0
    1.1420   -3.7271   -2.0847 C   0  0  0  0  0  0  0  0  0  0  0  0
   -2.3894    0.1807    0.0275 N   0  0  0  0  0  0  0  0  0  0  0  0
   -2.4499    1.6328    0.2524 C   0  0  0  0  0  0  0  0  0  0  0  0
   -3.9114    2.0156    0.1361 C   0  0  0  0  0  0  0  0  0  0  0  0
   -4.6142    1.3156    1.1595 N   0  0  0  0  0  0  0  0  0  0  0  0
   -5.8517    1.8690    1.5760 C   0  0  0  0  0  0  0  0  0  0  0  0
   -6.8802    2.0068    0.5367 C   0  0  0  0  0  0  0  0  0  0  0  0
   -7.8097    1.0027    0.3022 C   0  0  0  0  0  0  0  0  0  0  0  0
   -8.7749    1.1206   -0.6663 C   0  0  0  0  0  0  0  0  0  0  0  0
   -8.8010    2.2723   -1.4110 C   0  0  0  0  0  0  0  0  0  0  0  0
   -7.8842    3.2928   -1.1984 C   0  0  0  0  0  0  0  0  0  0  0  0
   -6.9167    3.1686   -0.2235 C   0  0  0  0  0  0  0  0  0  0  0  0
   -4.4892   -0.0978    1.1679 C   0  0  0  0  0  0  0  0  0  0  0  0
   -3.6091   -0.5563    0.0297 C   0  0  0  0  0  0  0  0  0  0  0  0
    7.0219    2.4141    1.2255 C   0  0  0  0  0  0  0  0  0  0  0  0
    7.6325    2.5224    2.4743 C   0  0  0  0  0  0  0  0  0  0  0  0
    9.0245   -0.5296    2.5348 H   0  0  0  0  0  0  0  0  0  0  0  0
    7.9210   -0.6566    0.3371 H   0  0  0  0  0  0  0  0  0  0  0  0
    7.0732    0.6073   -1.6144 H   0  0  0  0  0  0  0  0  0  0  0  0
    6.3678    2.2051   -1.2797 H   0  0  0  0  0  0  0  0  0  0  0  0
    5.6567   -1.4386   -0.9344 H   0  0  0  0  0  0  0  0  0  0  0  0
    3.3934   -2.2958   -0.7447 H   0  0  0  0  0  0  0  0  0  0  0  0
    1.9979    1.6568   -0.3923 H   0  0  0  0  0  0  0  0  0  0  0  0
    1.1200   -3.7974    1.2843 H   0  0  0  0  0  0  0  0  0  0  0  0
    1.9392   -6.1148    0.7686 H   0  0  0  0  0  0  0  0  0  0  0  0
    1.7341   -5.3704   -3.3598 H   0  0  0  0  0  0  0  0  0  0  0  0
    0.9284   -3.0836   -2.9190 H   0  0  0  0  0  0  0  0  0  0  0  0
   -2.1158    1.7622    1.3115 H   0  0  0  0  0  0  0  0  0  0  0  0
   -1.8033    2.1744   -0.4540 H   0  0  0  0  0  0  0  0  0  0  0  0
   -4.2574    1.8222   -0.8984 H   0  0  0  0  0  0  0  0  0  0  0  0
   -3.9826    3.1067    0.3590 H   0  0  0  0  0  0  0  0  0  0  0  0
   -5.6362    2.8532    2.0832 H   0  0  0  0  0  0  0  0  0  0  0  0
   -6.2415    1.2203    2.4060 H   0  0  0  0  0  0  0  0  0  0  0  0
   -7.7754    0.0893    0.9034 H   0  0  0  0  0  0  0  0  0  0  0  0
   -9.4874    0.3241   -0.8288 H   0  0  0  0  0  0  0  0  0  0  0  0
   -9.5287    2.4377   -2.1877 H   0  0  0  0  0  0  0  0  0  0  0  0
   -7.9170    4.2072   -1.8032 H   0  0  0  0  0  0  0  0  0  0  0  0
   -6.1939    3.9502   -0.0401 H   0  0  0  0  0  0  0  0  0  0  0  0
   -5.4673   -0.6277    1.1563 H   0  0  0  0  0  0  0  0  0  0  0  0
   -3.9611   -0.3937    2.1212 H   0  0  0  0  0  0  0  0  0  0  0  0
   -3.4182   -1.6513    0.0505 H   0  0  0  0  0  0  0  0  0  0  0  0
   -4.1549   -0.3758   -0.9369 H   0  0  0  0  0  0  0  0  0  0  0  0
    6.4577    3.2688    0.8800 H   0  0  0  0  0  0  0  0  0  0  0  0
    7.5241    3.4242    3.0303 H   0  0  0  0  0  0  0  0  0  0  0  0
  1  2  1  0
  2  3  2  0
  3  4  1  0
  4  5  2  0
  5  6  1  0
  6  7  1  0
  7  8  2  0
  8  9  1  0
  9 10  2  0
 10 11  1  0
 11 12  2  0
 10 13  1  0
 13 14  2  0
 14 15  1  0
 15 16  2  0
 16 17  1  0
 17 18  1  0
 18 19  2  0
 19 20  1  0
 20 21  2  0
 21 22  1  0
 21 23  1  0
 23 24  2  0
 15 25  1  0
 25 26  1  0
 26 27  1  0
 27 28  1  0
 28 29  1  0
 29 30  1  0
 30 31  2  0
 31 32  1  0
 32 33  2  0
 33 34  1  0
 34 35  2  0
 28 36  1  0
 36 37  1  0
  5 38  1  0
 38 39  2  0
 39  2  1  0
 12  7  1  0
 17 13  1  0
 24 18  1  0
 37 25  1  0
 35 30  1  0
  3 40  1  0
  4 41  1  0
  6 42  1  0
  6 43  1  0
  8 44  1  0
  9 45  1  0
 11 46  1  0
 19 47  1  0
 20 48  1  0
 23 49  1  0
 24 50  1  0
 26 51  1  0
 26 52  1  0
 27 53  1  0
 27 54  1  0
 29 55  1  0
 29 56  1  0
 31 57  1  0
 32 58  1  0
 33 59  1  0
 34 60  1  0
 35 61  1  0
 36 62  1  0
 36 63  1  0
 37 64  1  0
 37 65  1  0
 38 66  1  0
 39 67  1  0
M  END
$$$$
[H]O[C@]1([H])C([H])([H])C([H])([H])[C@]([H])(C(=O)c2c([H])nc(N(C([H])([H])[H])C([H])(c3c([H])c([H])c([H])c([H])c3[H])C([H])([H])[H])c([H])c2[H])C([H])([H])C1([H])[H]
     RDKit          3D

 51 53  0  0  0  0  0  0  0  0999 V2000
    3.1220    1.2553    1.7528 C   0  0  0  0  0  0  0  0  0  0  0  0
    3.6297    1.0069    0.3508 C   0  0  0  0  0  0  0  0  0  0  0  0
    2.6234    0.4964   -0.5237 N   0  0  0  0  0  0  0  0  0  0  0  0
    2.9899    0.2100   -1.8966 C   0  0  0  0  0  0  0  0  0  0  0  0
    1.2623    0.2441   -0.1437 C   0  0  0  0  0  0  0  0  0  0  0  0
    0.2916    1.2150   -0.2478 C   0  0  0  0  0  0  0  0  0  0  0  0
   -1.0308    1.0357    0.0986 C   0  0  0  0  0  0  0  0  0  0  0  0
   -1.4237   -0.1934    0.5836 C   0  0  0  0  0  0  0  0  0  0  0  0
   -0.4246   -1.1647    0.6816 C   0  0  0  0  0  0  0  0  0  0  0  0
    0.8525   -0.9470    0.3327 N   0  0  0  0  0  0  0  0  0  0  0  0
   -2.7866   -0.4590    0.9640 C   0  0  0  0  0  0  0  0  0  0  0  0
   -3.0555   -1.6247    1.4118 O   0  0  0  0  0  0  0  0  0  0  0  0
   -3.9021    0.4949    0.8827 C   0  0  1  0  0  0  0  0  0  0  0  0
   -4.2073    0.9990   -0.4883 C   0  0  0  0  0  0  0  0  0  0  0  0
   -5.6784    0.7898   -0.8705 C   0  0  0  0  0  0  0  0  0  0  0  0
   -5.9383   -0.6960   -0.7717 C   0  0  1  0  0  0  0  0  0  0  0  0
   -4.9458   -1.3683   -1.4677 O   0  0  0  0  0  0  0  0  0  0  0  0
   -5.8383   -1.0837    0.6837 C   0  0  0  0  0  0  0  0  0  0  0  0
   -5.1620   -0.0381    1.5205 C   0  0  0  0  0  0  0  0  0  0  0  0
    4.8246    0.1423    0.3459 C   0  0  0  0  0  0  0  0  0  0  0  0
    4.7676   -1.2278    0.4256 C   0  0  0  0  0  0  0  0  0  0  0  0
    5.8978   -2.0420    0.4207 C   0  0  0  0  0  0  0  0  0  0  0  0
    7.1236   -1.4652    0.3330 C   0  0  0  0  0  0  0  0  0  0  0  0
    7.2211   -0.1016    0.2518 C   0  0  0  0  0  0  0  0  0  0  0  0
    6.1006    0.6950    0.2574 C   0  0  0  0  0  0  0  0  0  0  0  0
    3.9274    1.8446    2.2812 H   0  0  0  0  0  0  0  0  0  0  0  0
    2.2489    1.9124    1.7190 H   0  0  0  0  0  0  0  0  0  0  0  0
    2.9246    0.3290    2.3139 H   0  0  0  0  0  0  0  0  0  0  0  0
    3.9455    2.0184   -0.0327 H   0  0  0  0  0  0  0  0  0  0  0  0
    2.4920    0.9306   -2.5684 H   0  0  0  0  0  0  0  0  0  0  0  0
    4.0844    0.1748   -2.0382 H   0  0  0  0  0  0  0  0  0  0  0  0
    2.5933   -0.8132   -2.1484 H   0  0  0  0  0  0  0  0  0  0  0  0
    0.5779    2.1854   -0.6256 H   0  0  0  0  0  0  0  0  0  0  0  0
   -1.7396    1.8669   -0.0150 H   0  0  0  0  0  0  0  0  0  0  0  0
   -0.7316   -2.1482    1.0681 H   0  0  0  0  0  0  0  0  0  0  0  0
   -3.6079    1.3936    1.5011 H   0  0  0  0  0  0  0  0  0  0  0  0
   -3.6153    0.5413   -1.2887 H   0  0  0  0  0  0  0  0  0  0  0  0
   -4.0562    2.1106   -0.5876 H   0  0  0  0  0  0  0  0  0  0  0  0
   -5.7312    1.0534   -1.9619 H   0  0  0  0  0  0  0  0  0  0  0  0
   -6.3452    1.3938   -0.2575 H   0  0  0  0  0  0  0  0  0  0  0  0
   -6.9377   -0.9241   -1.1980 H   0  0  0  0  0  0  0  0  0  0  0  0
   -5.2031   -2.3382   -1.4774 H   0  0  0  0  0  0  0  0  0  0  0  0
   -5.3963   -2.1049    0.8116 H   0  0  0  0  0  0  0  0  0  0  0  0
   -6.8897   -1.1857    1.0600 H   0  0  0  0  0  0  0  0  0  0  0  0
   -5.8586    0.8163    1.6378 H   0  0  0  0  0  0  0  0  0  0  0  0
   -4.9750   -0.4669    2.5199 H   0  0  0  0  0  0  0  0  0  0  0  0
    3.7974   -1.6949    0.4958 H   0  0  0  0  0  0  0  0  0  0  0  0
    5.8146   -3.1308    0.4858 H   0  0  0  0  0  0  0  0  0  0  0  0
    8.0042   -2.0952    0.3289 H   0  0  0  0  0  0  0  0  0  0  0  0
    8.1827    0.3755    0.1817 H   0  0  0  0  0  0  0  0  0  0  0  0
    6.1811    1.7828    0.1925 H   0  0  0  0  0  0  0  0  0  0  0  0
  1  2  1  0
  2  3  1  0
  3  4  1  0
  3  5  1  0
  5  6  2  0
  6  7  1  0
  7  8  2  0
  8  9  1  0
  9 10  2  0
  8 11  1  0
 11 12  2  0
 11 13  1  0
 13 14  1  0
 14 15  1  0
 15 16  1  0
 16 17  1  0
 16 18  1  0
 18 19  1  0
  2 20  1  0
 20 21  2  0
 21 22  1  0
 22 23  2  0
 23 24  1  0
 24 25  2  0
 10  5  1  0
 19 13  1  0
 25 20  1  0
  1 26  1  0
  1 27  1  0
  1 28  1  0
  2 29  1  0
  4 30  1  0
  4 31  1  0
  4 32  1  0
  6 33  1  0
  7 34  1  0
  9 35  1  0
 13 36  1  1
 14 37  1  0
 14 38  1  0
 15 39  1  0
 15 40  1  0
 16 41  1  6
 17 42  1  0
 18 43  1  0
 18 44  1  0
 19 45  1  0
 19 46  1  0
 21 47  1  0
 22 48  1  0
 23 49  1  0
 24 50  1  0
 25 51  1  0
M  END
$$$$
[H]OC(=O)c1noc(C([H])([H])[H])c1N([H])S(=O)(=O)c1c([H])c(OC([H])([H])[H])c([H])c(C(F)(F)F)c1[H]
     RDKit          3D

 36 37  0  0  0  0  0  0  0  0999 V2000
   -5.1088   -1.3605   -1.6357 C   0  0  0  0  0  0  0  0  0  0  0  0
   -3.7581   -1.7436   -1.5371 O   0  0  0  0  0  0  0  0  0  0  0  0
   -2.8910   -0.9876   -0.7470 C   0  0  0  0  0  0  0  0  0  0  0  0
   -3.3183    0.1379   -0.0671 C   0  0  0  0  0  0  0  0  0  0  0  0
   -2.4040    0.8431    0.7148 C   0  0  0  0  0  0  0  0  0  0  0  0
   -1.0848    0.4066    0.7959 C   0  0  0  0  0  0  0  0  0  0  0  0
   -0.6361   -0.6968    0.1362 C   0  0  0  0  0  0  0  0  0  0  0  0
   -1.5899   -1.3804   -0.6406 C   0  0  0  0  0  0  0  0  0  0  0  0
    0.9680   -1.3173    0.2257 S   0  0  0  0  0  0  0  0  0  0  0  0
    1.3702   -1.4468    1.6994 O   0  0  0  0  0  0  0  0  0  0  0  0
    0.9822   -2.7659   -0.2542 O   0  0  0  0  0  0  0  0  0  0  0  0
    2.1708   -0.4165   -0.6074 N   0  0  0  0  0  0  0  0  0  0  0  0
    3.2510    0.1985    0.0811 C   0  0  0  0  0  0  0  0  0  0  0  0
    4.4122   -0.5266    0.4173 C   0  0  0  0  0  0  0  0  0  0  0  0
    4.6556   -1.9524    0.0326 C   0  0  0  0  0  0  0  0  0  0  0  0
    5.1519    0.3090    1.0923 O   0  0  0  0  0  0  0  0  0  0  0  0
    4.5830    1.4692    1.2096 N   0  0  0  0  0  0  0  0  0  0  0  0
    3.3717    1.4526    0.5814 C   0  0  0  0  0  0  0  0  0  0  0  0
    2.4828    2.6113    0.4388 C   0  0  0  0  0  0  0  0  0  0  0  0
    1.3408    2.6197   -0.2834 O   0  0  0  0  0  0  0  0  0  0  0  0
    2.8753    3.6467    1.0554 O   0  0  0  0  0  0  0  0  0  0  0  0
   -2.8475    2.0640    1.4222 C   0  0  0  0  0  0  0  0  0  0  0  0
   -1.8088    2.4759    2.2420 F   0  0  0  0  0  0  0  0  0  0  0  0
   -3.1639    3.0970    0.4876 F   0  0  0  0  0  0  0  0  0  0  0  0
   -3.9773    1.7679    2.1308 F   0  0  0  0  0  0  0  0  0  0  0  0
   -5.2878   -0.5049   -2.2860 H   0  0  0  0  0  0  0  0  0  0  0  0
   -5.7281   -2.2261   -2.0071 H   0  0  0  0  0  0  0  0  0  0  0  0
   -5.5605   -1.1698   -0.6313 H   0  0  0  0  0  0  0  0  0  0  0  0
   -4.3387    0.4488   -0.1498 H   0  0  0  0  0  0  0  0  0  0  0  0
   -0.4163    1.0086    1.4293 H   0  0  0  0  0  0  0  0  0  0  0  0
   -1.2753   -2.2671   -1.1670 H   0  0  0  0  0  0  0  0  0  0  0  0
    2.1370   -0.2978   -1.6380 H   0  0  0  0  0  0  0  0  0  0  0  0
    4.1085   -2.6459    0.6687 H   0  0  0  0  0  0  0  0  0  0  0  0
    5.7466   -2.1748    0.1405 H   0  0  0  0  0  0  0  0  0  0  0  0
    4.4569   -2.0936   -1.0493 H   0  0  0  0  0  0  0  0  0  0  0  0
    1.1306    3.4176   -0.9009 H   0  0  0  0  0  0  0  0  0  0  0  0
  1  2  1  0
  2  3  1  0
  3  4  2  0
  4  5  1  0
  5  6  2  0
  6  7  1  0
  7  8  2  0
  7  9  1  0
  9 10  2  0
  9 11  2  0
  9 12  1  0
 12 13  1  0
 13 14  2  0
 14 15  1  0
 14 16  1  0
 16 17  1  0
 17 18  2  0
 18 19  1  0
 19 20  1  0
 19 21  2  0
  5 22  1  0
 22 23  1  0
 22 24  1  0
 22 25  1  0
  8  3  1  0
 18 13  1  0
  1 26  1  0
  1 27  1  0
  1 28  1  0
  4 29  1  0
  6 30  1  0
  8 31  1  0
 12 32  1  0
 15 33  1  0
 15 34  1  0
 15 35  1  0
 20 36  1  0
M  END
$$$$
[H]c1c(N([H])C(=O)C([H])([H])[H])c(C([H])([H])[H])c([H])c(-c2noc(C([H])([H])C([H])([H])[H])n2)c1C([H])([H])[H]
     RDKit          3D

 36 37  0  0  0  0  0  0  0  0999 V2000
    5.5348    0.6618    0.2183 C   0  0  0  0  0  0  0  0  0  0  0  0
    5.4631   -0.5813   -0.6722 C   0  0  0  0  0  0  0  0  0  0  0  0
    4.0227   -0.9095   -0.8420 C   0  0  0  0  0  0  0  0  0  0  0  0
    2.9482   -0.2757   -0.3370 N   0  0  0  0  0  0  0  0  0  0  0  0
    1.8173   -0.8785   -0.7184 C   0  0  0  0  0  0  0  0  0  0  0  0
    2.2459   -1.9215   -1.4881 N   0  0  0  0  0  0  0  0  0  0  0  0
    3.5317   -1.9102   -1.5391 O   0  0  0  0  0  0  0  0  0  0  0  0
    0.4113   -0.5512   -0.4185 C   0  0  0  0  0  0  0  0  0  0  0  0
   -0.5949   -1.3354   -0.9372 C   0  0  0  0  0  0  0  0  0  0  0  0
   -1.9120   -1.0649   -0.6826 C   0  0  0  0  0  0  0  0  0  0  0  0
   -2.9969   -1.9448   -1.2666 C   0  0  0  0  0  0  0  0  0  0  0  0
   -2.2389    0.0329    0.1224 C   0  0  0  0  0  0  0  0  0  0  0  0
   -3.6010    0.2849    0.3661 N   0  0  0  0  0  0  0  0  0  0  0  0
   -4.1564    1.3115    1.1292 C   0  0  0  0  0  0  0  0  0  0  0  0
   -5.6691    1.3696    1.2405 C   0  0  0  0  0  0  0  0  0  0  0  0
   -3.5115    2.1788    1.7227 O   0  0  0  0  0  0  0  0  0  0  0  0
   -1.2518    0.8207    0.6445 C   0  0  0  0  0  0  0  0  0  0  0  0
    0.0845    0.5234    0.3698 C   0  0  0  0  0  0  0  0  0  0  0  0
    1.1552    1.4054    0.9564 C   0  0  0  0  0  0  0  0  0  0  0  0
    6.5186    0.7967    0.6675 H   0  0  0  0  0  0  0  0  0  0  0  0
    5.2287    1.5231   -0.4210 H   0  0  0  0  0  0  0  0  0  0  0  0
    4.7095    0.5369    0.9632 H   0  0  0  0  0  0  0  0  0  0  0  0
    5.9561   -0.4295   -1.6378 H   0  0  0  0  0  0  0  0  0  0  0  0
    5.9494   -1.3990   -0.0664 H   0  0  0  0  0  0  0  0  0  0  0  0
   -0.3319   -2.1823   -1.5587 H   0  0  0  0  0  0  0  0  0  0  0  0
   -2.5238   -2.6299   -1.9708 H   0  0  0  0  0  0  0  0  0  0  0  0
   -3.7158   -1.3273   -1.8446 H   0  0  0  0  0  0  0  0  0  0  0  0
   -3.4595   -2.4475   -0.3922 H   0  0  0  0  0  0  0  0  0  0  0  0
   -4.2886   -0.4216   -0.1098 H   0  0  0  0  0  0  0  0  0  0  0  0
   -6.0186    0.3298    1.2748 H   0  0  0  0  0  0  0  0  0  0  0  0
   -6.0876    1.8880    0.3629 H   0  0  0  0  0  0  0  0  0  0  0  0
   -5.9603    1.9449    2.1414 H   0  0  0  0  0  0  0  0  0  0  0  0
   -1.4201    1.6812    1.2714 H   0  0  0  0  0  0  0  0  0  0  0  0
    1.7256    1.9239    0.1720 H   0  0  0  0  0  0  0  0  0  0  0  0
    1.7659    0.8107    1.6650 H   0  0  0  0  0  0  0  0  0  0  0  0
    0.6703    2.1856    1.6151 H   0  0  0  0  0  0  0  0  0  0  0  0
  1  2  1  0
  2  3  1  0
  3  4  2  0
  4  5  1  0
  5  6  2  0
  6  7  1  0
  5  8  1  0
  8  9  2  0
  9 10  1  0
 10 11  1  0
 10 12  2  0
 12 13  1  0
 13 14  1  0
 14 15  1  0
 14 16  2  0
 12 17  1  0
 17 18  2  0
 18 19  1  0
  7  3  1  0
 18  8  1  0
  1 20  1  0
  1 21  1  0
  1 22  1  0
  2 23  1  0
  2 24  1  0
  9 25  1  0
 11 26  1  0
 11 27  1  0
 11 28  1  0
 13 29  1  0
 15 30  1  0
 15 31  1  0
 15 32  1  0
 17 33  1  0
 19 34  1  0
 19 35  1  0
 19 36  1  0
M  END
$$$$
[H]OC(=O)c1c([H])c([H])c(-c2c(-c3c([H])c([H])c(N([H])[H])c([H])c3[H])nc(C(=O)N([H])c3c([H])nc([H])c([H])c3[H])n2[H])c([H])c1[H]
     RDKit          3D

 47 50  0  0  0  0  0  0  0  0999 V2000
   -3.9178    4.7066    0.0937 N   0  0  0  0  0  0  0  0  0  0  0  0
   -2.9748    3.6483    0.0734 C   0  0  0  0  0  0  0  0  0  0  0  0
   -2.0517    3.6024   -0.9476 C   0  0  0  0  0  0  0  0  0  0  0  0
   -1.1451    2.5553   -0.9375 C   0  0  0  0  0  0  0  0  0  0  0  0
   -1.1342    1.5784    0.0369 C   0  0  0  0  0  0  0  0  0  0  0  0
   -2.0690    1.6364    1.0595 C   0  0  0  0  0  0  0  0  0  0  0  0
   -2.9766    2.6781    1.0562 C   0  0  0  0  0  0  0  0  0  0  0  0
   -0.1562    0.4995   -0.0074 C   0  0  0  0  0  0  0  0  0  0  0  0
   -0.4392   -0.8520   -0.1030 C   0  0  0  0  0  0  0  0  0  0  0  0
    0.7410   -1.5299   -0.1171 N   0  0  0  0  0  0  0  0  0  0  0  0
    1.7322   -0.6318   -0.0330 C   0  0  0  0  0  0  0  0  0  0  0  0
    1.2010    0.5971    0.0338 N   0  0  0  0  0  0  0  0  0  0  0  0
    3.1820   -0.8924   -0.0142 C   0  0  0  0  0  0  0  0  0  0  0  0
    3.5371   -2.0845   -0.0857 O   0  0  0  0  0  0  0  0  0  0  0  0
    4.0994    0.1518    0.0791 N   0  0  0  0  0  0  0  0  0  0  0  0
    5.4826    0.0187    0.1118 C   0  0  0  0  0  0  0  0  0  0  0  0
    6.2079   -1.1066    0.3758 C   0  0  0  0  0  0  0  0  0  0  0  0
    7.5981   -1.1271    0.3575 C   0  0  0  0  0  0  0  0  0  0  0  0
    8.2756    0.0156    0.0665 C   0  0  0  0  0  0  0  0  0  0  0  0
    7.5822    1.1476   -0.1989 N   0  0  0  0  0  0  0  0  0  0  0  0
    6.2452    1.1624   -0.1805 C   0  0  0  0  0  0  0  0  0  0  0  0
   -1.7914   -1.3898   -0.1737 C   0  0  0  0  0  0  0  0  0  0  0  0
   -2.3217   -2.2432    0.7731 C   0  0  0  0  0  0  0  0  0  0  0  0
   -3.6009   -2.7529    0.7068 C   0  0  0  0  0  0  0  0  0  0  0  0
   -4.4035   -2.3986   -0.3573 C   0  0  0  0  0  0  0  0  0  0  0  0
   -3.8975   -1.5520   -1.3095 C   0  0  0  0  0  0  0  0  0  0  0  0
   -2.6158   -1.0538   -1.2243 C   0  0  0  0  0  0  0  0  0  0  0  0
   -5.7545   -2.9413   -0.4213 C   0  0  0  0  0  0  0  0  0  0  0  0
   -6.2318   -3.7947    0.5597 O   0  0  0  0  0  0  0  0  0  0  0  0
   -6.5333   -2.6519   -1.3715 O   0  0  0  0  0  0  0  0  0  0  0  0
   -4.3565    5.0079    0.9867 H   0  0  0  0  0  0  0  0  0  0  0  0
   -4.1926    5.2045   -0.7767 H   0  0  0  0  0  0  0  0  0  0  0  0
   -2.0230    4.3534   -1.7397 H   0  0  0  0  0  0  0  0  0  0  0  0
   -0.4222    2.5414   -1.7595 H   0  0  0  0  0  0  0  0  0  0  0  0
   -2.1134    0.9033    1.8517 H   0  0  0  0  0  0  0  0  0  0  0  0
   -3.7066    2.7222    1.8555 H   0  0  0  0  0  0  0  0  0  0  0  0
    0.8264   -2.5800   -0.1835 H   0  0  0  0  0  0  0  0  0  0  0  0
    3.6851    1.1308    0.1326 H   0  0  0  0  0  0  0  0  0  0  0  0
    5.6783   -2.0218    0.6241 H   0  0  0  0  0  0  0  0  0  0  0  0
    8.1088   -2.0371    0.5718 H   0  0  0  0  0  0  0  0  0  0  0  0
    9.3591    0.0904    0.0298 H   0  0  0  0  0  0  0  0  0  0  0  0
    5.7381    2.0883   -0.3990 H   0  0  0  0  0  0  0  0  0  0  0  0
   -1.7192   -2.5406    1.6195 H   0  0  0  0  0  0  0  0  0  0  0  0
   -3.9884   -3.4322    1.4831 H   0  0  0  0  0  0  0  0  0  0  0  0
   -4.5259   -1.2729   -2.1452 H   0  0  0  0  0  0  0  0  0  0  0  0
   -2.2544   -0.3937   -1.9883 H   0  0  0  0  0  0  0  0  0  0  0  0
   -5.9630   -4.7594    0.6612 H   0  0  0  0  0  0  0  0  0  0  0  0
  1  2  1  0
  2  3  2  0
  3  4  1  0
  4  5  2  0
  5  6  1  0
  6  7  2  0
  5  8  1  0
  8  9  2  0
  9 10  1  0
 10 11  1  0
 11 12  2  0
 11 13  1  0
 13 14  2  0
 13 15  1  0
 15 16  1  0
 16 17  2  0
 17 18  1  0
 18 19  2  0
 19 20  1  0
 20 21  2  0
  9 22  1  0
 22 23  2  0
 23 24  1  0
 24 25  2  0
 25 26  1  0
 26 27  2  0
 25 28  1  0
 28 29  1  0
 28 30  2  0
  7  2  1  0
 12  8  1  0
 21 16  1  0
 27 22  1  0
  1 31  1  0
  1 32  1  0
  3 33  1  0
  4 34  1  0
  6 35  1  0
  7 36  1  0
 10 37  1  0
 15 38  1  0
 17 39  1  0
 18 40  1  0
 19 41  1  0
 21 42  1  0
 23 43  1  0
 24 44  1  0
 26 45  1  0
 27 46  1  0
 29 47  1  0
M  END
$$$$
[H]c1nc2c([H])c([H])c(-c3c([H])c([H])c(C([H])([H])N4C([H])([H])C([H])([H])N(C(=O)N([H])C([H])([H])C([H])([H])[H])C([H])([H])C4([H])[H])c([H])c3[H])c([H])n2n1
     RDKit          3D

 51 54  0  0  0  0  0  0  0  0999 V2000
    6.4881    2.8928   -0.2908 C   0  0  0  0  0  0  0  0  0  0  0  0
    5.5847    2.3796   -1.4186 C   0  0  0  0  0  0  0  0  0  0  0  0
    5.0034    1.1071   -1.0841 N   0  0  0  0  0  0  0  0  0  0  0  0
    4.1791    0.9349    0.0405 C   0  0  0  0  0  0  0  0  0  0  0  0
    3.9472    1.9336    0.7743 O   0  0  0  0  0  0  0  0  0  0  0  0
    3.5876   -0.2990    0.4047 N   0  0  0  0  0  0  0  0  0  0  0  0
    3.8241   -1.4762   -0.4077 C   0  0  0  0  0  0  0  0  0  0  0  0
    2.8147   -2.5531   -0.0812 C   0  0  0  0  0  0  0  0  0  0  0  0
    1.5243   -1.9288    0.0657 N   0  0  0  0  0  0  0  0  0  0  0  0
    0.4278   -2.8124   -0.1274 C   0  0  0  0  0  0  0  0  0  0  0  0
   -0.8379   -2.0551    0.0493 C   0  0  0  0  0  0  0  0  0  0  0  0
   -1.3477   -1.3526   -1.0319 C   0  0  0  0  0  0  0  0  0  0  0  0
   -2.5106   -0.6506   -0.8994 C   0  0  0  0  0  0  0  0  0  0  0  0
   -3.2132   -0.6122    0.2942 C   0  0  0  0  0  0  0  0  0  0  0  0
   -2.6699   -1.3247    1.3424 C   0  0  0  0  0  0  0  0  0  0  0  0
   -1.4941   -2.0466    1.2434 C   0  0  0  0  0  0  0  0  0  0  0  0
   -4.4552    0.1416    0.4235 C   0  0  0  0  0  0  0  0  0  0  0  0
   -5.4321   -0.2995    1.2927 C   0  0  0  0  0  0  0  0  0  0  0  0
   -6.6308    0.3830    1.4507 C   0  0  0  0  0  0  0  0  0  0  0  0
   -6.8121    1.5346    0.6962 C   0  0  0  0  0  0  0  0  0  0  0  0
   -7.8582    2.3609    0.6627 N   0  0  0  0  0  0  0  0  0  0  0  0
   -7.5921    3.3442   -0.2150 C   0  0  0  0  0  0  0  0  0  0  0  0
   -6.3671    3.0814   -0.6991 N   0  0  0  0  0  0  0  0  0  0  0  0
   -5.8818    1.9876   -0.1560 N   0  0  0  0  0  0  0  0  0  0  0  0
   -4.7177    1.2937   -0.2863 C   0  0  0  0  0  0  0  0  0  0  0  0
    1.4292   -1.0194    1.1515 C   0  0  0  0  0  0  0  0  0  0  0  0
    2.7474   -0.4275    1.5708 C   0  0  0  0  0  0  0  0  0  0  0  0
    6.0738    3.8067    0.1500 H   0  0  0  0  0  0  0  0  0  0  0  0
    6.4815    2.1020    0.5102 H   0  0  0  0  0  0  0  0  0  0  0  0
    7.5394    2.9820   -0.6212 H   0  0  0  0  0  0  0  0  0  0  0  0
    6.1761    2.3083   -2.3443 H   0  0  0  0  0  0  0  0  0  0  0  0
    4.8069    3.1611   -1.5963 H   0  0  0  0  0  0  0  0  0  0  0  0
    5.2006    0.2902   -1.6947 H   0  0  0  0  0  0  0  0  0  0  0  0
    3.7535   -1.2603   -1.4896 H   0  0  0  0  0  0  0  0  0  0  0  0
    4.8332   -1.8439   -0.1660 H   0  0  0  0  0  0  0  0  0  0  0  0
    3.1306   -3.1217    0.7949 H   0  0  0  0  0  0  0  0  0  0  0  0
    2.7585   -3.2366   -0.9536 H   0  0  0  0  0  0  0  0  0  0  0  0
    0.4041   -3.6680    0.5840 H   0  0  0  0  0  0  0  0  0  0  0  0
    0.4691   -3.2475   -1.1456 H   0  0  0  0  0  0  0  0  0  0  0  0
   -0.7973   -1.3873   -1.9529 H   0  0  0  0  0  0  0  0  0  0  0  0
   -2.9020   -0.1033   -1.7524 H   0  0  0  0  0  0  0  0  0  0  0  0
   -3.2091   -1.3070    2.2930 H   0  0  0  0  0  0  0  0  0  0  0  0
   -1.1296   -2.5856    2.1192 H   0  0  0  0  0  0  0  0  0  0  0  0
   -5.2333   -1.1940    1.8464 H   0  0  0  0  0  0  0  0  0  0  0  0
   -7.4063    0.0505    2.1276 H   0  0  0  0  0  0  0  0  0  0  0  0
   -8.2312    4.1925   -0.4904 H   0  0  0  0  0  0  0  0  0  0  0  0
   -3.9873    1.6640   -0.9660 H   0  0  0  0  0  0  0  0  0  0  0  0
    0.9800   -1.4547    2.0709 H   0  0  0  0  0  0  0  0  0  0  0  0
    0.7666   -0.1849    0.8447 H   0  0  0  0  0  0  0  0  0  0  0  0
    2.5290    0.5771    2.0045 H   0  0  0  0  0  0  0  0  0  0  0  0
    3.2560   -1.0568    2.3474 H   0  0  0  0  0  0  0  0  0  0  0  0
  1  2  1  0
  2  3  1  0
  3  4  1  0
  4  5  2  0
  4  6  1  0
  6  7  1  0
  7  8  1  0
  8  9  1  0
  9 10  1  0
 10 11  1  0
 11 12  2  0
 12 13  1  0
 13 14  2  0
 14 15  1  0
 15 16  2  0
 14 17  1  0
 17 18  1  0
 18 19  2  0
 19 20  1  0
 20 21  2  0
 21 22  1  0
 22 23  2  0
 23 24  1  0
 24 25  1  0
  9 26  1  0
 26 27  1  0
 27  6  1  0
 16 11  1  0
 25 17  2  0
 24 20  1  0
  1 28  1  0
  1 29  1  0
  1 30  1  0
  2 31  1  0
  2 32  1  0
  3 33  1  0
  7 34  1  0
  7 35  1  0
  8 36  1  0
  8 37  1  0
 10 38  1  0
 10 39  1  0
 12 40  1  0
 13 41  1  0
 15 42  1  0
 16 43  1  0
 18 44  1  0
 19 45  1  0
 22 46  1  0
 25 47  1  0
 26 48  1  0
 26 49  1  0
 27 50  1  0
 27 51  1  0
M  END
$$$$
[H]c1c([H])c(S(=O)(=O)C([H])([H])[H])c([H])c([H])c1N([H])c1nc(C([H])(C([H])([H])[H])C([H])([H])[H])c([H])c2c1C([H])([H])N(N1C([H])([H])C([H])([H])C([H])([H])C1([H])[H])C([H])([H])C2([H])[H]
     RDKit          3D

 59 62  0  0  0  0  0  0  0  0999 V2000
    7.6390    0.7130    1.1831 C   0  0  0  0  0  0  0  0  0  0  0  0
    6.8886    1.2575   -0.3341 S   0  0  0  0  0  0  0  0  0  0  0  0
    7.4896    0.4410   -1.4421 O   0  0  0  0  0  0  0  0  0  0  0  0
    7.2195    2.6916   -0.5351 O   0  0  0  0  0  0  0  0  0  0  0  0
    5.1505    1.0773   -0.2797 C   0  0  0  0  0  0  0  0  0  0  0  0
    4.3375    2.0888    0.1813 C   0  0  0  0  0  0  0  0  0  0  0  0
    2.9693    1.9683    0.2336 C   0  0  0  0  0  0  0  0  0  0  0  0
    2.3237    0.7876   -0.1878 C   0  0  0  0  0  0  0  0  0  0  0  0
    0.9043    0.7432   -0.1304 N   0  0  0  0  0  0  0  0  0  0  0  0
    0.0857   -0.4013   -0.0596 C   0  0  0  0  0  0  0  0  0  0  0  0
    0.6226   -1.6270    0.0157 N   0  0  0  0  0  0  0  0  0  0  0  0
   -0.1189   -2.7212    0.1087 C   0  0  0  0  0  0  0  0  0  0  0  0
   -1.5075   -2.5830    0.1283 C   0  0  0  0  0  0  0  0  0  0  0  0
   -2.0876   -1.3429    0.0529 C   0  0  0  0  0  0  0  0  0  0  0  0
   -3.5522   -1.1899    0.0742 C   0  0  0  0  0  0  0  0  0  0  0  0
   -3.8928    0.0329   -0.7903 C   0  0  0  0  0  0  0  0  0  0  0  0
   -3.3024    1.1537   -0.1413 N   0  0  0  0  0  0  0  0  0  0  0  0
   -1.8688    1.1381   -0.1292 C   0  0  0  0  0  0  0  0  0  0  0  0
   -1.2948   -0.2312   -0.0426 C   0  0  0  0  0  0  0  0  0  0  0  0
   -3.7290    2.3906   -0.5486 N   0  0  0  0  0  0  0  0  0  0  0  0
   -3.8884    3.2160    0.6607 C   0  0  0  0  0  0  0  0  0  0  0  0
   -5.1576    2.5788    1.2400 C   0  0  0  0  0  0  0  0  0  0  0  0
   -6.0260    2.4923   -0.0007 C   0  0  0  0  0  0  0  0  0  0  0  0
   -5.0262    2.4701   -1.1272 C   0  0  0  0  0  0  0  0  0  0  0  0
    0.4776   -4.0796    0.1919 C   0  0  0  0  0  0  0  0  0  0  0  0
    1.2641   -4.3991   -1.0710 C   0  0  0  0  0  0  0  0  0  0  0  0
    1.4216   -4.1669    1.3574 C   0  0  0  0  0  0  0  0  0  0  0  0
    3.1309   -0.2134   -0.6452 C   0  0  0  0  0  0  0  0  0  0  0  0
    4.5310   -0.0743   -0.6920 C   0  0  0  0  0  0  0  0  0  0  0  0
    7.7489   -0.3768    1.2139 H   0  0  0  0  0  0  0  0  0  0  0  0
    7.0961    1.1198    2.0765 H   0  0  0  0  0  0  0  0  0  0  0  0
    8.6502    1.1601    1.2151 H   0  0  0  0  0  0  0  0  0  0  0  0
    4.8167    3.0121    0.5126 H   0  0  0  0  0  0  0  0  0  0  0  0
    2.3214    2.7563    0.5942 H   0  0  0  0  0  0  0  0  0  0  0  0
    0.3789    1.6914   -0.1429 H   0  0  0  0  0  0  0  0  0  0  0  0
   -2.0861   -3.4976    0.2052 H   0  0  0  0  0  0  0  0  0  0  0  0
   -4.0890   -2.0833   -0.3082 H   0  0  0  0  0  0  0  0  0  0  0  0
   -3.9186   -0.9184    1.1011 H   0  0  0  0  0  0  0  0  0  0  0  0
   -3.5261   -0.1330   -1.8077 H   0  0  0  0  0  0  0  0  0  0  0  0
   -4.9979    0.1262   -0.7150 H   0  0  0  0  0  0  0  0  0  0  0  0
   -1.4385    1.6153   -1.0586 H   0  0  0  0  0  0  0  0  0  0  0  0
   -1.4784    1.7293    0.7199 H   0  0  0  0  0  0  0  0  0  0  0  0
   -3.0298    3.0397    1.3077 H   0  0  0  0  0  0  0  0  0  0  0  0
   -4.0941    4.2600    0.4259 H   0  0  0  0  0  0  0  0  0  0  0  0
   -4.9337    1.5494    1.5612 H   0  0  0  0  0  0  0  0  0  0  0  0
   -5.6060    3.2056    2.0188 H   0  0  0  0  0  0  0  0  0  0  0  0
   -6.6590    3.4102    0.0022 H   0  0  0  0  0  0  0  0  0  0  0  0
   -6.7121    1.6400    0.0090 H   0  0  0  0  0  0  0  0  0  0  0  0
   -5.2487    1.7495   -1.9168 H   0  0  0  0  0  0  0  0  0  0  0  0
   -5.0984    3.4852   -1.6205 H   0  0  0  0  0  0  0  0  0  0  0  0
   -0.3317   -4.8398    0.2674 H   0  0  0  0  0  0  0  0  0  0  0  0
    1.5266   -5.4694   -1.1166 H   0  0  0  0  0  0  0  0  0  0  0  0
    0.6096   -4.2188   -1.9735 H   0  0  0  0  0  0  0  0  0  0  0  0
    2.1528   -3.7505   -1.1823 H   0  0  0  0  0  0  0  0  0  0  0  0
    1.8265   -3.1471    1.5943 H   0  0  0  0  0  0  0  0  0  0  0  0
    0.9285   -4.5291    2.2847 H   0  0  0  0  0  0  0  0  0  0  0  0
    2.3106   -4.7884    1.1290 H   0  0  0  0  0  0  0  0  0  0  0  0
    2.7237   -1.1348   -1.0009 H   0  0  0  0  0  0  0  0  0  0  0  0
    5.1540   -0.8737   -1.0550 H   0  0  0  0  0  0  0  0  0  0  0  0
  1  2  1  0
  2  3  2  0
  2  4  2  0
  2  5  1  0
  5  6  2  0
  6  7  1  0
  7  8  2  0
  8  9  1  0
  9 10  1  0
 10 11  2  0
 11 12  1  0
 12 13  2  0
 13 14  1  0
 14 15  1  0
 15 16  1  0
 16 17  1  0
 17 18  1  0
 18 19  1  0
 17 20  1  0
 20 21  1  0
 21 22  1  0
 22 23  1  0
 23 24  1  0
 12 25  1  0
 25 26  1  0
 25 27  1  0
  8 28  1  0
 28 29  2  0
 29  5  1  0
 19 10  1  0
 24 20  1  0
 19 14  2  0
  1 30  1  0
  1 31  1  0
  1 32  1  0
  6 33  1  0
  7 34  1  0
  9 35  1  0
 13 36  1  0
 15 37  1  0
 15 38  1  0
 16 39  1  0
 16 40  1  0
 18 41  1  0
 18 42  1  0
 21 43  1  0
 21 44  1  0
 22 45  1  0
 22 46  1  0
 23 47  1  0
 23 48  1  0
 24 49  1  0
 24 50  1  0
 25 51  1  0
 26 52  1  0
 26 53  1  0
 26 54  1  0
 27 55  1  0
 27 56  1  0
 27 57  1  0
 28 58  1  0
 29 59  1  0
M  END
$$$$
[H]C1=C(c2c([H])c(OC([H])([H])[H])c([H])c(-c3c([H])n([H])c4c([H])c(OC([H])([H])[H])c([H])c([H])c34)c2[H])C([H])([H])c2c([H])c([H])c([H])c([H])c21
     RDKit          3D

 49 53  0  0  0  0  0  0  0  0999 V2000
   -1.4449   -3.3196   -3.3859 C   0  0  0  0  0  0  0  0  0  0  0  0
   -0.2636   -2.6278   -3.0329 O   0  0  0  0  0  0  0  0  0  0  0  0
   -0.3131   -1.6275   -2.0828 C   0  0  0  0  0  0  0  0  0  0  0  0
    0.7937   -0.9096   -1.6866 C   0  0  0  0  0  0  0  0  0  0  0  0
    0.7735    0.0924   -0.7421 C   0  0  0  0  0  0  0  0  0  0  0  0
   -0.4692    0.3732   -0.1682 C   0  0  0  0  0  0  0  0  0  0  0  0
   -1.6032   -0.3093   -0.5244 C   0  0  0  0  0  0  0  0  0  0  0  0
   -1.5215   -1.3027   -1.4761 C   0  0  0  0  0  0  0  0  0  0  0  0
   -2.9057    0.0242    0.1139 C   0  0  0  0  0  0  0  0  0  0  0  0
   -4.0612   -0.5510   -0.1364 C   0  0  0  0  0  0  0  0  0  0  0  0
   -5.1457    0.0077    0.6585 C   0  0  0  0  0  0  0  0  0  0  0  0
   -6.4988   -0.2408    0.7638 C   0  0  0  0  0  0  0  0  0  0  0  0
   -7.3227    0.4512    1.6185 C   0  0  0  0  0  0  0  0  0  0  0  0
   -6.7317    1.4313    2.3895 C   0  0  0  0  0  0  0  0  0  0  0  0
   -5.3908    1.7121    2.3174 C   0  0  0  0  0  0  0  0  0  0  0  0
   -4.5749    0.9893    1.4358 C   0  0  0  0  0  0  0  0  0  0  0  0
   -3.1266    1.0586    1.1387 C   0  0  0  0  0  0  0  0  0  0  0  0
    1.9678    0.8274   -0.3443 C   0  0  0  0  0  0  0  0  0  0  0  0
    2.1390    2.1908   -0.2217 C   0  0  0  0  0  0  0  0  0  0  0  0
    3.3994    2.4618    0.1633 N   0  0  0  0  0  0  0  0  0  0  0  0
    4.0664    1.2896    0.2974 C   0  0  0  0  0  0  0  0  0  0  0  0
    5.3562    1.0184    0.6640 C   0  0  0  0  0  0  0  0  0  0  0  0
    5.7877   -0.2818    0.7242 C   0  0  0  0  0  0  0  0  0  0  0  0
    7.1193   -0.5713    1.1021 O   0  0  0  0  0  0  0  0  0  0  0  0
    7.9856    0.5037    1.4132 C   0  0  0  0  0  0  0  0  0  0  0  0
    4.9147   -1.2993    0.4140 C   0  0  0  0  0  0  0  0  0  0  0  0
    3.6112   -1.0399    0.0427 C   0  0  0  0  0  0  0  0  0  0  0  0
    3.1907    0.2816   -0.0134 C   0  0  0  0  0  0  0  0  0  0  0  0
   -1.8771   -3.8238   -2.4776 H   0  0  0  0  0  0  0  0  0  0  0  0
   -2.1953   -2.5541   -3.6718 H   0  0  0  0  0  0  0  0  0  0  0  0
   -1.2847   -4.0906   -4.1394 H   0  0  0  0  0  0  0  0  0  0  0  0
    1.7405   -1.1440   -2.1494 H   0  0  0  0  0  0  0  0  0  0  0  0
   -0.4792    1.1691    0.5804 H   0  0  0  0  0  0  0  0  0  0  0  0
   -2.4171   -1.8487   -1.7638 H   0  0  0  0  0  0  0  0  0  0  0  0
   -4.1862   -1.3597   -0.8632 H   0  0  0  0  0  0  0  0  0  0  0  0
   -6.9346   -1.0093    0.1525 H   0  0  0  0  0  0  0  0  0  0  0  0
   -8.3982    0.2266    1.6769 H   0  0  0  0  0  0  0  0  0  0  0  0
   -7.3522    2.0075    3.0847 H   0  0  0  0  0  0  0  0  0  0  0  0
   -4.9192    2.4859    2.9248 H   0  0  0  0  0  0  0  0  0  0  0  0
   -2.5855    0.8268    2.0831 H   0  0  0  0  0  0  0  0  0  0  0  0
   -2.8186    2.0680    0.7915 H   0  0  0  0  0  0  0  0  0  0  0  0
    1.3636    2.9384   -0.4100 H   0  0  0  0  0  0  0  0  0  0  0  0
    3.8319    3.4154    0.3409 H   0  0  0  0  0  0  0  0  0  0  0  0
    6.0678    1.8082    0.9148 H   0  0  0  0  0  0  0  0  0  0  0  0
    7.5319    1.1694    2.1850 H   0  0  0  0  0  0  0  0  0  0  0  0
    8.0550    1.1238    0.4860 H   0  0  0  0  0  0  0  0  0  0  0  0
    8.9604    0.1052    1.7189 H   0  0  0  0  0  0  0  0  0  0  0  0
    5.2445   -2.3324    0.4581 H   0  0  0  0  0  0  0  0  0  0  0  0
    2.9206   -1.8144   -0.1980 H   0  0  0  0  0  0  0  0  0  0  0  0
  1  2  1  0
  2  3  1  0
  3  4  2  0
  4  5  1  0
  5  6  2  0
  6  7  1  0
  7  8  2  0
  7  9  1  0
  9 10  2  0
 10 11  1  0
 11 12  2  0
 12 13  1  0
 13 14  2  0
 14 15  1  0
 15 16  2  0
 16 17  1  0
  5 18  1  0
 18 19  2  0
 19 20  1  0
 20 21  1  0
 21 22  2  0
 22 23  1  0
 23 24  1  0
 24 25  1  0
 23 26  2  0
 26 27  1  0
 27 28  2  0
  8  3  1  0
 17  9  1  0
 28 18  1  0
 16 11  1  0
 28 21  1  0
  1 29  1  0
  1 30  1  0
  1 31  1  0
  4 32  1  0
  6 33  1  0
  8 34  1  0
 10 35  1  0
 12 36  1  0
 13 37  1  0
 14 38  1  0
 15 39  1  0
 17 40  1  0
 17 41  1  0
 19 42  1  0
 20 43  1  0
 22 44  1  0
 25 45  1  0
 25 46  1  0
 25 47  1  0
 26 48  1  0
 27 49  1  0
M  END
$$$$
[H]c1nc(N2C([H])([H])C([H])([H])N([H])C([H])([H])C2([H])[H])c([H])c(-c2nc([H])c(C(=O)N([H])[C@@]3([H])C([H])([H])C([H])([H])C([H])([H])C([H])(N([H])C(=O)C([H])([H])C([H])([H])c4c([H])c([H])c([H])c([H])c4[H])C3([H])[H])c([H])c2[H])c1[H]
     RDKit          3D

 74 78  0  0  0  0  0  0  0  0999 V2000
   -6.2277    2.5203    0.3603 O   0  0  0  0  0  0  0  0  0  0  0  0
   -6.2517    1.4679   -0.3113 C   0  0  0  0  0  0  0  0  0  0  0  0
   -7.5172    0.7142   -0.4218 C   0  0  0  0  0  0  0  0  0  0  0  0
   -8.6384    1.4092    0.3345 C   0  0  0  0  0  0  0  0  0  0  0  0
   -9.8517    0.5644    0.1495 C   0  0  0  0  0  0  0  0  0  0  0  0
  -10.1223   -0.4426    1.0489 C   0  0  0  0  0  0  0  0  0  0  0  0
  -11.2436   -1.2239    0.8753 C   0  0  0  0  0  0  0  0  0  0  0  0
  -12.0989   -1.0086   -0.1906 C   0  0  0  0  0  0  0  0  0  0  0  0
  -11.8131   -0.0076   -1.0678 C   0  0  0  0  0  0  0  0  0  0  0  0
  -10.6787    0.7943   -0.9052 C   0  0  0  0  0  0  0  0  0  0  0  0
   -5.0838    1.0092   -0.9530 N   0  0  0  0  0  0  0  0  0  0  0  0
   -3.8591    1.7425   -0.8445 C   0  0  0  0  0  0  0  0  0  0  0  0
   -3.4861    2.1992   -2.2451 C   0  0  0  0  0  0  0  0  0  0  0  0
   -3.1639    1.0521   -3.1579 C   0  0  0  0  0  0  0  0  0  0  0  0
   -2.3264   -0.0140   -2.4706 C   0  0  0  0  0  0  0  0  0  0  0  0
   -1.7151    0.6925   -1.2550 C   0  0  1  0  0  0  0  0  0  0  0  0
   -2.7732    0.9055   -0.2020 C   0  0  0  0  0  0  0  0  0  0  0  0
   -0.5720   -0.0198   -0.7651 N   0  0  0  0  0  0  0  0  0  0  0  0
    0.6880    0.6093   -0.7158 C   0  0  0  0  0  0  0  0  0  0  0  0
    0.7589    1.8145   -1.1136 O   0  0  0  0  0  0  0  0  0  0  0  0
    1.8974   -0.0726   -0.2297 C   0  0  0  0  0  0  0  0  0  0  0  0
    1.9351   -1.3951    0.1423 C   0  0  0  0  0  0  0  0  0  0  0  0
    3.1328   -1.9741    0.5846 C   0  0  0  0  0  0  0  0  0  0  0  0
    4.2989   -1.2482    0.6603 C   0  0  0  0  0  0  0  0  0  0  0  0
    4.2110    0.0523    0.2829 N   0  0  0  0  0  0  0  0  0  0  0  0
    3.0795    0.6334   -0.1437 C   0  0  0  0  0  0  0  0  0  0  0  0
    5.5655   -1.8166    1.1006 C   0  0  0  0  0  0  0  0  0  0  0  0
    5.7460   -3.1191    1.4922 C   0  0  0  0  0  0  0  0  0  0  0  0
    6.9714   -3.6166    1.8913 C   0  0  0  0  0  0  0  0  0  0  0  0
    8.0110   -2.7805    1.8893 N   0  0  0  0  0  0  0  0  0  0  0  0
    7.9220   -1.4722    1.5163 C   0  0  0  0  0  0  0  0  0  0  0  0
    6.6916   -0.9970    1.1224 C   0  0  0  0  0  0  0  0  0  0  0  0
    9.0775   -0.6579    1.5361 N   0  0  0  0  0  0  0  0  0  0  0  0
    8.9851    0.7529    1.2886 C   0  0  0  0  0  0  0  0  0  0  0  0
   10.2767    1.3547    0.7875 C   0  0  0  0  0  0  0  0  0  0  0  0
   11.3689    0.8043    1.5389 N   0  0  0  0  0  0  0  0  0  0  0  0
   11.4919   -0.6019    1.1278 C   0  0  0  0  0  0  0  0  0  0  0  0
   10.3497   -1.3182    1.8121 C   0  0  0  0  0  0  0  0  0  0  0  0
   -7.4372   -0.3046    0.0177 H   0  0  0  0  0  0  0  0  0  0  0  0
   -7.7964    0.5814   -1.4816 H   0  0  0  0  0  0  0  0  0  0  0  0
   -8.4323    1.4628    1.4041 H   0  0  0  0  0  0  0  0  0  0  0  0
   -8.7964    2.4390   -0.0532 H   0  0  0  0  0  0  0  0  0  0  0  0
   -9.4313   -0.5814    1.8708 H   0  0  0  0  0  0  0  0  0  0  0  0
  -11.4328   -1.9932    1.5825 H   0  0  0  0  0  0  0  0  0  0  0  0
  -12.9630   -1.6582   -0.2685 H   0  0  0  0  0  0  0  0  0  0  0  0
  -12.4551    0.1887   -1.9094 H   0  0  0  0  0  0  0  0  0  0  0  0
  -10.5124    1.5745   -1.6424 H   0  0  0  0  0  0  0  0  0  0  0  0
   -5.1119    0.1311   -1.5098 H   0  0  0  0  0  0  0  0  0  0  0  0
   -3.9607    2.6614   -0.2262 H   0  0  0  0  0  0  0  0  0  0  0  0
   -2.7604    3.0221   -2.2656 H   0  0  0  0  0  0  0  0  0  0  0  0
   -4.4435    2.6490   -2.6543 H   0  0  0  0  0  0  0  0  0  0  0  0
   -2.5225    1.4668   -3.9846 H   0  0  0  0  0  0  0  0  0  0  0  0
   -4.0486    0.6276   -3.6668 H   0  0  0  0  0  0  0  0  0  0  0  0
   -2.9606   -0.8327   -2.0562 H   0  0  0  0  0  0  0  0  0  0  0  0
   -1.5426   -0.4255   -3.1062 H   0  0  0  0  0  0  0  0  0  0  0  0
   -1.3779    1.7184   -1.5722 H   0  0  0  0  0  0  0  0  0  0  0  0
   -3.1498   -0.0750    0.1387 H   0  0  0  0  0  0  0  0  0  0  0  0
   -2.2897    1.4306    0.6457 H   0  0  0  0  0  0  0  0  0  0  0  0
   -0.6651   -0.9981   -0.4453 H   0  0  0  0  0  0  0  0  0  0  0  0
    1.0426   -1.9788    0.0920 H   0  0  0  0  0  0  0  0  0  0  0  0
    3.1399   -3.0212    0.8745 H   0  0  0  0  0  0  0  0  0  0  0  0
    3.0400    1.6810   -0.4416 H   0  0  0  0  0  0  0  0  0  0  0  0
    4.9038   -3.7926    1.4913 H   0  0  0  0  0  0  0  0  0  0  0  0
    7.1203   -4.6407    2.2022 H   0  0  0  0  0  0  0  0  0  0  0  0
    6.5340    0.0205    0.8163 H   0  0  0  0  0  0  0  0  0  0  0  0
    8.1906    1.0634    0.5933 H   0  0  0  0  0  0  0  0  0  0  0  0
    8.7713    1.2450    2.2641 H   0  0  0  0  0  0  0  0  0  0  0  0
   10.2282    2.4569    0.9270 H   0  0  0  0  0  0  0  0  0  0  0  0
   10.3460    1.1609   -0.3083 H   0  0  0  0  0  0  0  0  0  0  0  0
   11.0969    0.7895    2.5464 H   0  0  0  0  0  0  0  0  0  0  0  0
   12.4253   -1.0513    1.4834 H   0  0  0  0  0  0  0  0  0  0  0  0
   11.4028   -0.6648    0.0366 H   0  0  0  0  0  0  0  0  0  0  0  0
   10.4955   -1.3117    2.9063 H   0  0  0  0  0  0  0  0  0  0  0  0
   10.3169   -2.3469    1.3963 H   0  0  0  0  0  0  0  0  0  0  0  0
  1  2  2  0
  2  3  1  0
  3  4  1  0
  4  5  1  0
  5  6  2  0
  6  7  1  0
  7  8  2  0
  8  9  1  0
  9 10  2  0
  2 11  1  0
 11 12  1  0
 12 13  1  0
 13 14  1  0
 14 15  1  0
 15 16  1  0
 16 17  1  0
 16 18  1  0
 18 19  1  0
 19 20  2  0
 19 21  1  0
 21 22  2  0
 22 23  1  0
 23 24  2  0
 24 25  1  0
 25 26  2  0
 24 27  1  0
 27 28  2  0
 28 29  1  0
 29 30  2  0
 30 31  1  0
 31 32  2  0
 31 33  1  0
 33 34  1  0
 34 35  1  0
 35 36  1  0
 36 37  1  0
 37 38  1  0
 10  5  1  0
 17 12  1  0
 26 21  1  0
 32 27  1  0
 38 33  1  0
  3 39  1  0
  3 40  1  0
  4 41  1  0
  4 42  1  0
  6 43  1  0
  7 44  1  0
  8 45  1  0
  9 46  1  0
 10 47  1  0
 11 48  1  0
 12 49  1  0
 13 50  1  0
 13 51  1  0
 14 52  1  0
 14 53  1  0
 15 54  1  0
 15 55  1  0
 16 56  1  6
 17 57  1  0
 17 58  1  0
 18 59  1  0
 22 60  1  0
 23 61  1  0
 26 62  1  0
 28 63  1  0
 29 64  1  0
 32 65  1  0
 34 66  1  0
 34 67  1  0
 35 68  1  0
 35 69  1  0
 36 70  1  0
 37 71  1  0
 37 72  1  0
 38 73  1  0
 38 74  1  0
M  END
$$$$
[H]c1nc(N([H])C(=O)C([H])([H])Oc2c([H])c([H])c(Cl)c([N+](=O)[O-])c2[H])nc(-c2c([H])c([H])c(C([H])([H])N3C([H])([H])C([H])([H])C([H])([H])C3([H])[H])c([H])c2[H])c1C([H])([H])[H]
     RDKit          3D

 58 61  0  0  0  0  0  0  0  0999 V2000
   -1.5828   -4.5617    0.9073 C   0  0  0  0  0  0  0  0  0  0  0  0
   -0.4113   -3.6501    0.7849 C   0  0  0  0  0  0  0  0  0  0  0  0
    0.8557   -4.1000    1.1491 C   0  0  0  0  0  0  0  0  0  0  0  0
    1.8872   -3.2783    1.0240 N   0  0  0  0  0  0  0  0  0  0  0  0
    1.8158   -2.0084    0.5617 C   0  0  0  0  0  0  0  0  0  0  0  0
    2.9691   -1.1833    0.4594 N   0  0  0  0  0  0  0  0  0  0  0  0
    4.2392   -1.6830    0.8483 C   0  0  0  0  0  0  0  0  0  0  0  0
    4.3226   -2.8598    1.2784 O   0  0  0  0  0  0  0  0  0  0  0  0
    5.4729   -0.8236    0.7508 C   0  0  0  0  0  0  0  0  0  0  0  0
    5.1404    0.4299    0.2411 O   0  0  0  0  0  0  0  0  0  0  0  0
    6.0224    1.4684    0.0212 C   0  0  0  0  0  0  0  0  0  0  0  0
    5.5718    2.6648   -0.4903 C   0  0  0  0  0  0  0  0  0  0  0  0
    6.4310    3.7333   -0.7248 C   0  0  0  0  0  0  0  0  0  0  0  0
    7.7547    3.5893   -0.4396 C   0  0  0  0  0  0  0  0  0  0  0  0
    8.8426    4.9296   -0.7317 Cl  0  0  0  0  0  0  0  0  0  0  0  0
    8.2413    2.4048    0.0738 C   0  0  0  0  0  0  0  0  0  0  0  0
    7.3639    1.3493    0.3004 C   0  0  0  0  0  0  0  0  0  0  0  0
    9.6306    2.3279    0.3468 N   0  0  0  0  0  0  0  0  0  0  0  0
   10.2664    1.1270    0.2197 O   0  0  0  0  0  0  0  0  0  0  0  0
   10.2817    3.3250    0.6982 O   0  0  0  0  0  0  0  0  0  0  0  0
    0.5900   -1.5767    0.2106 N   0  0  0  0  0  0  0  0  0  0  0  0
   -0.4979   -2.3606    0.3136 C   0  0  0  0  0  0  0  0  0  0  0  0
   -1.7736   -1.7940   -0.0994 C   0  0  0  0  0  0  0  0  0  0  0  0
   -1.8600   -1.1186   -1.3190 C   0  0  0  0  0  0  0  0  0  0  0  0
   -3.0431   -0.5575   -1.7445 C   0  0  0  0  0  0  0  0  0  0  0  0
   -4.2034   -0.6279   -0.9991 C   0  0  0  0  0  0  0  0  0  0  0  0
   -5.4632   -0.0166   -1.4892 C   0  0  0  0  0  0  0  0  0  0  0  0
   -5.5779    1.3884   -1.2366 N   0  0  0  0  0  0  0  0  0  0  0  0
   -5.5297    1.7281    0.1496 C   0  0  0  0  0  0  0  0  0  0  0  0
   -6.6143    2.7927    0.3512 C   0  0  0  0  0  0  0  0  0  0  0  0
   -7.6975    2.2274   -0.5767 C   0  0  0  0  0  0  0  0  0  0  0  0
   -6.8473    1.8285   -1.7691 C   0  0  0  0  0  0  0  0  0  0  0  0
   -4.1279   -1.2918    0.2051 C   0  0  0  0  0  0  0  0  0  0  0  0
   -2.9322   -1.8623    0.6420 C   0  0  0  0  0  0  0  0  0  0  0  0
   -1.9973   -4.5740    1.9298 H   0  0  0  0  0  0  0  0  0  0  0  0
   -1.2092   -5.6171    0.7452 H   0  0  0  0  0  0  0  0  0  0  0  0
   -2.3364   -4.4124    0.1223 H   0  0  0  0  0  0  0  0  0  0  0  0
    0.9105   -5.1143    1.5181 H   0  0  0  0  0  0  0  0  0  0  0  0
    2.8491   -0.2209    0.0991 H   0  0  0  0  0  0  0  0  0  0  0  0
    6.2637   -1.3594    0.2205 H   0  0  0  0  0  0  0  0  0  0  0  0
    5.8682   -0.6557    1.7929 H   0  0  0  0  0  0  0  0  0  0  0  0
    4.5237    2.7917   -0.7207 H   0  0  0  0  0  0  0  0  0  0  0  0
    6.0649    4.6750   -1.1291 H   0  0  0  0  0  0  0  0  0  0  0  0
    7.7366    0.4288    0.6986 H   0  0  0  0  0  0  0  0  0  0  0  0
   -0.9417   -1.0570   -1.9193 H   0  0  0  0  0  0  0  0  0  0  0  0
   -3.0899   -0.0412   -2.6879 H   0  0  0  0  0  0  0  0  0  0  0  0
   -5.5870   -0.1723   -2.5947 H   0  0  0  0  0  0  0  0  0  0  0  0
   -6.3611   -0.5076   -1.0394 H   0  0  0  0  0  0  0  0  0  0  0  0
   -4.5360    2.1228    0.4537 H   0  0  0  0  0  0  0  0  0  0  0  0
   -5.8560    0.8718    0.7727 H   0  0  0  0  0  0  0  0  0  0  0  0
   -6.3207    3.7614   -0.0972 H   0  0  0  0  0  0  0  0  0  0  0  0
   -6.9555    2.8514    1.3843 H   0  0  0  0  0  0  0  0  0  0  0  0
   -8.4377    2.9773   -0.8522 H   0  0  0  0  0  0  0  0  0  0  0  0
   -8.1047    1.3377   -0.0734 H   0  0  0  0  0  0  0  0  0  0  0  0
   -7.3977    1.0182   -2.2903 H   0  0  0  0  0  0  0  0  0  0  0  0
   -6.7107    2.6791   -2.4494 H   0  0  0  0  0  0  0  0  0  0  0  0
   -5.0109   -1.3629    0.8020 H   0  0  0  0  0  0  0  0  0  0  0  0
   -2.9016   -2.3805    1.6100 H   0  0  0  0  0  0  0  0  0  0  0  0
  1  2  1  0
  2  3  2  0
  3  4  1  0
  4  5  2  0
  5  6  1  0
  6  7  1  0
  7  8  2  0
  7  9  1  0
  9 10  1  0
 10 11  1  0
 11 12  2  0
 12 13  1  0
 13 14  2  0
 14 15  1  0
 14 16  1  0
 16 17  2  0
 16 18  1  0
 18 19  1  0
 18 20  2  0
  5 21  1  0
 21 22  2  0
 22 23  1  0
 23 24  2  0
 24 25  1  0
 25 26  2  0
 26 27  1  0
 27 28  1  0
 28 29  1  0
 29 30  1  0
 30 31  1  0
 31 32  1  0
 26 33  1  0
 33 34  2  0
 22  2  1  0
 34 23  1  0
 17 11  1  0
 32 28  1  0
  1 35  1  0
  1 36  1  0
  1 37  1  0
  3 38  1  0
  6 39  1  0
  9 40  1  0
  9 41  1  0
 12 42  1  0
 13 43  1  0
 17 44  1  0
 24 45  1  0
 25 46  1  0
 27 47  1  0
 27 48  1  0
 29 49  1  0
 29 50  1  0
 30 51  1  0
 30 52  1  0
 31 53  1  0
 31 54  1  0
 32 55  1  0
 32 56  1  0
 33 57  1  0
 34 58  1  0
M  CHG  2  18   1  19  -1
M  END
$$$$
[H]c1nc(N([H])[H])c2c(-c3sc(C([H])([H])[H])c([H])c3[H])c([H])n([H])c2n1
     RDKit          3D

 26 28  0  0  0  0  0  0  0  0999 V2000
    4.4939   -1.1327    0.5399 C   0  0  0  0  0  0  0  0  0  0  0  0
    3.1969   -0.4300    0.2288 C   0  0  0  0  0  0  0  0  0  0  0  0
    2.9978    0.8912   -0.0540 C   0  0  0  0  0  0  0  0  0  0  0  0
    1.7657    1.3064   -0.3008 C   0  0  0  0  0  0  0  0  0  0  0  0
    0.7398    0.3509   -0.2538 C   0  0  0  0  0  0  0  0  0  0  0  0
    1.6193   -1.0348    0.1331 S   0  0  0  0  0  0  0  0  0  0  0  0
   -0.6645    0.6916   -0.4650 C   0  0  0  0  0  0  0  0  0  0  0  0
   -1.0971    1.8915   -1.0681 C   0  0  0  0  0  0  0  0  0  0  0  0
   -2.4191    1.9190   -1.0870 N   0  0  0  0  0  0  0  0  0  0  0  0
   -2.9296    0.8067   -0.5305 C   0  0  0  0  0  0  0  0  0  0  0  0
   -4.2017    0.4187   -0.3281 N   0  0  0  0  0  0  0  0  0  0  0  0
   -4.4302   -0.7521    0.2742 C   0  0  0  0  0  0  0  0  0  0  0  0
   -3.4132   -1.5053    0.6596 N   0  0  0  0  0  0  0  0  0  0  0  0
   -2.1041   -1.1449    0.4710 C   0  0  0  0  0  0  0  0  0  0  0  0
   -1.1077   -2.0083    0.9473 N   0  0  0  0  0  0  0  0  0  0  0  0
   -1.8141    0.0386   -0.1402 C   0  0  0  0  0  0  0  0  0  0  0  0
    5.1616   -0.9835   -0.3356 H   0  0  0  0  0  0  0  0  0  0  0  0
    4.2825   -2.1895    0.6929 H   0  0  0  0  0  0  0  0  0  0  0  0
    4.9118   -0.6421    1.4220 H   0  0  0  0  0  0  0  0  0  0  0  0
    3.8837    1.5719   -0.0642 H   0  0  0  0  0  0  0  0  0  0  0  0
    1.5165    2.3651   -0.5363 H   0  0  0  0  0  0  0  0  0  0  0  0
   -0.3837    2.6340   -1.4396 H   0  0  0  0  0  0  0  0  0  0  0  0
   -3.0332    2.6941   -1.4789 H   0  0  0  0  0  0  0  0  0  0  0  0
   -5.4770   -1.0817    0.4459 H   0  0  0  0  0  0  0  0  0  0  0  0
   -0.6956   -1.8548    1.8857 H   0  0  0  0  0  0  0  0  0  0  0  0
   -0.7988   -2.8201    0.3817 H   0  0  0  0  0  0  0  0  0  0  0  0
  1  2  1  0
  2  3  2  0
  3  4  1  0
  4  5  2  0
  5  6  1  0
  5  7  1  0
  7  8  2  0
  8  9  1  0
  9 10  1  0
 10 11  2  0
 11 12  1  0
 12 13  2  0
 13 14  1  0
 14 15  1  0
 14 16  2  0
  6  2  1  0
 16  7  1  0
 16 10  1  0
  1 17  1  0
  1 18  1  0
  1 19  1  0
  3 20  1  0
  4 21  1  0
  8 22  1  0
  9 23  1  0
 12 24  1  0
 15 25  1  0
 15 26  1  0
M  END
$$$$
[H]c1c(Cl)c([H])c(N2C([H])([H])C([H])([H])N(C(=O)C([H])([H])c3nc4c([H])c([H])c([H])c([H])c4n3[H])C([H])([H])C2([H])[H])c([H])c1C#N
     RDKit          3D

 45 48  0  0  0  0  0  0  0  0999 V2000
    6.8538    3.3905   -0.8765 Cl  0  0  0  0  0  0  0  0  0  0  0  0
    6.1848    1.8336   -0.4423 C   0  0  0  0  0  0  0  0  0  0  0  0
    4.8095    1.6691   -0.2626 C   0  0  0  0  0  0  0  0  0  0  0  0
    4.2580    0.4515    0.0802 C   0  0  0  0  0  0  0  0  0  0  0  0
    2.8702    0.2368    0.2792 N   0  0  0  0  0  0  0  0  0  0  0  0
    2.3928   -1.1012    0.4819 C   0  0  0  0  0  0  0  0  0  0  0  0
    0.9234   -1.2858    0.2518 C   0  0  0  0  0  0  0  0  0  0  0  0
    0.1455   -0.1214    0.5660 N   0  0  0  0  0  0  0  0  0  0  0  0
    0.8029    0.9994    1.1993 C   0  0  0  0  0  0  0  0  0  0  0  0
    1.9755    1.3703    0.2779 C   0  0  0  0  0  0  0  0  0  0  0  0
   -1.2373   -0.0210    0.2834 C   0  0  0  0  0  0  0  0  0  0  0  0
   -1.9009    1.0318    0.5768 O   0  0  0  0  0  0  0  0  0  0  0  0
   -2.0029   -1.1166   -0.3648 C   0  0  0  0  0  0  0  0  0  0  0  0
   -3.4223   -0.7251   -0.5312 C   0  0  0  0  0  0  0  0  0  0  0  0
   -3.9815   -0.1004   -1.5820 N   0  0  0  0  0  0  0  0  0  0  0  0
   -5.2908    0.0689   -1.3333 C   0  0  0  0  0  0  0  0  0  0  0  0
   -6.3401    0.6338   -2.0330 C   0  0  0  0  0  0  0  0  0  0  0  0
   -7.6300    0.6872   -1.5502 C   0  0  0  0  0  0  0  0  0  0  0  0
   -7.8813    0.1456   -0.2996 C   0  0  0  0  0  0  0  0  0  0  0  0
   -6.8649   -0.4192    0.4151 C   0  0  0  0  0  0  0  0  0  0  0  0
   -5.5685   -0.4586   -0.1001 C   0  0  0  0  0  0  0  0  0  0  0  0
   -4.4095   -0.9336    0.3608 N   0  0  0  0  0  0  0  0  0  0  0  0
    5.1718   -0.5967    0.2327 C   0  0  0  0  0  0  0  0  0  0  0  0
    6.5232   -0.4473    0.0589 C   0  0  0  0  0  0  0  0  0  0  0  0
    7.0490    0.7789   -0.2832 C   0  0  0  0  0  0  0  0  0  0  0  0
    7.4369   -1.5466    0.2234 C   0  0  0  0  0  0  0  0  0  0  0  0
    8.1666   -2.4313    0.3742 N   0  0  0  0  0  0  0  0  0  0  0  0
    4.1608    2.5362   -0.4024 H   0  0  0  0  0  0  0  0  0  0  0  0
    2.9131   -1.7337   -0.2992 H   0  0  0  0  0  0  0  0  0  0  0  0
    2.7292   -1.5302    1.4593 H   0  0  0  0  0  0  0  0  0  0  0  0
    0.5780   -2.1118    0.9195 H   0  0  0  0  0  0  0  0  0  0  0  0
    0.7160   -1.6520   -0.7936 H   0  0  0  0  0  0  0  0  0  0  0  0
    0.1210    1.8716    1.2958 H   0  0  0  0  0  0  0  0  0  0  0  0
    1.1709    0.6509    2.1870 H   0  0  0  0  0  0  0  0  0  0  0  0
    1.5243    1.5143   -0.7343 H   0  0  0  0  0  0  0  0  0  0  0  0
    2.4424    2.3174    0.6156 H   0  0  0  0  0  0  0  0  0  0  0  0
   -1.5146   -1.2723   -1.3708 H   0  0  0  0  0  0  0  0  0  0  0  0
   -1.8912   -2.0717    0.1854 H   0  0  0  0  0  0  0  0  0  0  0  0
   -6.1688    1.0615   -3.0080 H   0  0  0  0  0  0  0  0  0  0  0  0
   -8.4279    1.1350   -2.1203 H   0  0  0  0  0  0  0  0  0  0  0  0
   -8.8908    0.1800    0.0938 H   0  0  0  0  0  0  0  0  0  0  0  0
   -7.0538   -0.8437    1.3917 H   0  0  0  0  0  0  0  0  0  0  0  0
   -4.3186   -1.4032    1.3025 H   0  0  0  0  0  0  0  0  0  0  0  0
    4.7604   -1.5628    0.5040 H   0  0  0  0  0  0  0  0  0  0  0  0
    8.1154    0.9218   -0.4262 H   0  0  0  0  0  0  0  0  0  0  0  0
  1  2  1  0
  2  3  2  0
  3  4  1  0
  4  5  1  0
  5  6  1  0
  6  7  1  0
  7  8  1  0
  8  9  1  0
  9 10  1  0
  8 11  1  0
 11 12  2  0
 11 13  1  0
 13 14  1  0
 14 15  2  0
 15 16  1  0
 16 17  2  0
 17 18  1  0
 18 19  2  0
 19 20  1  0
 20 21  2  0
 21 22  1  0
  4 23  2  0
 23 24  1  0
 24 25  2  0
 24 26  1  0
 26 27  3  0
 25  2  1  0
 10  5  1  0
 22 14  1  0
 21 16  1  0
  3 28  1  0
  6 29  1  0
  6 30  1  0
  7 31  1  0
  7 32  1  0
  9 33  1  0
  9 34  1  0
 10 35  1  0
 10 36  1  0
 13 37  1  0
 13 38  1  0
 17 39  1  0
 18 40  1  0
 19 41  1  0
 20 42  1  0
 22 43  1  0
 23 44  1  0
 25 45  1  0
M  END
$$$$
[H]c1nn(C([H])([H])[H])c([H])c1-c1c([H])c2c(N([H])c3c([H])c([H])c4c(c3[H])OC([H])([H])O4)nc(-c3c([H])c([H])c(F)c(C(F)(F)F)c3[H])nn2c1[H]
     RDKit          3D

 52 57  0  0  0  0  0  0  0  0999 V2000
   -1.5446    8.4904   -0.3801 C   0  0  0  0  0  0  0  0  0  0  0  0
   -0.7986    7.2660   -0.5284 N   0  0  0  0  0  0  0  0  0  0  0  0
   -1.2697    6.0225   -0.3310 C   0  0  0  0  0  0  0  0  0  0  0  0
   -0.2724    5.0987   -0.5659 C   0  0  0  0  0  0  0  0  0  0  0  0
    0.8270    5.8502   -0.9159 C   0  0  0  0  0  0  0  0  0  0  0  0
    0.4454    7.1411   -0.8742 N   0  0  0  0  0  0  0  0  0  0  0  0
   -0.3365    3.6518   -0.4743 C   0  0  0  0  0  0  0  0  0  0  0  0
   -1.4644    2.9074   -0.7443 C   0  0  0  0  0  0  0  0  0  0  0  0
   -1.1623    1.6164   -0.5594 N   0  0  0  0  0  0  0  0  0  0  0  0
   -1.9351    0.5525   -0.7032 N   0  0  0  0  0  0  0  0  0  0  0  0
   -1.4709   -0.6988   -0.4751 C   0  0  0  0  0  0  0  0  0  0  0  0
   -0.2046   -0.7979   -0.1012 N   0  0  0  0  0  0  0  0  0  0  0  0
    0.6574    0.2083    0.0729 C   0  0  0  0  0  0  0  0  0  0  0  0
    1.9893    0.1028    0.4788 N   0  0  0  0  0  0  0  0  0  0  0  0
    2.7287   -1.0707    0.7699 C   0  0  0  0  0  0  0  0  0  0  0  0
    3.9723   -0.9282    1.4140 C   0  0  0  0  0  0  0  0  0  0  0  0
    4.7560   -2.0189    1.7180 C   0  0  0  0  0  0  0  0  0  0  0  0
    4.3635   -3.2977    1.4082 C   0  0  0  0  0  0  0  0  0  0  0  0
    4.9257   -4.5515    1.5855 O   0  0  0  0  0  0  0  0  0  0  0  0
    4.2796   -5.4852    0.7181 C   0  0  0  0  0  0  0  0  0  0  0  0
    3.0067   -4.8346    0.5863 O   0  0  0  0  0  0  0  0  0  0  0  0
    3.1578   -3.4702    0.7805 C   0  0  0  0  0  0  0  0  0  0  0  0
    2.3588   -2.3536    0.4706 C   0  0  0  0  0  0  0  0  0  0  0  0
    0.1192    1.4826   -0.1785 C   0  0  0  0  0  0  0  0  0  0  0  0
    0.6335    2.7672   -0.1269 C   0  0  0  0  0  0  0  0  0  0  0  0
   -2.3667   -1.8154   -0.6514 C   0  0  0  0  0  0  0  0  0  0  0  0
   -3.6736   -1.6358   -1.0443 C   0  0  0  0  0  0  0  0  0  0  0  0
   -4.5475   -2.6889   -1.2201 C   0  0  0  0  0  0  0  0  0  0  0  0
   -4.1386   -3.9857   -1.0051 C   0  0  0  0  0  0  0  0  0  0  0  0
   -4.9643   -5.0492   -1.1664 F   0  0  0  0  0  0  0  0  0  0  0  0
   -2.8184   -4.1769   -0.6074 C   0  0  0  0  0  0  0  0  0  0  0  0
   -1.9501   -3.1129   -0.4341 C   0  0  0  0  0  0  0  0  0  0  0  0
   -2.3883   -5.5899   -0.3792 C   0  0  0  0  0  0  0  0  0  0  0  0
   -2.5416   -6.3133   -1.5681 F   0  0  0  0  0  0  0  0  0  0  0  0
   -1.0483   -5.5904   -0.0962 F   0  0  0  0  0  0  0  0  0  0  0  0
   -3.1573   -6.0986    0.6235 F   0  0  0  0  0  0  0  0  0  0  0  0
   -1.9823    8.5805    0.6431 H   0  0  0  0  0  0  0  0  0  0  0  0
   -2.4363    8.5133   -1.0727 H   0  0  0  0  0  0  0  0  0  0  0  0
   -0.9270    9.3521   -0.6682 H   0  0  0  0  0  0  0  0  0  0  0  0
   -2.2814    5.7670   -0.0311 H   0  0  0  0  0  0  0  0  0  0  0  0
    1.8104    5.4673   -1.1751 H   0  0  0  0  0  0  0  0  0  0  0  0
   -2.4309    3.3356   -1.0557 H   0  0  0  0  0  0  0  0  0  0  0  0
    2.4999    1.0556    0.5711 H   0  0  0  0  0  0  0  0  0  0  0  0
    4.2823    0.0838    1.6598 H   0  0  0  0  0  0  0  0  0  0  0  0
    5.7153   -1.8901    2.2169 H   0  0  0  0  0  0  0  0  0  0  0  0
    4.2062   -6.4885    1.1307 H   0  0  0  0  0  0  0  0  0  0  0  0
    4.7638   -5.4079   -0.2710 H   0  0  0  0  0  0  0  0  0  0  0  0
    1.4355   -2.5423   -0.0264 H   0  0  0  0  0  0  0  0  0  0  0  0
    1.6675    2.9995    0.1545 H   0  0  0  0  0  0  0  0  0  0  0  0
   -4.0121   -0.6104   -1.2186 H   0  0  0  0  0  0  0  0  0  0  0  0
   -5.5625   -2.5152   -1.5277 H   0  0  0  0  0  0  0  0  0  0  0  0
   -0.9156   -3.2938   -0.1204 H   0  0  0  0  0  0  0  0  0  0  0  0
  1  2  1  0
  2  3  1  0
  3  4  2  0
  4  5  1  0
  5  6  2  0
  4  7  1  0
  7  8  2  0
  8  9  1  0
  9 10  1  0
 10 11  2  0
 11 12  1  0
 12 13  2  0
 13 14  1  0
 14 15  1  0
 15 16  2  0
 16 17  1  0
 17 18  2  0
 18 19  1  0
 19 20  1  0
 20 21  1  0
 21 22  1  0
 22 23  2  0
 13 24  1  0
 24 25  2  0
 11 26  1  0
 26 27  2  0
 27 28  1  0
 28 29  2  0
 29 30  1  0
 29 31  1  0
 31 32  2  0
 31 33  1  0
 33 34  1  0
 33 35  1  0
 33 36  1  0
  6  2  1  0
 25  7  1  0
 32 26  1  0
 24  9  1  0
 23 15  1  0
 22 18  1  0
  1 37  1  0
  1 38  1  0
  1 39  1  0
  3 40  1  0
  5 41  1  0
  8 42  1  0
 14 43  1  0
 16 44  1  0
 17 45  1  0
 20 46  1  0
 20 47  1  0
 23 48  1  0
 25 49  1  0
 27 50  1  0
 28 51  1  0
 32 52  1  0
M  END
$$$$
[H]c1nc(N([H])C2([H])C([H])([H])C([H])([H])N(C(F)(F)F)C([H])([H])C2([H])[H])nc(-c2c([H])c([H])nc([H])c2[H])c1[H]
     RDKit          3D

 39 41  0  0  0  0  0  0  0  0999 V2000
    5.7452    2.0810   -0.5732 F   0  0  0  0  0  0  0  0  0  0  0  0
    4.8871    1.1174   -1.0481 C   0  0  0  0  0  0  0  0  0  0  0  0
    5.5082   -0.1021   -0.8879 F   0  0  0  0  0  0  0  0  0  0  0  0
    4.7128    1.3497   -2.3987 F   0  0  0  0  0  0  0  0  0  0  0  0
    3.6391    1.2275   -0.3968 N   0  0  0  0  0  0  0  0  0  0  0  0
    3.6297    1.0768    1.0110 C   0  0  0  0  0  0  0  0  0  0  0  0
    2.9235   -0.1797    1.4319 C   0  0  0  0  0  0  0  0  0  0  0  0
    1.4836   -0.1077    0.9728 C   0  0  0  0  0  0  0  0  0  0  0  0
    1.5482   -0.0925   -0.5464 C   0  0  0  0  0  0  0  0  0  0  0  0
    2.4870    0.9071   -1.1112 C   0  0  0  0  0  0  0  0  0  0  0  0
    0.8364   -1.3430    1.3567 N   0  0  0  0  0  0  0  0  0  0  0  0
   -0.5445   -1.5920    1.1174 C   0  0  0  0  0  0  0  0  0  0  0  0
   -1.0487   -2.7730    1.5100 N   0  0  0  0  0  0  0  0  0  0  0  0
   -2.3318   -3.1214    1.3432 C   0  0  0  0  0  0  0  0  0  0  0  0
   -3.1536   -2.1709    0.7215 C   0  0  0  0  0  0  0  0  0  0  0  0
   -2.6631   -0.9613    0.3129 C   0  0  0  0  0  0  0  0  0  0  0  0
   -1.3412   -0.7173    0.5351 N   0  0  0  0  0  0  0  0  0  0  0  0
   -3.5047    0.0405   -0.3362 C   0  0  0  0  0  0  0  0  0  0  0  0
   -4.8399   -0.1451   -0.5874 C   0  0  0  0  0  0  0  0  0  0  0  0
   -5.6297    0.8079   -1.2022 C   0  0  0  0  0  0  0  0  0  0  0  0
   -5.0663    1.9632   -1.5689 N   0  0  0  0  0  0  0  0  0  0  0  0
   -3.7547    2.1922   -1.3426 C   0  0  0  0  0  0  0  0  0  0  0  0
   -2.9505    1.2617   -0.7341 C   0  0  0  0  0  0  0  0  0  0  0  0
    4.6728    1.0674    1.3907 H   0  0  0  0  0  0  0  0  0  0  0  0
    3.0411    1.9321    1.4444 H   0  0  0  0  0  0  0  0  0  0  0  0
    3.3882   -1.0178    0.8341 H   0  0  0  0  0  0  0  0  0  0  0  0
    3.0277   -0.3696    2.5090 H   0  0  0  0  0  0  0  0  0  0  0  0
    0.9605    0.7837    1.3659 H   0  0  0  0  0  0  0  0  0  0  0  0
    0.5585    0.0658   -1.0069 H   0  0  0  0  0  0  0  0  0  0  0  0
    1.8686   -1.1208   -0.8604 H   0  0  0  0  0  0  0  0  0  0  0  0
    1.9034    1.8484   -1.3149 H   0  0  0  0  0  0  0  0  0  0  0  0
    2.7796    0.5497   -2.1416 H   0  0  0  0  0  0  0  0  0  0  0  0
    1.4259   -2.0664    1.8264 H   0  0  0  0  0  0  0  0  0  0  0  0
   -2.7236   -4.0734    1.6634 H   0  0  0  0  0  0  0  0  0  0  0  0
   -4.1739   -2.4401    0.5855 H   0  0  0  0  0  0  0  0  0  0  0  0
   -5.3313   -1.0907   -0.2948 H   0  0  0  0  0  0  0  0  0  0  0  0
   -6.6887    0.5988   -1.3742 H   0  0  0  0  0  0  0  0  0  0  0  0
   -3.3769    3.1560   -1.6715 H   0  0  0  0  0  0  0  0  0  0  0  0
   -1.9039    1.4578   -0.5595 H   0  0  0  0  0  0  0  0  0  0  0  0
  1  2  1  0
  2  3  1  0
  2  4  1  0
  2  5  1  0
  5  6  1  0
  6  7  1  0
  7  8  1  0
  8  9  1  0
  9 10  1  0
  8 11  1  0
 11 12  1  0
 12 13  2  0
 13 14  1  0
 14 15  2  0
 15 16  1  0
 16 17  2  0
 16 18  1  0
 18 19  2  0
 19 20  1  0
 20 21  2  0
 21 22  1  0
 22 23  2  0
 10  5  1  0
 17 12  1  0
 23 18  1  0
  6 24  1  0
  6 25  1  0
  7 26  1  0
  7 27  1  0
  8 28  1  0
  9 29  1  0
  9 30  1  0
 10 31  1  0
 10 32  1  0
 11 33  1  0
 14 34  1  0
 15 35  1  0
 19 36  1  0
 20 37  1  0
 22 38  1  0
 23 39  1  0
M  END
$$$$
[H]c1nc(N([H])[H])c(N2C([H])([H])C([H])([H])[C@]([H])(N([H])[H])[C@@]2([H])C([H])([H])[H])nc1-c1c([H])c([H])c(F)c(C(F)(F)F)c1[H]
     RDKit          3D

 42 44  0  0  0  0  0  0  0  0999 V2000
   -5.1396    0.8692   -1.1151 N   0  0  0  0  0  0  0  0  0  0  0  0
   -4.1808    0.2208   -0.2491 C   0  0  1  0  0  0  0  0  0  0  0  0
   -4.3387   -1.2846   -0.3096 C   0  0  0  0  0  0  0  0  0  0  0  0
   -2.9389   -1.8034   -0.0524 C   0  0  0  0  0  0  0  0  0  0  0  0
   -2.0751   -0.6508    0.0080 N   0  0  0  0  0  0  0  0  0  0  0  0
   -2.7671    0.3892   -0.7380 C   0  0  2  0  0  0  0  0  0  0  0  0
   -2.2119    1.7573   -0.4349 C   0  0  0  0  0  0  0  0  0  0  0  0
   -0.8120   -0.5750    0.6686 C   0  0  0  0  0  0  0  0  0  0  0  0
    0.3142   -0.2971   -0.0089 N   0  0  0  0  0  0  0  0  0  0  0  0
    1.5145   -0.2181    0.5720 C   0  0  0  0  0  0  0  0  0  0  0  0
    1.5771   -0.4334    1.9189 C   0  0  0  0  0  0  0  0  0  0  0  0
    0.4740   -0.7172    2.6514 N   0  0  0  0  0  0  0  0  0  0  0  0
   -0.7091   -0.7863    2.0269 C   0  0  0  0  0  0  0  0  0  0  0  0
   -1.8763   -1.0854    2.8001 N   0  0  0  0  0  0  0  0  0  0  0  0
    2.7115    0.0841   -0.1888 C   0  0  0  0  0  0  0  0  0  0  0  0
    2.5834    0.2934   -1.5566 C   0  0  0  0  0  0  0  0  0  0  0  0
    3.6680    0.5796   -2.3202 C   0  0  0  0  0  0  0  0  0  0  0  0
    4.9377    0.6722   -1.7599 C   0  0  0  0  0  0  0  0  0  0  0  0
    5.9785    0.9630   -2.5894 F   0  0  0  0  0  0  0  0  0  0  0  0
    5.0891    0.4696   -0.4114 C   0  0  0  0  0  0  0  0  0  0  0  0
    3.9608    0.1802    0.3330 C   0  0  0  0  0  0  0  0  0  0  0  0
    6.4423    0.5696    0.1785 C   0  0  0  0  0  0  0  0  0  0  0  0
    6.9620    1.8321   -0.0345 F   0  0  0  0  0  0  0  0  0  0  0  0
    7.2236   -0.4258   -0.3430 F   0  0  0  0  0  0  0  0  0  0  0  0
    6.3003    0.3212    1.5468 F   0  0  0  0  0  0  0  0  0  0  0  0
   -5.5459    1.6664   -0.6046 H   0  0  0  0  0  0  0  0  0  0  0  0
   -5.9042    0.1856   -1.3005 H   0  0  0  0  0  0  0  0  0  0  0  0
   -4.2973    0.5111    0.8093 H   0  0  0  0  0  0  0  0  0  0  0  0
   -5.0766   -1.6615    0.4229 H   0  0  0  0  0  0  0  0  0  0  0  0
   -4.6472   -1.5177   -1.3672 H   0  0  0  0  0  0  0  0  0  0  0  0
   -2.9526   -2.4140    0.8571 H   0  0  0  0  0  0  0  0  0  0  0  0
   -2.5964   -2.3980   -0.9456 H   0  0  0  0  0  0  0  0  0  0  0  0
   -2.7106    0.1933   -1.8058 H   0  0  0  0  0  0  0  0  0  0  0  0
   -2.7049    2.4636   -1.1470 H   0  0  0  0  0  0  0  0  0  0  0  0
   -1.1346    1.7417   -0.7096 H   0  0  0  0  0  0  0  0  0  0  0  0
   -2.3442    2.0533    0.6133 H   0  0  0  0  0  0  0  0  0  0  0  0
    2.5154   -0.3867    2.4627 H   0  0  0  0  0  0  0  0  0  0  0  0
   -1.9989   -2.0435    3.1348 H   0  0  0  0  0  0  0  0  0  0  0  0
   -2.5340   -0.3032    2.9758 H   0  0  0  0  0  0  0  0  0  0  0  0
    1.5843    0.2207   -1.9988 H   0  0  0  0  0  0  0  0  0  0  0  0
    3.5407    0.7380   -3.3823 H   0  0  0  0  0  0  0  0  0  0  0  0
    4.1193    0.0267    1.3932 H   0  0  0  0  0  0  0  0  0  0  0  0
  1  2  1  0
  2  3  1  0
  3  4  1  0
  4  5  1  0
  5  6  1  0
  6  7  1  0
  5  8  1  0
  8  9  2  0
  9 10  1  0
 10 11  2  0
 11 12  1  0
 12 13  2  0
 13 14  1  0
 10 15  1  0
 15 16  2  0
 16 17  1  0
 17 18  2  0
 18 19  1  0
 18 20  1  0
 20 21  2  0
 20 22  1  0
 22 23  1  0
 22 24  1  0
 22 25  1  0
  6  2  1  0
 13  8  1  0
 21 15  1  0
  1 26  1  0
  1 27  1  0
  2 28  1  1
  3 29  1  0
  3 30  1  0
  4 31  1  0
  4 32  1  0
  6 33  1  6
  7 34  1  0
  7 35  1  0
  7 36  1  0
 11 37  1  0
 14 38  1  0
 14 39  1  0
 16 40  1  0
 17 41  1  0
 21 42  1  0
M  END
$$$$
[H]c1c([H])c([H])c2c(c1C([H])([H])C([H])([H])N(C([H])([H])C([H])([H])C([H])([H])[H])C1([H])C([H])([H])C([H])([H])C1([H])[H])c1c([H])c(F)c([H])c([H])c1n2[H]
     RDKit          3D

 49 52  0  0  0  0  0  0  0  0999 V2000
    1.5997    3.5782   -0.9870 C   0  0  0  0  0  0  0  0  0  0  0  0
    1.6139    2.3892   -0.0347 C   0  0  0  0  0  0  0  0  0  0  0  0
    1.8495    1.1501   -0.9312 C   0  0  0  0  0  0  0  0  0  0  0  0
    1.9329    0.0356   -0.1397 N   0  0  0  0  0  0  0  0  0  0  0  0
    0.9535   -0.6302    0.5597 C   0  0  0  0  0  0  0  0  0  0  0  0
   -0.0669   -1.4628   -0.0992 C   0  0  0  0  0  0  0  0  0  0  0  0
   -1.0688   -0.9542   -0.9990 C   0  0  0  0  0  0  0  0  0  0  0  0
   -0.8498   -0.9317   -2.3980 C   0  0  0  0  0  0  0  0  0  0  0  0
   -1.7555   -0.4509   -3.3031 C   0  0  0  0  0  0  0  0  0  0  0  0
   -2.9629    0.0534   -2.8547 C   0  0  0  0  0  0  0  0  0  0  0  0
   -3.2120    0.0489   -1.5040 C   0  0  0  0  0  0  0  0  0  0  0  0
   -4.3230    0.4480   -0.8479 N   0  0  0  0  0  0  0  0  0  0  0  0
   -4.1343    0.2194    0.4657 C   0  0  0  0  0  0  0  0  0  0  0  0
   -5.0040    0.4439    1.5148 C   0  0  0  0  0  0  0  0  0  0  0  0
   -4.5939    0.1029    2.7889 C   0  0  0  0  0  0  0  0  0  0  0  0
   -3.3422   -0.4437    2.9462 C   0  0  0  0  0  0  0  0  0  0  0  0
   -3.0108   -0.7736    4.2405 F   0  0  0  0  0  0  0  0  0  0  0  0
   -2.4546   -0.6769    1.8983 C   0  0  0  0  0  0  0  0  0  0  0  0
   -2.8808   -0.3312    0.6426 C   0  0  0  0  0  0  0  0  0  0  0  0
   -2.2747   -0.4505   -0.5831 C   0  0  0  0  0  0  0  0  0  0  0  0
    3.2890   -0.4437    0.0811 C   0  0  0  0  0  0  0  0  0  0  0  0
    3.5280   -1.8894   -0.1027 C   0  0  0  0  0  0  0  0  0  0  0  0
    4.4044   -1.8600    1.1422 C   0  0  0  0  0  0  0  0  0  0  0  0
    3.7943   -0.5166    1.4646 C   0  0  0  0  0  0  0  0  0  0  0  0
    0.7386    3.4664   -1.6566 H   0  0  0  0  0  0  0  0  0  0  0  0
    2.5230    3.4791   -1.6279 H   0  0  0  0  0  0  0  0  0  0  0  0
    1.6184    4.5536   -0.4414 H   0  0  0  0  0  0  0  0  0  0  0  0
    0.6781    2.2249    0.4942 H   0  0  0  0  0  0  0  0  0  0  0  0
    2.4977    2.4131    0.6275 H   0  0  0  0  0  0  0  0  0  0  0  0
    1.0791    1.1970   -1.7122 H   0  0  0  0  0  0  0  0  0  0  0  0
    2.8219    1.3111   -1.4759 H   0  0  0  0  0  0  0  0  0  0  0  0
    1.4744   -1.2910    1.3451 H   0  0  0  0  0  0  0  0  0  0  0  0
    0.4767    0.1478    1.2592 H   0  0  0  0  0  0  0  0  0  0  0  0
   -0.4476   -2.2985    0.5686 H   0  0  0  0  0  0  0  0  0  0  0  0
    0.5740   -2.1547   -0.7881 H   0  0  0  0  0  0  0  0  0  0  0  0
    0.0899   -1.3196   -2.7619 H   0  0  0  0  0  0  0  0  0  0  0  0
   -1.5327   -0.4669   -4.3801 H   0  0  0  0  0  0  0  0  0  0  0  0
   -3.6833    0.4400   -3.5747 H   0  0  0  0  0  0  0  0  0  0  0  0
   -5.1741    0.8576   -1.2944 H   0  0  0  0  0  0  0  0  0  0  0  0
   -5.9809    0.8670    1.3926 H   0  0  0  0  0  0  0  0  0  0  0  0
   -5.2621    0.2607    3.6590 H   0  0  0  0  0  0  0  0  0  0  0  0
   -1.5515   -1.0993    2.1751 H   0  0  0  0  0  0  0  0  0  0  0  0
    3.9742    0.1611   -0.5742 H   0  0  0  0  0  0  0  0  0  0  0  0
    4.0617   -2.1760   -1.0378 H   0  0  0  0  0  0  0  0  0  0  0  0
    2.6826   -2.5982    0.1197 H   0  0  0  0  0  0  0  0  0  0  0  0
    5.4704   -1.7204    0.8619 H   0  0  0  0  0  0  0  0  0  0  0  0
    4.2026   -2.6664    1.8758 H   0  0  0  0  0  0  0  0  0  0  0  0
    3.0612   -0.5186    2.3006 H   0  0  0  0  0  0  0  0  0  0  0  0
    4.5767    0.2760    1.6858 H   0  0  0  0  0  0  0  0  0  0  0  0
  1  2  1  0
  2  3  1  0
  3  4  1  0
  4  5  1  0
  5  6  1  0
  6  7  1  0
  7  8  2  0
  8  9  1  0
  9 10  2  0
 10 11  1  0
 11 12  1  0
 12 13  1  0
 13 14  2  0
 14 15  1  0
 15 16  2  0
 16 17  1  0
 16 18  1  0
 18 19  2  0
 19 20  1  0
  4 21  1  0
 21 22  1  0
 22 23  1  0
 23 24  1  0
 20  7  1  0
 24 21  1  0
 20 11  2  0
 19 13  1  0
  1 25  1  0
  1 26  1  0
  1 27  1  0
  2 28  1  0
  2 29  1  0
  3 30  1  0
  3 31  1  0
  5 32  1  0
  5 33  1  0
  6 34  1  0
  6 35  1  0
  8 36  1  0
  9 37  1  0
 10 38  1  0
 12 39  1  0
 14 40  1  0
 15 41  1  0
 18 42  1  0
 21 43  1  0
 22 44  1  0
 22 45  1  0
 23 46  1  0
 23 47  1  0
 24 48  1  0
 24 49  1  0
M  END
$$$$
[H]c1c([H])c([H])c(-c2c([H])c([H])c(OC([H])([H])C([H])(C(=O)N([H])c3c([H])c([H])c([H])c([H])c3[H])C([H])([H])[H])c([H])c2[H])c([H])c1[H]
     RDKit          3D

 46 48  0  0  0  0  0  0  0  0999 V2000
    0.6675   -0.6595    1.5578 C   0  0  0  0  0  0  0  0  0  0  0  0
    0.2689   -0.9376    0.2285 O   0  0  0  0  0  0  0  0  0  0  0  0
   -1.0854   -0.8281   -0.0642 C   0  0  0  0  0  0  0  0  0  0  0  0
   -1.5589   -1.0837   -1.3396 C   0  0  0  0  0  0  0  0  0  0  0  0
   -2.8889   -0.9870   -1.6705 C   0  0  0  0  0  0  0  0  0  0  0  0
   -3.8263   -0.6247   -0.7302 C   0  0  0  0  0  0  0  0  0  0  0  0
   -3.3570   -0.3685    0.5454 C   0  0  0  0  0  0  0  0  0  0  0  0
   -2.0247   -0.4626    0.8880 C   0  0  0  0  0  0  0  0  0  0  0  0
   -5.2501   -0.5138   -1.0534 C   0  0  0  0  0  0  0  0  0  0  0  0
   -6.1759   -0.7857   -0.0939 C   0  0  0  0  0  0  0  0  0  0  0  0
   -7.5226   -0.6779   -0.4134 C   0  0  0  0  0  0  0  0  0  0  0  0
   -7.8928   -0.3051   -1.6701 C   0  0  0  0  0  0  0  0  0  0  0  0
   -6.9319   -0.0340   -2.6277 C   0  0  0  0  0  0  0  0  0  0  0  0
   -5.5901   -0.1356   -2.3294 C   0  0  0  0  0  0  0  0  0  0  0  0
    2.1535   -0.8122    1.7461 C   0  0  0  0  0  0  0  0  0  0  0  0
    2.4587   -0.4926    3.1973 C   0  0  0  0  0  0  0  0  0  0  0  0
    2.9110    0.1463    0.8752 C   0  0  0  0  0  0  0  0  0  0  0  0
    2.2596    0.9209    0.1536 O   0  0  0  0  0  0  0  0  0  0  0  0
    4.3026    0.1316    0.9083 N   0  0  0  0  0  0  0  0  0  0  0  0
    5.1730    0.9509    0.1582 C   0  0  0  0  0  0  0  0  0  0  0  0
    6.5016    1.0154    0.6167 C   0  0  0  0  0  0  0  0  0  0  0  0
    7.4148    1.7731   -0.0657 C   0  0  0  0  0  0  0  0  0  0  0  0
    7.0142    2.4654   -1.1990 C   0  0  0  0  0  0  0  0  0  0  0  0
    5.7323    2.4154   -1.6589 C   0  0  0  0  0  0  0  0  0  0  0  0
    4.8085    1.6454   -0.9643 C   0  0  0  0  0  0  0  0  0  0  0  0
    0.3006    0.3343    1.8791 H   0  0  0  0  0  0  0  0  0  0  0  0
    0.1820   -1.4163    2.2107 H   0  0  0  0  0  0  0  0  0  0  0  0
   -0.7968   -1.3711   -2.0755 H   0  0  0  0  0  0  0  0  0  0  0  0
   -3.2295   -1.1917   -2.6697 H   0  0  0  0  0  0  0  0  0  0  0  0
   -4.0970   -0.0819    1.2925 H   0  0  0  0  0  0  0  0  0  0  0  0
   -1.6808   -0.2584    1.8873 H   0  0  0  0  0  0  0  0  0  0  0  0
   -5.9444   -1.0865    0.9211 H   0  0  0  0  0  0  0  0  0  0  0  0
   -8.2858   -0.8829    0.3126 H   0  0  0  0  0  0  0  0  0  0  0  0
   -8.9249   -0.2078   -1.9653 H   0  0  0  0  0  0  0  0  0  0  0  0
   -7.2025    0.2616   -3.6260 H   0  0  0  0  0  0  0  0  0  0  0  0
   -4.8097    0.0707   -3.0589 H   0  0  0  0  0  0  0  0  0  0  0  0
    2.4509   -1.8285    1.4862 H   0  0  0  0  0  0  0  0  0  0  0  0
    3.5554   -0.5268    3.3996 H   0  0  0  0  0  0  0  0  0  0  0  0
    1.9111   -1.2436    3.8129 H   0  0  0  0  0  0  0  0  0  0  0  0
    2.1194    0.5210    3.4695 H   0  0  0  0  0  0  0  0  0  0  0  0
    4.7306   -0.5982    1.5845 H   0  0  0  0  0  0  0  0  0  0  0  0
    6.7699    0.4743    1.4862 H   0  0  0  0  0  0  0  0  0  0  0  0
    8.4365    1.8201    0.2901 H   0  0  0  0  0  0  0  0  0  0  0  0
    7.7600    3.0668   -1.7319 H   0  0  0  0  0  0  0  0  0  0  0  0
    5.3968    2.9473   -2.5410 H   0  0  0  0  0  0  0  0  0  0  0  0
    3.7965    1.6112   -1.3583 H   0  0  0  0  0  0  0  0  0  0  0  0
  1  2  1  0
  2  3  1  0
  3  4  2  0
  4  5  1  0
  5  6  2  0
  6  7  1  0
  7  8  2  0
  6  9  1  0
  9 10  2  0
 10 11  1  0
 11 12  2  0
 12 13  1  0
 13 14  2  0
  1 15  1  0
 15 16  1  0
 15 17  1  0
 17 18  2  0
 17 19  1  0
 19 20  1  0
 20 21  2  0
 21 22  1  0
 22 23  2  0
 23 24  1  0
 24 25  2  0
  8  3  1  0
 14  9  1  0
 25 20  1  0
  1 26  1  0
  1 27  1  0
  4 28  1  0
  5 29  1  0
  7 30  1  0
  8 31  1  0
 10 32  1  0
 11 33  1  0
 12 34  1  0
 13 35  1  0
 14 36  1  0
 15 37  1  0
 16 38  1  0
 16 39  1  0
 16 40  1  0
 19 41  1  0
 21 42  1  0
 22 43  1  0
 23 44  1  0
 24 45  1  0
 25 46  1  0
M  END
$$$$
[H]c1c([H])c([H])c(C([H])([H])C2([H])N([H])C(=O)C([H])([H])N(C(=O)N([H])C3([H])C([H])([H])C3([H])[H])C([H])([H])C([H])([H])[C@]([H])(OC(=O)N([H])C([H])([H])c3c([H])c(N([H])C(=O)C4([H])C([H])([H])C4([H])[H])c(Cl)c([H])c3Br)C2([H])[H])c([H])c1[H]
     RDKit          3D

 77 81  0  0  0  0  0  0  0  0999 V2000
    5.0807    4.5798   -3.7357 Br  0  0  0  0  0  0  0  0  0  0  0  0
    5.1757    2.9487   -2.7517 C   0  0  0  0  0  0  0  0  0  0  0  0
    6.3783    2.5195   -2.2886 C   0  0  0  0  0  0  0  0  0  0  0  0
    6.4189    1.3490   -1.5862 C   0  0  0  0  0  0  0  0  0  0  0  0
    8.0123    0.8480   -1.0141 Cl  0  0  0  0  0  0  0  0  0  0  0  0
    5.2874    0.5828   -1.3273 C   0  0  0  0  0  0  0  0  0  0  0  0
    5.4505   -0.6049   -0.5896 N   0  0  0  0  0  0  0  0  0  0  0  0
    4.4944   -1.5356   -0.1840 C   0  0  0  0  0  0  0  0  0  0  0  0
    3.2910   -1.4450   -0.4292 O   0  0  0  0  0  0  0  0  0  0  0  0
    4.9385   -2.7317    0.6025 C   0  0  0  0  0  0  0  0  0  0  0  0
    6.2911   -3.2930    0.4103 C   0  0  0  0  0  0  0  0  0  0  0  0
    5.9750   -2.4759    1.6508 C   0  0  0  0  0  0  0  0  0  0  0  0
    4.0712    1.0576   -1.8203 C   0  0  0  0  0  0  0  0  0  0  0  0
    4.0009    2.2208   -2.5227 C   0  0  0  0  0  0  0  0  0  0  0  0
    2.7581    2.7429   -3.0795 C   0  0  0  0  0  0  0  0  0  0  0  0
    1.5594    2.0188   -2.7993 N   0  0  0  0  0  0  0  0  0  0  0  0
    1.0233    1.9394   -1.4976 C   0  0  0  0  0  0  0  0  0  0  0  0
    1.5901    2.5057   -0.5501 O   0  0  0  0  0  0  0  0  0  0  0  0
   -0.1330    1.2325   -1.2841 O   0  0  0  0  0  0  0  0  0  0  0  0
   -0.7466    1.0988   -0.0162 C   0  0  1  0  0  0  0  0  0  0  0  0
   -2.0037    1.9212   -0.0543 C   0  0  0  0  0  0  0  0  0  0  0  0
   -2.4450    2.2849    1.3355 C   0  0  0  0  0  0  0  0  0  0  0  0
   -3.4239    1.4113    1.8850 N   0  0  0  0  0  0  0  0  0  0  0  0
   -3.0665    0.3538    2.7736 C   0  0  0  0  0  0  0  0  0  0  0  0
   -3.0898   -1.0003    2.1877 C   0  0  0  0  0  0  0  0  0  0  0  0
   -3.1210   -1.9520    3.0549 O   0  0  0  0  0  0  0  0  0  0  0  0
   -3.0835   -1.3685    0.8471 N   0  0  0  0  0  0  0  0  0  0  0  0
   -2.0752   -1.0472   -0.1578 C   0  0  0  0  0  0  0  0  0  0  0  0
   -1.7281   -2.3143   -0.9099 C   0  0  0  0  0  0  0  0  0  0  0  0
   -1.1992   -3.4123   -0.0855 C   0  0  0  0  0  0  0  0  0  0  0  0
   -2.0837   -4.3062    0.4967 C   0  0  0  0  0  0  0  0  0  0  0  0
   -1.6568   -5.3637    1.2718 C   0  0  0  0  0  0  0  0  0  0  0  0
   -0.3143   -5.5748    1.4999 C   0  0  0  0  0  0  0  0  0  0  0  0
    0.5812   -4.7019    0.9328 C   0  0  0  0  0  0  0  0  0  0  0  0
    0.1250   -3.6373    0.1507 C   0  0  0  0  0  0  0  0  0  0  0  0
   -0.9073   -0.3232    0.3607 C   0  0  0  0  0  0  0  0  0  0  0  0
   -4.7890    1.5956    1.5452 C   0  0  0  0  0  0  0  0  0  0  0  0
   -5.6997    0.8502    1.9974 O   0  0  0  0  0  0  0  0  0  0  0  0
   -5.1802    2.6569    0.6592 N   0  0  0  0  0  0  0  0  0  0  0  0
   -6.5556    2.8886    0.2817 C   0  0  0  0  0  0  0  0  0  0  0  0
   -6.8468    3.5117   -1.0646 C   0  0  0  0  0  0  0  0  0  0  0  0
   -7.0408    4.2910    0.2149 C   0  0  0  0  0  0  0  0  0  0  0  0
    7.2893    3.1111   -2.4822 H   0  0  0  0  0  0  0  0  0  0  0  0
    6.4617   -0.8331   -0.2927 H   0  0  0  0  0  0  0  0  0  0  0  0
    4.1237   -3.4257    0.8753 H   0  0  0  0  0  0  0  0  0  0  0  0
    6.4248   -4.4018    0.5557 H   0  0  0  0  0  0  0  0  0  0  0  0
    7.0342   -2.7952   -0.2646 H   0  0  0  0  0  0  0  0  0  0  0  0
    5.8462   -3.0243    2.6112 H   0  0  0  0  0  0  0  0  0  0  0  0
    6.3521   -1.4405    1.7393 H   0  0  0  0  0  0  0  0  0  0  0  0
    3.1927    0.4664   -1.6451 H   0  0  0  0  0  0  0  0  0  0  0  0
    2.8328    2.8759   -4.2026 H   0  0  0  0  0  0  0  0  0  0  0  0
    2.6603    3.8243   -2.7379 H   0  0  0  0  0  0  0  0  0  0  0  0
    1.0631    1.5297   -3.5880 H   0  0  0  0  0  0  0  0  0  0  0  0
   -0.0874    1.6283    0.6959 H   0  0  0  0  0  0  0  0  0  0  0  0
   -1.6912    2.9094   -0.5186 H   0  0  0  0  0  0  0  0  0  0  0  0
   -2.7956    1.5548   -0.7000 H   0  0  0  0  0  0  0  0  0  0  0  0
   -2.7519    3.3707    1.3992 H   0  0  0  0  0  0  0  0  0  0  0  0
   -1.5229    2.2320    1.9899 H   0  0  0  0  0  0  0  0  0  0  0  0
   -3.8032    0.3469    3.6347 H   0  0  0  0  0  0  0  0  0  0  0  0
   -2.0872    0.4990    3.2902 H   0  0  0  0  0  0  0  0  0  0  0  0
   -3.9215   -1.9574    0.5265 H   0  0  0  0  0  0  0  0  0  0  0  0
   -2.6712   -0.4603   -0.9167 H   0  0  0  0  0  0  0  0  0  0  0  0
   -2.5734   -2.6441   -1.5619 H   0  0  0  0  0  0  0  0  0  0  0  0
   -0.9477   -1.9811   -1.6625 H   0  0  0  0  0  0  0  0  0  0  0  0
   -3.1626   -4.1996    0.3539 H   0  0  0  0  0  0  0  0  0  0  0  0
   -2.3536   -6.0703    1.7313 H   0  0  0  0  0  0  0  0  0  0  0  0
    0.0285   -6.4196    2.1202 H   0  0  0  0  0  0  0  0  0  0  0  0
    1.6482   -4.8165    1.0771 H   0  0  0  0  0  0  0  0  0  0  0  0
    0.8627   -2.9948   -0.2773 H   0  0  0  0  0  0  0  0  0  0  0  0
    0.0306   -0.8504    0.0189 H   0  0  0  0  0  0  0  0  0  0  0  0
   -0.8736   -0.4460    1.4652 H   0  0  0  0  0  0  0  0  0  0  0  0
   -4.4563    3.3071    0.2537 H   0  0  0  0  0  0  0  0  0  0  0  0
   -7.2907    2.1584    0.7107 H   0  0  0  0  0  0  0  0  0  0  0  0
   -7.7876    3.1673   -1.5797 H   0  0  0  0  0  0  0  0  0  0  0  0
   -5.9946    3.7604   -1.7288 H   0  0  0  0  0  0  0  0  0  0  0  0
   -6.3271    5.1449    0.3464 H   0  0  0  0  0  0  0  0  0  0  0  0
   -8.0651    4.5528    0.5394 H   0  0  0  0  0  0  0  0  0  0  0  0
  1  2  1  0
  2  3  2  0
  3  4  1  0
  4  5  1  0
  4  6  2  0
  6  7  1  0
  7  8  1  0
  8  9  2  0
  8 10  1  0
 10 11  1  0
 11 12  1  0
  6 13  1  0
 13 14  2  0
 14 15  1  0
 15 16  1  0
 16 17  1  0
 17 18  2  0
 17 19  1  0
 19 20  1  0
 20 21  1  0
 21 22  1  0
 22 23  1  0
 23 24  1  0
 24 25  1  0
 25 26  2  0
 25 27  1  0
 27 28  1  0
 28 29  1  0
 29 30  1  0
 30 31  2  0
 31 32  1  0
 32 33  2  0
 33 34  1  0
 34 35  2  0
 28 36  1  0
 23 37  1  0
 37 38  2  0
 37 39  1  0
 39 40  1  0
 40 41  1  0
 41 42  1  0
 14  2  1  0
 36 20  1  0
 42 40  1  0
 12 10  1  0
 35 30  1  0
  3 43  1  0
  7 44  1  0
 10 45  1  0
 11 46  1  0
 11 47  1  0
 12 48  1  0
 12 49  1  0
 13 50  1  0
 15 51  1  0
 15 52  1  0
 16 53  1  0
 20 54  1  1
 21 55  1  0
 21 56  1  0
 22 57  1  0
 22 58  1  0
 24 59  1  0
 24 60  1  0
 27 61  1  0
 28 62  1  0
 29 63  1  0
 29 64  1  0
 31 65  1  0
 32 66  1  0
 33 67  1  0
 34 68  1  0
 35 69  1  0
 36 70  1  0
 36 71  1  0
 39 72  1  0
 40 73  1  0
 41 74  1  0
 41 75  1  0
 42 76  1  0
 42 77  1  0
M  END
$$$$
[H]c1c(C([H])([H])[H])nc(C([H])([H])[H])c([H])c1-c1c([H])c([H])c(-c2c([H])c(N([H])C(=O)C3([H])C([H])([H])C3([H])[H])c3c([H])c([H])c([H])c([H])c3c2-c2c([H])c([H])c(S(=O)(=O)C([H])([H])C(C([H])([H])[H])(C([H])([H])[H])C([H])([H])[H])c([H])c2[H])c(Cl)c1Cl
     RDKit          3D

 82 87  0  0  0  0  0  0  0  0999 V2000
   -1.6668   -6.6741    1.1147 C   0  0  0  0  0  0  0  0  0  0  0  0
   -2.1385   -5.6230    0.1793 C   0  0  0  0  0  0  0  0  0  0  0  0
   -1.8291   -4.2762    0.3982 C   0  0  0  0  0  0  0  0  0  0  0  0
   -2.2869   -3.3375   -0.4976 C   0  0  0  0  0  0  0  0  0  0  0  0
   -3.0337   -3.8019   -1.5701 C   0  0  0  0  0  0  0  0  0  0  0  0
   -3.3386   -5.1264   -1.7865 C   0  0  0  0  0  0  0  0  0  0  0  0
   -4.1607   -5.5541   -2.9759 C   0  0  0  0  0  0  0  0  0  0  0  0
   -2.8739   -6.0183   -0.8887 N   0  0  0  0  0  0  0  0  0  0  0  0
   -2.0094   -1.9218   -0.3139 C   0  0  0  0  0  0  0  0  0  0  0  0
   -1.5160   -1.1683   -1.3572 C   0  0  0  0  0  0  0  0  0  0  0  0
   -1.2356    0.1728   -1.2465 C   0  0  0  0  0  0  0  0  0  0  0  0
   -1.4425    0.8343   -0.0552 C   0  0  0  0  0  0  0  0  0  0  0  0
   -1.9350    0.1008    1.0041 C   0  0  0  0  0  0  0  0  0  0  0  0
   -2.2291    0.8696    2.5741 Cl  0  0  0  0  0  0  0  0  0  0  0  0
   -2.2134   -1.2555    0.8742 C   0  0  0  0  0  0  0  0  0  0  0  0
   -2.8391   -2.1157    2.2564 Cl  0  0  0  0  0  0  0  0  0  0  0  0
   -1.1842    2.2267    0.1500 C   0  0  0  0  0  0  0  0  0  0  0  0
   -2.2556    3.1301    0.2124 C   0  0  0  0  0  0  0  0  0  0  0  0
   -2.0897    4.4889    0.3862 C   0  0  0  0  0  0  0  0  0  0  0  0
   -3.1558    5.4162    0.4610 N   0  0  0  0  0  0  0  0  0  0  0  0
   -4.5283    5.1572    0.3976 C   0  0  0  0  0  0  0  0  0  0  0  0
   -5.0177    4.0344    0.2584 O   0  0  0  0  0  0  0  0  0  0  0  0
   -5.4588    6.3403    0.5098 C   0  0  0  0  0  0  0  0  0  0  0  0
   -5.0133    7.4273    1.4891 C   0  0  0  0  0  0  0  0  0  0  0  0
   -4.9696    7.6812    0.0186 C   0  0  0  0  0  0  0  0  0  0  0  0
   -0.7684    4.9532    0.5017 C   0  0  0  0  0  0  0  0  0  0  0  0
   -0.4470    6.2764    0.6778 C   0  0  0  0  0  0  0  0  0  0  0  0
    0.8936    6.6664    0.7856 C   0  0  0  0  0  0  0  0  0  0  0  0
    1.9240    5.7762    0.7241 C   0  0  0  0  0  0  0  0  0  0  0  0
    1.6188    4.4507    0.5490 C   0  0  0  0  0  0  0  0  0  0  0  0
    0.3002    4.0483    0.4394 C   0  0  0  0  0  0  0  0  0  0  0  0
    0.0891    2.6916    0.2645 C   0  0  0  0  0  0  0  0  0  0  0  0
    1.1917    1.7413    0.2334 C   0  0  0  0  0  0  0  0  0  0  0  0
    1.5253    0.9985    1.3570 C   0  0  0  0  0  0  0  0  0  0  0  0
    2.5675    0.1075    1.3011 C   0  0  0  0  0  0  0  0  0  0  0  0
    3.3219   -0.0913    0.1469 C   0  0  0  0  0  0  0  0  0  0  0  0
    4.6601   -1.2466    0.1665 S   0  0  0  0  0  0  0  0  0  0  0  0
    5.6386   -0.7728   -0.8764 O   0  0  0  0  0  0  0  0  0  0  0  0
    5.2767   -1.1458    1.5268 O   0  0  0  0  0  0  0  0  0  0  0  0
    4.0071   -2.8317   -0.1914 C   0  0  0  0  0  0  0  0  0  0  0  0
    5.0163   -3.9347   -0.2057 C   0  0  0  0  0  0  0  0  0  0  0  0
    4.2347   -5.2160   -0.5323 C   0  0  0  0  0  0  0  0  0  0  0  0
    5.6498   -4.1789    1.1364 C   0  0  0  0  0  0  0  0  0  0  0  0
    6.0619   -3.7846   -1.2891 C   0  0  0  0  0  0  0  0  0  0  0  0
    2.9739    0.6500   -0.9435 C   0  0  0  0  0  0  0  0  0  0  0  0
    1.9163    1.5606   -0.9019 C   0  0  0  0  0  0  0  0  0  0  0  0
   -0.5972   -6.4408    1.3842 H   0  0  0  0  0  0  0  0  0  0  0  0
   -2.2710   -6.7574    2.0179 H   0  0  0  0  0  0  0  0  0  0  0  0
   -1.6478   -7.6659    0.5784 H   0  0  0  0  0  0  0  0  0  0  0  0
   -1.2468   -4.0177    1.2512 H   0  0  0  0  0  0  0  0  0  0  0  0
   -3.3879   -3.0765   -2.2633 H   0  0  0  0  0  0  0  0  0  0  0  0
   -3.7046   -6.3734   -3.5288 H   0  0  0  0  0  0  0  0  0  0  0  0
   -5.2149   -5.7454   -2.6469 H   0  0  0  0  0  0  0  0  0  0  0  0
   -4.2259   -4.6813   -3.6585 H   0  0  0  0  0  0  0  0  0  0  0  0
   -1.3239   -1.6248   -2.3410 H   0  0  0  0  0  0  0  0  0  0  0  0
   -0.8504    0.7153   -2.1057 H   0  0  0  0  0  0  0  0  0  0  0  0
   -3.2489    2.7288    0.1182 H   0  0  0  0  0  0  0  0  0  0  0  0
   -2.8611    6.4428    0.5778 H   0  0  0  0  0  0  0  0  0  0  0  0
   -6.5352    6.1159    0.4522 H   0  0  0  0  0  0  0  0  0  0  0  0
   -4.0558    7.2638    1.9939 H   0  0  0  0  0  0  0  0  0  0  0  0
   -5.8130    7.8751    2.1082 H   0  0  0  0  0  0  0  0  0  0  0  0
   -5.7458    8.3416   -0.4502 H   0  0  0  0  0  0  0  0  0  0  0  0
   -4.0042    7.7203   -0.5175 H   0  0  0  0  0  0  0  0  0  0  0  0
   -1.2159    7.0344    0.7360 H   0  0  0  0  0  0  0  0  0  0  0  0
    1.0871    7.7216    0.9229 H   0  0  0  0  0  0  0  0  0  0  0  0
    2.9431    6.1155    0.8115 H   0  0  0  0  0  0  0  0  0  0  0  0
    2.4212    3.7042    0.5002 H   0  0  0  0  0  0  0  0  0  0  0  0
    0.9370    1.1573    2.2438 H   0  0  0  0  0  0  0  0  0  0  0  0
    2.8189   -0.4636    2.1752 H   0  0  0  0  0  0  0  0  0  0  0  0
    3.1630   -3.0478    0.4644 H   0  0  0  0  0  0  0  0  0  0  0  0
    3.5814   -2.7760   -1.2300 H   0  0  0  0  0  0  0  0  0  0  0  0
    3.6703   -5.4945    0.3930 H   0  0  0  0  0  0  0  0  0  0  0  0
    3.5050   -4.9659   -1.3047 H   0  0  0  0  0  0  0  0  0  0  0  0
    4.9042   -6.0288   -0.8680 H   0  0  0  0  0  0  0  0  0  0  0  0
    4.8731   -4.4043    1.8758 H   0  0  0  0  0  0  0  0  0  0  0  0
    6.3336   -3.3689    1.4421 H   0  0  0  0  0  0  0  0  0  0  0  0
    6.2731   -5.1004    1.0331 H   0  0  0  0  0  0  0  0  0  0  0  0
    6.5492   -4.7914   -1.4041 H   0  0  0  0  0  0  0  0  0  0  0  0
    5.5958   -3.4519   -2.2266 H   0  0  0  0  0  0  0  0  0  0  0  0
    6.8458   -3.0401   -1.0304 H   0  0  0  0  0  0  0  0  0  0  0  0
    3.5340    0.5245   -1.8551 H   0  0  0  0  0  0  0  0  0  0  0  0
    1.6836    2.1303   -1.8138 H   0  0  0  0  0  0  0  0  0  0  0  0
  1  2  1  0
  2  3  2  0
  3  4  1  0
  4  5  2  0
  5  6  1  0
  6  7  1  0
  6  8  2  0
  4  9  1  0
  9 10  2  0
 10 11  1  0
 11 12  2  0
 12 13  1  0
 13 14  1  0
 13 15  2  0
 15 16  1  0
 12 17  1  0
 17 18  2  0
 18 19  1  0
 19 20  1  0
 20 21  1  0
 21 22  2  0
 21 23  1  0
 23 24  1  0
 24 25  1  0
 19 26  2  0
 26 27  1  0
 27 28  2  0
 28 29  1  0
 29 30  2  0
 30 31  1  0
 31 32  2  0
 32 33  1  0
 33 34  2  0
 34 35  1  0
 35 36  2  0
 36 37  1  0
 37 38  2  0
 37 39  2  0
 37 40  1  0
 40 41  1  0
 41 42  1  0
 41 43  1  0
 41 44  1  0
 36 45  1  0
 45 46  2  0
  8  2  1  0
 15  9  1  0
 32 17  1  0
 46 33  1  0
 25 23  1  0
 31 26  1  0
  1 47  1  0
  1 48  1  0
  1 49  1  0
  3 50  1  0
  5 51  1  0
  7 52  1  0
  7 53  1  0
  7 54  1  0
 10 55  1  0
 11 56  1  0
 18 57  1  0
 20 58  1  0
 23 59  1  0
 24 60  1  0
 24 61  1  0
 25 62  1  0
 25 63  1  0
 27 64  1  0
 28 65  1  0
 29 66  1  0
 30 67  1  0
 34 68  1  0
 35 69  1  0
 40 70  1  0
 40 71  1  0
 42 72  1  0
 42 73  1  0
 42 74  1  0
 43 75  1  0
 43 76  1  0
 43 77  1  0
 44 78  1  0
 44 79  1  0
 44 80  1  0
 45 81  1  0
 46 82  1  0
M  END
$$$$
[H]OC([H])([H])C([H])([H])N([H])c1nc(N([H])c2c([H])c([H])c(N3C([H])([H])c4c(F)c([H])c([H])c([H])c4C([H])([H])C3([H])[H])c([H])c2OC([H])([H])[H])nc([H])c1Cl
     RDKit          3D

 54 57  0  0  0  0  0  0  0  0999 V2000
   -0.0105   -3.8974   -0.1836 C   0  0  0  0  0  0  0  0  0  0  0  0
    0.7547   -2.7052   -0.1563 O   0  0  0  0  0  0  0  0  0  0  0  0
    0.0902   -1.4752   -0.0766 C   0  0  0  0  0  0  0  0  0  0  0  0
   -1.2774   -1.4215   -0.0257 C   0  0  0  0  0  0  0  0  0  0  0  0
   -1.9671   -0.2443    0.0526 C   0  0  0  0  0  0  0  0  0  0  0  0
   -1.2494    0.9098    0.0799 C   0  0  0  0  0  0  0  0  0  0  0  0
    0.1490    0.8680    0.0284 C   0  0  0  0  0  0  0  0  0  0  0  0
    0.8622   -0.2962   -0.0500 C   0  0  0  0  0  0  0  0  0  0  0  0
    2.2526   -0.3915   -0.1036 N   0  0  0  0  0  0  0  0  0  0  0  0
    3.2294    0.6133   -0.0923 C   0  0  0  0  0  0  0  0  0  0  0  0
    2.9974    1.9275   -0.0241 N   0  0  0  0  0  0  0  0  0  0  0  0
    3.9269    2.8834   -0.0135 C   0  0  0  0  0  0  0  0  0  0  0  0
    5.2592    2.5308   -0.0768 C   0  0  0  0  0  0  0  0  0  0  0  0
    6.5306    3.7425   -0.0666 Cl  0  0  0  0  0  0  0  0  0  0  0  0
    5.5449    1.1820   -0.1484 C   0  0  0  0  0  0  0  0  0  0  0  0
    6.9150    0.7938   -0.2147 N   0  0  0  0  0  0  0  0  0  0  0  0
    7.3051   -0.5870   -0.2914 C   0  0  0  0  0  0  0  0  0  0  0  0
    8.7901   -0.7763   -0.3526 C   0  0  0  0  0  0  0  0  0  0  0  0
    9.4483   -0.2640    0.7524 O   0  0  0  0  0  0  0  0  0  0  0  0
    4.5556    0.2773   -0.1546 N   0  0  0  0  0  0  0  0  0  0  0  0
   -3.3944   -0.2003    0.1065 N   0  0  0  0  0  0  0  0  0  0  0  0
   -4.2353   -1.3551    0.1143 C   0  0  0  0  0  0  0  0  0  0  0  0
   -5.3046   -1.1936    1.2087 C   0  0  0  0  0  0  0  0  0  0  0  0
   -6.1627   -0.0315    0.8272 C   0  0  0  0  0  0  0  0  0  0  0  0
   -7.5297   -0.0754    0.9859 C   0  0  0  0  0  0  0  0  0  0  0  0
   -8.2608    1.0353    0.6063 C   0  0  0  0  0  0  0  0  0  0  0  0
   -7.6031    2.1272    0.0915 C   0  0  0  0  0  0  0  0  0  0  0  0
   -6.2450    2.1511   -0.0580 C   0  0  0  0  0  0  0  0  0  0  0  0
   -5.6573    3.2438   -0.5660 F   0  0  0  0  0  0  0  0  0  0  0  0
   -5.4985    1.0546    0.3143 C   0  0  0  0  0  0  0  0  0  0  0  0
   -4.0468    1.0930    0.1545 C   0  0  0  0  0  0  0  0  0  0  0  0
    0.6440   -4.7898   -0.1912 H   0  0  0  0  0  0  0  0  0  0  0  0
   -0.6651   -3.9461   -1.0830 H   0  0  0  0  0  0  0  0  0  0  0  0
   -0.6312   -3.9035    0.7513 H   0  0  0  0  0  0  0  0  0  0  0  0
   -1.7930   -2.3699   -0.0516 H   0  0  0  0  0  0  0  0  0  0  0  0
   -1.7813    1.8574    0.1420 H   0  0  0  0  0  0  0  0  0  0  0  0
    0.6254    1.8181    0.0550 H   0  0  0  0  0  0  0  0  0  0  0  0
    2.6591   -1.3919   -0.1635 H   0  0  0  0  0  0  0  0  0  0  0  0
    3.7041    3.9435    0.0427 H   0  0  0  0  0  0  0  0  0  0  0  0
    7.6375    1.5358   -0.2064 H   0  0  0  0  0  0  0  0  0  0  0  0
    6.8725   -1.0863   -1.1916 H   0  0  0  0  0  0  0  0  0  0  0  0
    6.9282   -1.1627    0.5807 H   0  0  0  0  0  0  0  0  0  0  0  0
    9.2209   -0.4157   -1.3134 H   0  0  0  0  0  0  0  0  0  0  0  0
    8.9776   -1.8816   -0.3453 H   0  0  0  0  0  0  0  0  0  0  0  0
    9.8214    0.6235    0.4644 H   0  0  0  0  0  0  0  0  0  0  0  0
   -4.8197   -1.3390   -0.8487 H   0  0  0  0  0  0  0  0  0  0  0  0
   -3.7722   -2.3127    0.3103 H   0  0  0  0  0  0  0  0  0  0  0  0
   -4.8635   -0.9782    2.1835 H   0  0  0  0  0  0  0  0  0  0  0  0
   -5.9334   -2.0955    1.1766 H   0  0  0  0  0  0  0  0  0  0  0  0
   -8.0086   -0.9480    1.3924 H   0  0  0  0  0  0  0  0  0  0  0  0
   -9.3364    1.0386    0.7157 H   0  0  0  0  0  0  0  0  0  0  0  0
   -8.1708    2.9905   -0.2037 H   0  0  0  0  0  0  0  0  0  0  0  0
   -3.6439    1.7278    0.9758 H   0  0  0  0  0  0  0  0  0  0  0  0
   -3.8403    1.5668   -0.8446 H   0  0  0  0  0  0  0  0  0  0  0  0
  1  2  1  0
  2  3  1  0
  3  4  2  0
  4  5  1  0
  5  6  2  0
  6  7  1  0
  7  8  2  0
  8  9  1  0
  9 10  1  0
 10 11  2  0
 11 12  1  0
 12 13  2  0
 13 14  1  0
 13 15  1  0
 15 16  1  0
 16 17  1  0
 17 18  1  0
 18 19  1  0
 15 20  2  0
  5 21  1  0
 21 22  1  0
 22 23  1  0
 23 24  1  0
 24 25  2  0
 25 26  1  0
 26 27  2  0
 27 28  1  0
 28 29  1  0
 28 30  2  0
 30 31  1  0
  8  3  1  0
 20 10  1  0
 31 21  1  0
 30 24  1  0
  1 32  1  0
  1 33  1  0
  1 34  1  0
  4 35  1  0
  6 36  1  0
  7 37  1  0
  9 38  1  0
 12 39  1  0
 16 40  1  0
 17 41  1  0
 17 42  1  0
 18 43  1  0
 18 44  1  0
 19 45  1  0
 22 46  1  0
 22 47  1  0
 23 48  1  0
 23 49  1  0
 25 50  1  0
 26 51  1  0
 27 52  1  0
 31 53  1  0
 31 54  1  0
M  END
$$$$
[H]C1=C(n2c([H])nc3c([H])c(OC([H])([H])[H])c(OC([H])([H])[H])c([H])c32)C([H])([H])N1c1c([H])c([H])c([H])c(-c2sc([H])c([H])c2[H])c1[H]
     RDKit          3D

 47 51  0  0  0  0  0  0  0  0999 V2000
    7.8183    1.8091   -1.3159 C   0  0  0  0  0  0  0  0  0  0  0  0
    6.9826    0.7425   -0.8801 O   0  0  0  0  0  0  0  0  0  0  0  0
    5.6148    0.9253   -0.8243 C   0  0  0  0  0  0  0  0  0  0  0  0
    4.9879    2.0947   -1.1687 C   0  0  0  0  0  0  0  0  0  0  0  0
    3.6123    2.2130   -1.0903 C   0  0  0  0  0  0  0  0  0  0  0  0
    2.7552    3.2125   -1.3569 N   0  0  0  0  0  0  0  0  0  0  0  0
    1.5135    2.7839   -1.1035 C   0  0  0  0  0  0  0  0  0  0  0  0
    1.5173    1.4945   -0.6644 N   0  0  0  0  0  0  0  0  0  0  0  0
    0.3821    0.7189   -0.3019 C   0  0  0  0  0  0  0  0  0  0  0  0
    0.0917   -0.4836    0.1332 C   0  0  0  0  0  0  0  0  0  0  0  0
   -1.3186   -0.2691    0.1818 N   0  0  0  0  0  0  0  0  0  0  0  0
   -1.0654    1.0598   -0.2932 C   0  0  0  0  0  0  0  0  0  0  0  0
   -2.4739   -0.9900    0.5275 C   0  0  0  0  0  0  0  0  0  0  0  0
   -2.3515   -2.2864    0.9601 C   0  0  0  0  0  0  0  0  0  0  0  0
   -3.4952   -2.9951    1.3005 C   0  0  0  0  0  0  0  0  0  0  0  0
   -4.7494   -2.4074    1.2074 C   0  0  0  0  0  0  0  0  0  0  0  0
   -4.8679   -1.1306    0.7812 C   0  0  0  0  0  0  0  0  0  0  0  0
   -3.7172   -0.4262    0.4416 C   0  0  0  0  0  0  0  0  0  0  0  0
   -6.1532   -0.4098    0.6452 C   0  0  0  0  0  0  0  0  0  0  0  0
   -7.4106   -0.8902    0.9173 C   0  0  0  0  0  0  0  0  0  0  0  0
   -8.4390   -0.0573    0.7209 C   0  0  0  0  0  0  0  0  0  0  0  0
   -8.1565    1.2008    0.2667 C   0  0  0  0  0  0  0  0  0  0  0  0
   -6.4583    1.1843    0.1266 S   0  0  0  0  0  0  0  0  0  0  0  0
    2.8298    1.1465   -0.6591 C   0  0  0  0  0  0  0  0  0  0  0  0
    3.4538   -0.0422   -0.3078 C   0  0  0  0  0  0  0  0  0  0  0  0
    4.8480   -0.1391   -0.3952 C   0  0  0  0  0  0  0  0  0  0  0  0
    5.4516   -1.3328   -0.0404 O   0  0  0  0  0  0  0  0  0  0  0  0
    4.6883   -2.4320    0.4003 C   0  0  0  0  0  0  0  0  0  0  0  0
    7.4652    2.2561   -2.2678 H   0  0  0  0  0  0  0  0  0  0  0  0
    7.8382    2.6283   -0.5660 H   0  0  0  0  0  0  0  0  0  0  0  0
    8.8509    1.4158   -1.5238 H   0  0  0  0  0  0  0  0  0  0  0  0
    5.5832    2.9458   -1.5103 H   0  0  0  0  0  0  0  0  0  0  0  0
    0.5899    3.3721   -1.2243 H   0  0  0  0  0  0  0  0  0  0  0  0
    0.6618   -1.3678    0.3855 H   0  0  0  0  0  0  0  0  0  0  0  0
   -1.4862    1.1840   -1.3287 H   0  0  0  0  0  0  0  0  0  0  0  0
   -1.3815    1.8058    0.4401 H   0  0  0  0  0  0  0  0  0  0  0  0
   -1.3878   -2.7962    1.0515 H   0  0  0  0  0  0  0  0  0  0  0  0
   -3.4698   -4.0120    1.6459 H   0  0  0  0  0  0  0  0  0  0  0  0
   -5.6509   -2.9517    1.4708 H   0  0  0  0  0  0  0  0  0  0  0  0
   -3.8089    0.5961    0.1001 H   0  0  0  0  0  0  0  0  0  0  0  0
   -7.5194   -1.9379    1.2847 H   0  0  0  0  0  0  0  0  0  0  0  0
   -9.4944   -0.3536    0.9127 H   0  0  0  0  0  0  0  0  0  0  0  0
   -8.8874    2.0022    0.0555 H   0  0  0  0  0  0  0  0  0  0  0  0
    2.8776   -0.8746    0.0256 H   0  0  0  0  0  0  0  0  0  0  0  0
    5.2924   -3.2529    0.7871 H   0  0  0  0  0  0  0  0  0  0  0  0
    3.9659   -2.1286    1.2094 H   0  0  0  0  0  0  0  0  0  0  0  0
    4.0705   -2.8253   -0.4306 H   0  0  0  0  0  0  0  0  0  0  0  0
  1  2  1  0
  2  3  1  0
  3  4  2  0
  4  5  1  0
  5  6  1  0
  6  7  2  0
  7  8  1  0
  8  9  1  0
  9 10  2  0
 10 11  1  0
 11 12  1  0
 11 13  1  0
 13 14  2  0
 14 15  1  0
 15 16  2  0
 16 17  1  0
 17 18  2  0
 17 19  1  0
 19 20  2  0
 20 21  1  0
 21 22  2  0
 22 23  1  0
  8 24  1  0
 24 25  1  0
 25 26  2  0
 26 27  1  0
 27 28  1  0
 26  3  1  0
 24  5  2  0
 12  9  1  0
 18 13  1  0
 23 19  1  0
  1 29  1  0
  1 30  1  0
  1 31  1  0
  4 32  1  0
  7 33  1  0
 10 34  1  0
 12 35  1  0
 12 36  1  0
 14 37  1  0
 15 38  1  0
 16 39  1  0
 18 40  1  0
 20 41  1  0
 21 42  1  0
 22 43  1  0
 25 44  1  0
 28 45  1  0
 28 46  1  0
 28 47  1  0
M  END
$$$$
[H]OC(=O)[C@@]([H])(N([H])C(=O)c1c([H])c([H])c(N([H])C([H])([H])C([H])([H])C([H])([H])C([H])([H])C([H])([H])C([H])([H])C([H])([H])C([H])([H])c2c([H])c([H])c(C([H])([H])[H])c(Cl)c2[H])c([H])c1[H])C([H])([H])C([H])([H])N1C([H])([H])C([H])([H])C([H])([H])C([H])(c2c([H])c([H])c(C#N)c(F)c2[H])[C@]1([H])O[H]
     RDKit          3D

 94 97  0  0  0  0  0  0  0  0999 V2000
   12.4341   -2.9174   -3.2164 C   0  0  0  0  0  0  0  0  0  0  0  0
   11.8288   -1.9540   -2.2336 C   0  0  0  0  0  0  0  0  0  0  0  0
   12.3171   -0.6706   -2.1320 C   0  0  0  0  0  0  0  0  0  0  0  0
   11.7572    0.2200   -1.2242 C   0  0  0  0  0  0  0  0  0  0  0  0
   10.7141   -0.1456   -0.4112 C   0  0  0  0  0  0  0  0  0  0  0  0
   10.1339    0.8120    0.5475 C   0  0  0  0  0  0  0  0  0  0  0  0
    9.0006    1.5853   -0.1033 C   0  0  0  0  0  0  0  0  0  0  0  0
    8.4027    2.5806    0.8598 C   0  0  0  0  0  0  0  0  0  0  0  0
    7.8243    1.9830    2.0946 C   0  0  0  0  0  0  0  0  0  0  0  0
    6.7068    1.0079    1.8813 C   0  0  0  0  0  0  0  0  0  0  0  0
    5.5297    1.5976    1.1855 C   0  0  0  0  0  0  0  0  0  0  0  0
    4.3884    0.6264    0.9748 C   0  0  0  0  0  0  0  0  0  0  0  0
    3.8814    0.1117    2.2779 C   0  0  0  0  0  0  0  0  0  0  0  0
    2.7869   -0.7898    2.2342 N   0  0  0  0  0  0  0  0  0  0  0  0
    1.4748   -0.3578    1.8563 C   0  0  0  0  0  0  0  0  0  0  0  0
    1.1519    0.9561    1.6120 C   0  0  0  0  0  0  0  0  0  0  0  0
   -0.1350    1.3390    1.2495 C   0  0  0  0  0  0  0  0  0  0  0  0
   -1.1014    0.3623    1.1379 C   0  0  0  0  0  0  0  0  0  0  0  0
   -0.8319   -0.9550    1.3701 C   0  0  0  0  0  0  0  0  0  0  0  0
    0.4427   -1.2917    1.7225 C   0  0  0  0  0  0  0  0  0  0  0  0
   -2.4694    0.7753    0.7472 C   0  0  0  0  0  0  0  0  0  0  0  0
   -3.4396    0.4903    1.4933 O   0  0  0  0  0  0  0  0  0  0  0  0
   -2.6847    1.4806   -0.4472 N   0  0  0  0  0  0  0  0  0  0  0  0
   -3.9595    1.9475   -0.9504 C   0  0  1  0  0  0  0  0  0  0  0  0
   -4.9123    0.8069   -1.0459 C   0  0  0  0  0  0  0  0  0  0  0  0
   -6.2850    1.1810   -1.6059 C   0  0  0  0  0  0  0  0  0  0  0  0
   -7.0735    0.0106   -1.6409 N   0  0  0  0  0  0  0  0  0  0  0  0
   -6.7508   -1.0272   -2.5228 C   0  0  0  0  0  0  0  0  0  0  0  0
   -7.8557   -2.0534   -2.6830 C   0  0  0  0  0  0  0  0  0  0  0  0
   -9.2167   -1.4629   -2.4795 C   0  0  0  0  0  0  0  0  0  0  0  0
   -9.3555   -0.5426   -1.3186 C   0  0  0  0  0  0  0  0  0  0  0  0
   -8.0411   -0.2073   -0.6481 C   0  0  2  0  0  0  0  0  0  0  0  0
   -8.2377    0.9154    0.1295 O   0  0  0  0  0  0  0  0  0  0  0  0
  -10.2485   -1.0659   -0.2528 C   0  0  0  0  0  0  0  0  0  0  0  0
  -11.3612   -0.3422    0.1173 C   0  0  0  0  0  0  0  0  0  0  0  0
  -12.2382   -0.7715    1.1043 C   0  0  0  0  0  0  0  0  0  0  0  0
  -12.0142   -1.9642    1.7574 C   0  0  0  0  0  0  0  0  0  0  0  0
  -12.9000   -2.4482    2.7913 C   0  0  0  0  0  0  0  0  0  0  0  0
  -13.6241   -2.8537    3.6137 N   0  0  0  0  0  0  0  0  0  0  0  0
  -10.8960   -2.6893    1.3827 C   0  0  0  0  0  0  0  0  0  0  0  0
  -10.6418   -3.8581    1.9937 F   0  0  0  0  0  0  0  0  0  0  0  0
  -10.0262   -2.2513    0.3958 C   0  0  0  0  0  0  0  0  0  0  0  0
   -4.4050    3.0191   -0.0345 C   0  0  0  0  0  0  0  0  0  0  0  0
   -5.5415    3.7608   -0.2216 O   0  0  0  0  0  0  0  0  0  0  0  0
   -3.7001    3.2989    1.0125 O   0  0  0  0  0  0  0  0  0  0  0  0
   10.2264   -1.4227   -0.5115 C   0  0  0  0  0  0  0  0  0  0  0  0
   10.7870   -2.3285   -1.4269 C   0  0  0  0  0  0  0  0  0  0  0  0
   10.1765   -3.9610   -1.5698 Cl  0  0  0  0  0  0  0  0  0  0  0  0
   13.0807   -2.3440   -3.8833 H   0  0  0  0  0  0  0  0  0  0  0  0
   11.5798   -3.2956   -3.8367 H   0  0  0  0  0  0  0  0  0  0  0  0
   12.9543   -3.7273   -2.6736 H   0  0  0  0  0  0  0  0  0  0  0  0
   13.1396   -0.3817   -2.7715 H   0  0  0  0  0  0  0  0  0  0  0  0
   12.1611    1.2278   -1.1616 H   0  0  0  0  0  0  0  0  0  0  0  0
    9.7124    0.2050    1.3829 H   0  0  0  0  0  0  0  0  0  0  0  0
   10.8969    1.4904    0.9859 H   0  0  0  0  0  0  0  0  0  0  0  0
    9.4311    2.1480   -0.9534 H   0  0  0  0  0  0  0  0  0  0  0  0
    8.2836    0.8555   -0.4950 H   0  0  0  0  0  0  0  0  0  0  0  0
    7.7554    3.3285    0.3620 H   0  0  0  0  0  0  0  0  0  0  0  0
    9.2892    3.1975    1.2120 H   0  0  0  0  0  0  0  0  0  0  0  0
    7.3885    2.8390    2.6825 H   0  0  0  0  0  0  0  0  0  0  0  0
    8.6348    1.5933    2.7195 H   0  0  0  0  0  0  0  0  0  0  0  0
    6.3810    0.6830    2.9085 H   0  0  0  0  0  0  0  0  0  0  0  0
    6.9969    0.0973    1.3505 H   0  0  0  0  0  0  0  0  0  0  0  0
    5.7951    2.0582    0.2001 H   0  0  0  0  0  0  0  0  0  0  0  0
    5.0870    2.4553    1.7744 H   0  0  0  0  0  0  0  0  0  0  0  0
    3.6494    1.1373    0.3368 H   0  0  0  0  0  0  0  0  0  0  0  0
    4.8467   -0.2526    0.4369 H   0  0  0  0  0  0  0  0  0  0  0  0
    4.7156   -0.4150    2.8150 H   0  0  0  0  0  0  0  0  0  0  0  0
    3.6114    0.9927    2.9257 H   0  0  0  0  0  0  0  0  0  0  0  0
    2.8963   -1.8017    2.4750 H   0  0  0  0  0  0  0  0  0  0  0  0
    1.8806    1.7235    1.7078 H   0  0  0  0  0  0  0  0  0  0  0  0
   -0.3281    2.3783    1.0718 H   0  0  0  0  0  0  0  0  0  0  0  0
   -1.5913   -1.6903    1.2813 H   0  0  0  0  0  0  0  0  0  0  0  0
    0.6856   -2.3405    1.9105 H   0  0  0  0  0  0  0  0  0  0  0  0
   -1.7969    1.6794   -1.0222 H   0  0  0  0  0  0  0  0  0  0  0  0
   -3.7638    2.3889   -1.9786 H   0  0  0  0  0  0  0  0  0  0  0  0
   -4.5075    0.0553   -1.7964 H   0  0  0  0  0  0  0  0  0  0  0  0
   -5.0856    0.3034   -0.0978 H   0  0  0  0  0  0  0  0  0  0  0  0
   -6.7652    2.0049   -1.0776 H   0  0  0  0  0  0  0  0  0  0  0  0
   -6.0859    1.5695   -2.6498 H   0  0  0  0  0  0  0  0  0  0  0  0
   -5.8696   -1.6087   -2.1170 H   0  0  0  0  0  0  0  0  0  0  0  0
   -6.3827   -0.6332   -3.4991 H   0  0  0  0  0  0  0  0  0  0  0  0
   -7.6766   -2.9430   -2.0242 H   0  0  0  0  0  0  0  0  0  0  0  0
   -7.7937   -2.4332   -3.7231 H   0  0  0  0  0  0  0  0  0  0  0  0
   -9.9198   -2.3279   -2.3048 H   0  0  0  0  0  0  0  0  0  0  0  0
   -9.6015   -0.9964   -3.4317 H   0  0  0  0  0  0  0  0  0  0  0  0
   -9.7791    0.4146   -1.6908 H   0  0  0  0  0  0  0  0  0  0  0  0
   -7.7156   -1.0376    0.0084 H   0  0  0  0  0  0  0  0  0  0  0  0
   -8.1416    0.7521    1.0994 H   0  0  0  0  0  0  0  0  0  0  0  0
  -11.5462    0.5999   -0.3908 H   0  0  0  0  0  0  0  0  0  0  0  0
  -13.1068   -0.2073    1.3950 H   0  0  0  0  0  0  0  0  0  0  0  0
   -9.1578   -2.8382    0.1215 H   0  0  0  0  0  0  0  0  0  0  0  0
   -5.6657    4.3307   -1.0736 H   0  0  0  0  0  0  0  0  0  0  0  0
    9.4094   -1.7713    0.0984 H   0  0  0  0  0  0  0  0  0  0  0  0
  1  2  1  0
  2  3  2  0
  3  4  1  0
  4  5  2  0
  5  6  1  0
  6  7  1  0
  7  8  1  0
  8  9  1  0
  9 10  1  0
 10 11  1  0
 11 12  1  0
 12 13  1  0
 13 14  1  0
 14 15  1  0
 15 16  2  0
 16 17  1  0
 17 18  2  0
 18 19  1  0
 19 20  2  0
 18 21  1  0
 21 22  2  0
 21 23  1  0
 23 24  1  0
 24 25  1  0
 25 26  1  0
 26 27  1  0
 27 28  1  0
 28 29  1  0
 29 30  1  0
 30 31  1  0
 31 32  1  0
 32 33  1  0
 31 34  1  0
 34 35  2  0
 35 36  1  0
 36 37  2  0
 37 38  1  0
 38 39  3  0
 37 40  1  0
 40 41  1  0
 40 42  2  0
 24 43  1  0
 43 44  1  0
 43 45  2  0
  5 46  1  0
 46 47  2  0
 47 48  1  0
 47  2  1  0
 20 15  1  0
 32 27  1  0
 42 34  1  0
  1 49  1  0
  1 50  1  0
  1 51  1  0
  3 52  1  0
  4 53  1  0
  6 54  1  0
  6 55  1  0
  7 56  1  0
  7 57  1  0
  8 58  1  0
  8 59  1  0
  9 60  1  0
  9 61  1  0
 10 62  1  0
 10 63  1  0
 11 64  1  0
 11 65  1  0
 12 66  1  0
 12 67  1  0
 13 68  1  0
 13 69  1  0
 14 70  1  0
 16 71  1  0
 17 72  1  0
 19 73  1  0
 20 74  1  0
 23 75  1  0
 24 76  1  6
 25 77  1  0
 25 78  1  0
 26 79  1  0
 26 80  1  0
 28 81  1  0
 28 82  1  0
 29 83  1  0
 29 84  1  0
 30 85  1  0
 30 86  1  0
 31 87  1  0
 32 88  1  1
 33 89  1  0
 35 90  1  0
 36 91  1  0
 42 92  1  0
 44 93  1  0
 46 94  1  0
M  END
$$$$
[H]OC(=O)C([H])([H])C([H])([H])[C@]1([H])c2nc(-c3oc([H])c([H])c3[H])c([H])c([H])c2[C@]([H])(C([H])([H])C([H])([H])[H])C([H])([H])[C@]([H])(N([H])[H])C(=O)N1[H]
     RDKit          3D

 49 51  0  0  0  0  0  0  0  0999 V2000
   -3.5413   -2.8339   -0.9473 C   0  0  0  0  0  0  0  0  0  0  0  0
   -2.2888   -1.9864   -0.8931 C   0  0  0  0  0  0  0  0  0  0  0  0
   -1.8512   -1.6147    0.4914 C   0  0  2  0  0  0  0  0  0  0  0  0
   -2.7643   -0.8475    1.3207 C   0  0  0  0  0  0  0  0  0  0  0  0
   -3.2559    0.4781    0.9744 C   0  0  2  0  0  0  0  0  0  0  0  0
   -3.6470    0.7562   -0.3658 N   0  0  0  0  0  0  0  0  0  0  0  0
   -2.3660    1.5369    1.5097 C   0  0  0  0  0  0  0  0  0  0  0  0
   -2.9556    2.4885    2.1297 O   0  0  0  0  0  0  0  0  0  0  0  0
   -0.9757    1.7413    1.4912 N   0  0  0  0  0  0  0  0  0  0  0  0
    0.1271    1.3652    0.6983 C   0  0  2  0  0  0  0  0  0  0  0  0
    0.1325    2.0157   -0.6791 C   0  0  0  0  0  0  0  0  0  0  0  0
    0.1666    3.5048   -0.6460 C   0  0  0  0  0  0  0  0  0  0  0  0
    1.3881    3.9713    0.0486 C   0  0  0  0  0  0  0  0  0  0  0  0
    2.5618    4.2532   -0.6687 O   0  0  0  0  0  0  0  0  0  0  0  0
    1.4539    4.1410    1.2892 O   0  0  0  0  0  0  0  0  0  0  0  0
    0.3340   -0.0709    0.4865 C   0  0  0  0  0  0  0  0  0  0  0  0
    1.6638   -0.1795    0.3395 N   0  0  0  0  0  0  0  0  0  0  0  0
    2.3193   -1.3178    0.1203 C   0  0  0  0  0  0  0  0  0  0  0  0
    1.5793   -2.4771    0.0372 C   0  0  0  0  0  0  0  0  0  0  0  0
    0.1980   -2.3851    0.1872 C   0  0  0  0  0  0  0  0  0  0  0  0
   -0.4469   -1.1830    0.4139 C   0  0  0  0  0  0  0  0  0  0  0  0
    3.7663   -1.4075   -0.0340 C   0  0  0  0  0  0  0  0  0  0  0  0
    4.5852   -0.2945    0.0351 C   0  0  0  0  0  0  0  0  0  0  0  0
    5.8733   -0.7285   -0.1496 C   0  0  0  0  0  0  0  0  0  0  0  0
    5.7783   -2.0973   -0.3242 C   0  0  0  0  0  0  0  0  0  0  0  0
    4.5154   -2.4409   -0.2463 O   0  0  0  0  0  0  0  0  0  0  0  0
   -4.2154   -2.5152   -1.7978 H   0  0  0  0  0  0  0  0  0  0  0  0
   -4.1113   -2.6758   -0.0341 H   0  0  0  0  0  0  0  0  0  0  0  0
   -3.3322   -3.9037   -1.1611 H   0  0  0  0  0  0  0  0  0  0  0  0
   -1.4957   -2.6304   -1.3849 H   0  0  0  0  0  0  0  0  0  0  0  0
   -2.4478   -1.1444   -1.5859 H   0  0  0  0  0  0  0  0  0  0  0  0
   -1.7840   -2.6249    1.0227 H   0  0  0  0  0  0  0  0  0  0  0  0
   -3.6497   -1.5174    1.5562 H   0  0  0  0  0  0  0  0  0  0  0  0
   -2.2828   -0.7695    2.3488 H   0  0  0  0  0  0  0  0  0  0  0  0
   -4.2269    0.6331    1.5620 H   0  0  0  0  0  0  0  0  0  0  0  0
   -2.9528    1.1271   -1.0068 H   0  0  0  0  0  0  0  0  0  0  0  0
   -4.4099    0.1839   -0.7394 H   0  0  0  0  0  0  0  0  0  0  0  0
   -0.6883    2.3523    2.3027 H   0  0  0  0  0  0  0  0  0  0  0  0
    1.0790    1.7411    1.1836 H   0  0  0  0  0  0  0  0  0  0  0  0
    1.1081    1.6856   -1.1495 H   0  0  0  0  0  0  0  0  0  0  0  0
   -0.6385    1.6057   -1.3495 H   0  0  0  0  0  0  0  0  0  0  0  0
   -0.7506    3.9531   -0.2048 H   0  0  0  0  0  0  0  0  0  0  0  0
    0.2190    3.8566   -1.7093 H   0  0  0  0  0  0  0  0  0  0  0  0
    2.7609    5.2307   -0.8158 H   0  0  0  0  0  0  0  0  0  0  0  0
    2.0799   -3.4092   -0.1387 H   0  0  0  0  0  0  0  0  0  0  0  0
   -0.3304   -3.3409    0.1131 H   0  0  0  0  0  0  0  0  0  0  0  0
    4.2886    0.7208    0.2003 H   0  0  0  0  0  0  0  0  0  0  0  0
    6.8090   -0.1752   -0.1671 H   0  0  0  0  0  0  0  0  0  0  0  0
    6.6214   -2.7710   -0.4974 H   0  0  0  0  0  0  0  0  0  0  0  0
  1  2  1  0
  2  3  1  0
  3  4  1  0
  4  5  1  0
  5  6  1  0
  5  7  1  0
  7  8  2  0
  7  9  1  0
  9 10  1  0
 10 11  1  0
 11 12  1  0
 12 13  1  0
 13 14  1  0
 13 15  2  0
 10 16  1  0
 16 17  2  0
 17 18  1  0
 18 19  2  0
 19 20  1  0
 20 21  2  0
 18 22  1  0
 22 23  2  0
 23 24  1  0
 24 25  2  0
 25 26  1  0
 21  3  1  0
 26 22  1  0
 21 16  1  0
  1 27  1  0
  1 28  1  0
  1 29  1  0
  2 30  1  0
  2 31  1  0
  3 32  1  1
  4 33  1  0
  4 34  1  0
  5 35  1  1
  6 36  1  0
  6 37  1  0
  9 38  1  0
 10 39  1  1
 11 40  1  0
 11 41  1  0
 12 42  1  0
 12 43  1  0
 14 44  1  0
 19 45  1  0
 20 46  1  0
 23 47  1  0
 24 48  1  0
 25 49  1  0
M  END
$$$$
[H]c1c([H])c(C([H])([H])N([H])c2nc3c(C#N)c([H])c([H])c([H])c3n2[H])c([H])c([H])c1Cl
     RDKit          3D

 31 33  0  0  0  0  0  0  0  0999 V2000
    7.3483   -0.4104   -0.1033 Cl  0  0  0  0  0  0  0  0  0  0  0  0
    5.6033   -0.2374   -0.0905 C   0  0  0  0  0  0  0  0  0  0  0  0
    5.0393    0.9696   -0.4428 C   0  0  0  0  0  0  0  0  0  0  0  0
    3.6660    1.0686   -0.4212 C   0  0  0  0  0  0  0  0  0  0  0  0
    2.8315    0.0103   -0.0617 C   0  0  0  0  0  0  0  0  0  0  0  0
    1.4019    0.2783   -0.0902 C   0  0  0  0  0  0  0  0  0  0  0  0
    0.5389   -0.7891    0.2731 N   0  0  0  0  0  0  0  0  0  0  0  0
   -0.8665   -0.5360    0.2484 C   0  0  0  0  0  0  0  0  0  0  0  0
   -1.4975    0.6133   -0.0832 N   0  0  0  0  0  0  0  0  0  0  0  0
   -2.8323    0.4875    0.0068 C   0  0  0  0  0  0  0  0  0  0  0  0
   -3.8757    1.3596   -0.2232 C   0  0  0  0  0  0  0  0  0  0  0  0
   -5.1623    0.9231   -0.0389 C   0  0  0  0  0  0  0  0  0  0  0  0
   -5.4478   -0.3643    0.3705 C   0  0  0  0  0  0  0  0  0  0  0  0
   -4.3776   -1.2020    0.5888 C   0  0  0  0  0  0  0  0  0  0  0  0
   -3.0494   -0.8044    0.4150 C   0  0  0  0  0  0  0  0  0  0  0  0
   -1.8668   -1.4073    0.5564 N   0  0  0  0  0  0  0  0  0  0  0  0
   -3.6263    2.7204   -0.6540 C   0  0  0  0  0  0  0  0  0  0  0  0
   -3.4457    3.8031   -0.9992 N   0  0  0  0  0  0  0  0  0  0  0  0
    3.4442   -1.1666    0.2794 C   0  0  0  0  0  0  0  0  0  0  0  0
    4.8224   -1.3127    0.2723 C   0  0  0  0  0  0  0  0  0  0  0  0
    5.6610    1.8227   -0.7306 H   0  0  0  0  0  0  0  0  0  0  0  0
    3.2532    2.0307   -0.7034 H   0  0  0  0  0  0  0  0  0  0  0  0
    1.2151    1.1592    0.5925 H   0  0  0  0  0  0  0  0  0  0  0  0
    1.0538    0.6566   -1.0965 H   0  0  0  0  0  0  0  0  0  0  0  0
    0.8235   -1.7484    0.5591 H   0  0  0  0  0  0  0  0  0  0  0  0
   -5.9581    1.6288   -0.2269 H   0  0  0  0  0  0  0  0  0  0  0  0
   -6.4763   -0.6708    0.5047 H   0  0  0  0  0  0  0  0  0  0  0  0
   -4.5489   -2.2289    0.9132 H   0  0  0  0  0  0  0  0  0  0  0  0
   -1.7273   -2.3903    0.8553 H   0  0  0  0  0  0  0  0  0  0  0  0
    2.8295   -1.9909    0.5581 H   0  0  0  0  0  0  0  0  0  0  0  0
    5.2266   -2.2720    0.5539 H   0  0  0  0  0  0  0  0  0  0  0  0
  1  2  1  0
  2  3  2  0
  3  4  1  0
  4  5  2  0
  5  6  1  0
  6  7  1  0
  7  8  1  0
  8  9  2  0
  9 10  1  0
 10 11  2  0
 11 12  1  0
 12 13  2  0
 13 14  1  0
 14 15  2  0
 15 16  1  0
 11 17  1  0
 17 18  3  0
  5 19  1  0
 19 20  2  0
 20  2  1  0
 16  8  1  0
 15 10  1  0
  3 21  1  0
  4 22  1  0
  6 23  1  0
  6 24  1  0
  7 25  1  0
 12 26  1  0
 13 27  1  0
 14 28  1  0
 16 29  1  0
 19 30  1  0
 20 31  1  0
M  END
$$$$
[H]OC(=O)N1N=C(c2sc(N([H])[H])nc2C(=O)N([H])[H])C(C([H])([H])[H])=C(C([H])([H])[H])N(C([H])([H])[C@]([H])(O[H])C([H])([H])C(=O)O[H])C([H])([H])[C@]([H])(N([H])[H])C1([H])[H]
     RDKit          3D

 56 57  0  0  0  0  0  0  0  0999 V2000
   -4.6073    4.4433    0.0483 N   0  0  0  0  0  0  0  0  0  0  0  0
   -3.9172    3.1674   -0.0454 C   0  0  0  0  0  0  0  0  0  0  0  0
   -4.0987    2.1958   -0.8863 N   0  0  0  0  0  0  0  0  0  0  0  0
   -3.3654    1.0840   -0.8259 C   0  0  0  0  0  0  0  0  0  0  0  0
   -2.4367    1.0235    0.1499 C   0  0  0  0  0  0  0  0  0  0  0  0
   -2.6646    2.5693    0.9212 S   0  0  0  0  0  0  0  0  0  0  0  0
   -1.4703   -0.0269    0.5994 C   0  0  0  0  0  0  0  0  0  0  0  0
   -1.4812   -1.1016    0.0207 N   0  0  0  0  0  0  0  0  0  0  0  0
   -0.9851   -2.3387   -0.1178 N   0  0  0  0  0  0  0  0  0  0  0  0
    0.0011   -2.5053   -1.1780 C   0  0  0  0  0  0  0  0  0  0  0  0
    1.3334   -2.7101   -0.5779 C   0  0  1  0  0  0  0  0  0  0  0  0
    2.4107   -2.5921   -1.5546 N   0  0  0  0  0  0  0  0  0  0  0  0
    1.5243   -2.1051    0.7184 C   0  0  0  0  0  0  0  0  0  0  0  0
    1.5511   -0.6667    0.9274 N   0  0  0  0  0  0  0  0  0  0  0  0
    2.6101    0.0262    0.2079 C   0  0  0  0  0  0  0  0  0  0  0  0
    2.5916    1.5025    0.1788 C   0  0  2  0  0  0  0  0  0  0  0  0
    1.3960    1.9616   -0.4507 O   0  0  0  0  0  0  0  0  0  0  0  0
    3.7117    2.0334   -0.6862 C   0  0  0  0  0  0  0  0  0  0  0  0
    3.7112    1.6810   -2.0791 C   0  0  0  0  0  0  0  0  0  0  0  0
    4.8212    2.0421   -2.8702 O   0  0  0  0  0  0  0  0  0  0  0  0
    2.8076    1.0752   -2.6706 O   0  0  0  0  0  0  0  0  0  0  0  0
    0.7190    0.0603    1.8187 C   0  0  0  0  0  0  0  0  0  0  0  0
    1.4213    0.6706    3.0526 C   0  0  0  0  0  0  0  0  0  0  0  0
   -0.5685    0.3452    1.7118 C   0  0  0  0  0  0  0  0  0  0  0  0
   -1.1843    1.0778    2.8565 C   0  0  0  0  0  0  0  0  0  0  0  0
   -1.3269   -3.5378    0.5691 C   0  0  0  0  0  0  0  0  0  0  0  0
   -0.7012   -4.7309    0.2435 O   0  0  0  0  0  0  0  0  0  0  0  0
   -2.1877   -3.6341    1.4914 O   0  0  0  0  0  0  0  0  0  0  0  0
   -3.6590    0.0472   -1.8445 C   0  0  0  0  0  0  0  0  0  0  0  0
   -5.0181   -0.0343   -2.3598 N   0  0  0  0  0  0  0  0  0  0  0  0
   -2.9014   -0.7785   -2.3297 O   0  0  0  0  0  0  0  0  0  0  0  0
   -4.8661    4.9581   -0.8192 H   0  0  0  0  0  0  0  0  0  0  0  0
   -4.8425    4.8432    0.9741 H   0  0  0  0  0  0  0  0  0  0  0  0
   -0.0321   -1.6500   -1.9034 H   0  0  0  0  0  0  0  0  0  0  0  0
   -0.2646   -3.4243   -1.7936 H   0  0  0  0  0  0  0  0  0  0  0  0
    1.3683   -3.8618   -0.3658 H   0  0  0  0  0  0  0  0  0  0  0  0
    2.5795   -3.5174   -2.0024 H   0  0  0  0  0  0  0  0  0  0  0  0
    2.0107   -2.0066   -2.3562 H   0  0  0  0  0  0  0  0  0  0  0  0
    0.8777   -2.6400    1.4769 H   0  0  0  0  0  0  0  0  0  0  0  0
    2.5854   -2.4643    1.0684 H   0  0  0  0  0  0  0  0  0  0  0  0
    3.6241   -0.3249    0.6286 H   0  0  0  0  0  0  0  0  0  0  0  0
    2.6777   -0.3146   -0.8323 H   0  0  0  0  0  0  0  0  0  0  0  0
    2.5654    2.0328    1.1525 H   0  0  0  0  0  0  0  0  0  0  0  0
    1.0313    1.1756   -0.9199 H   0  0  0  0  0  0  0  0  0  0  0  0
    3.7819    3.1671   -0.5619 H   0  0  0  0  0  0  0  0  0  0  0  0
    4.7012    1.7092   -0.2180 H   0  0  0  0  0  0  0  0  0  0  0  0
    5.6231    1.4037   -2.9411 H   0  0  0  0  0  0  0  0  0  0  0  0
    2.4767    0.7249    2.9894 H   0  0  0  0  0  0  0  0  0  0  0  0
    0.9113    1.6129    3.3333 H   0  0  0  0  0  0  0  0  0  0  0  0
    1.2121    0.0061    3.9469 H   0  0  0  0  0  0  0  0  0  0  0  0
   -0.9388    2.1657    2.8437 H   0  0  0  0  0  0  0  0  0  0  0  0
   -2.2563    0.9744    2.9746 H   0  0  0  0  0  0  0  0  0  0  0  0
   -0.7840    0.6319    3.8385 H   0  0  0  0  0  0  0  0  0  0  0  0
   -1.0784   -5.3634   -0.4468 H   0  0  0  0  0  0  0  0  0  0  0  0
   -5.3789    0.7767   -2.8869 H   0  0  0  0  0  0  0  0  0  0  0  0
   -5.6215   -0.8589   -2.2184 H   0  0  0  0  0  0  0  0  0  0  0  0
  1  2  1  0
  2  3  2  0
  3  4  1  0
  4  5  2  0
  5  6  1  0
  5  7  1  0
  7  8  2  0
  8  9  1  0
  9 10  1  0
 10 11  1  0
 11 12  1  0
 11 13  1  0
 13 14  1  0
 14 15  1  0
 15 16  1  0
 16 17  1  0
 16 18  1  0
 18 19  1  0
 19 20  1  0
 19 21  2  0
 14 22  1  0
 22 23  1  0
 22 24  2  0
 24 25  1  0
  9 26  1  0
 26 27  1  0
 26 28  2  0
  4 29  1  0
 29 30  1  0
 29 31  2  0
  6  2  1  0
 24  7  1  0
  1 32  1  0
  1 33  1  0
 10 34  1  0
 10 35  1  0
 11 36  1  1
 12 37  1  0
 12 38  1  0
 13 39  1  0
 13 40  1  0
 15 41  1  0
 15 42  1  0
 16 43  1  1
 17 44  1  0
 18 45  1  0
 18 46  1  0
 20 47  1  0
 23 48  1  0
 23 49  1  0
 23 50  1  0
 25 51  1  0
 25 52  1  0
 25 53  1  0
 27 54  1  0
 30 55  1  0
 30 56  1  0
M  END
$$$$
[H]Oc1c([H])c(OC([H])([H])c2c([H])c([H])c([H])c([H])c2OC([H])([H])[H])c([H])c([H])c1N([H])C(=O)OC([H])([H])c1c([H])c([H])c([H])c(C([H])([H])[H])c1[H]
     RDKit          3D

 52 54  0  0  0  0  0  0  0  0999 V2000
   -6.3943   -2.1092   -0.9632 C   0  0  0  0  0  0  0  0  0  0  0  0
   -6.6972   -0.7989   -0.5714 O   0  0  0  0  0  0  0  0  0  0  0  0
   -6.9869    0.2853   -0.2484 C   0  0  0  0  0  0  0  0  0  0  0  0
   -8.1914    0.9346   -0.0706 C   0  0  0  0  0  0  0  0  0  0  0  0
   -8.4494    2.1883    0.3216 C   0  0  0  0  0  0  0  0  0  0  0  0
   -7.3472    2.9815    0.5945 C   0  0  0  0  0  0  0  0  0  0  0  0
   -6.0948    2.4848    0.4517 C   0  0  0  0  0  0  0  0  0  0  0  0
   -5.8442    1.2076    0.0476 C   0  0  0  0  0  0  0  0  0  0  0  0
   -4.5222    0.6465   -0.0799 C   0  0  0  0  0  0  0  0  0  0  0  0
   -3.4561    1.3744    0.3859 O   0  0  0  0  0  0  0  0  0  0  0  0
   -2.1246    0.9136    0.2555 C   0  0  0  0  0  0  0  0  0  0  0  0
   -1.6928   -0.1691   -0.4331 C   0  0  0  0  0  0  0  0  0  0  0  0
   -0.3605   -0.5806   -0.4103 C   0  0  0  0  0  0  0  0  0  0  0  0
    0.5194    0.1784    0.3551 C   0  0  0  0  0  0  0  0  0  0  0  0
    1.8625   -0.3610    0.4519 N   0  0  0  0  0  0  0  0  0  0  0  0
    2.6032   -0.7369   -0.6664 C   0  0  0  0  0  0  0  0  0  0  0  0
    1.6879   -0.4895   -1.7614 O   0  0  0  0  0  0  0  0  0  0  0  0
    3.6201   -1.1536   -1.1951 O   0  0  0  0  0  0  0  0  0  0  0  0
    4.6126   -1.5984   -1.9336 C   0  0  0  0  0  0  0  0  0  0  0  0
    5.8517   -1.5955   -1.0422 C   0  0  0  0  0  0  0  0  0  0  0  0
    6.2541   -2.6479   -0.3244 C   0  0  0  0  0  0  0  0  0  0  0  0
    7.3732   -2.5531    0.5126 C   0  0  0  0  0  0  0  0  0  0  0  0
    8.0840   -1.3492    0.6104 C   0  0  0  0  0  0  0  0  0  0  0  0
    7.6846   -0.2575   -0.1308 C   0  0  0  0  0  0  0  0  0  0  0  0
    8.3878    1.0488   -0.0091 C   0  0  0  0  0  0  0  0  0  0  0  0
    6.5804   -0.4087   -0.9510 C   0  0  0  0  0  0  0  0  0  0  0  0
    0.1352    1.2476    1.0245 C   0  0  0  0  0  0  0  0  0  0  0  0
    0.9613    2.0355    1.7961 O   0  0  0  0  0  0  0  0  0  0  0  0
   -1.2445    1.6952    1.0270 C   0  0  0  0  0  0  0  0  0  0  0  0
   -6.6509   -2.7536   -0.0185 H   0  0  0  0  0  0  0  0  0  0  0  0
   -5.3405   -2.2587   -1.1187 H   0  0  0  0  0  0  0  0  0  0  0  0
   -7.0278   -2.5445   -1.7438 H   0  0  0  0  0  0  0  0  0  0  0  0
   -9.0886    0.2923   -0.2285 H   0  0  0  0  0  0  0  0  0  0  0  0
   -9.4497    2.6113    0.4953 H   0  0  0  0  0  0  0  0  0  0  0  0
   -7.5087    4.0061    0.9649 H   0  0  0  0  0  0  0  0  0  0  0  0
   -5.2534    3.1762    0.7090 H   0  0  0  0  0  0  0  0  0  0  0  0
   -4.5469   -0.1821    0.8537 H   0  0  0  0  0  0  0  0  0  0  0  0
   -4.3210   -0.0656   -0.9228 H   0  0  0  0  0  0  0  0  0  0  0  0
   -2.4247   -0.7637   -1.0350 H   0  0  0  0  0  0  0  0  0  0  0  0
   -0.1293   -1.4368   -0.9448 H   0  0  0  0  0  0  0  0  0  0  0  0
    2.3018   -0.5500    1.4014 H   0  0  0  0  0  0  0  0  0  0  0  0
    4.8538   -0.9650   -2.8380 H   0  0  0  0  0  0  0  0  0  0  0  0
    4.5433   -2.6685   -2.3019 H   0  0  0  0  0  0  0  0  0  0  0  0
    5.6873   -3.6024   -0.3731 H   0  0  0  0  0  0  0  0  0  0  0  0
    7.7005   -3.3876    1.0922 H   0  0  0  0  0  0  0  0  0  0  0  0
    8.9412   -1.2509    1.3140 H   0  0  0  0  0  0  0  0  0  0  0  0
    9.4807    1.0188   -0.2017 H   0  0  0  0  0  0  0  0  0  0  0  0
    7.8806    1.6956   -0.7638 H   0  0  0  0  0  0  0  0  0  0  0  0
    8.1214    1.4582    0.9843 H   0  0  0  0  0  0  0  0  0  0  0  0
    6.2884    0.3804   -1.5580 H   0  0  0  0  0  0  0  0  0  0  0  0
    0.6594    2.8299    2.3495 H   0  0  0  0  0  0  0  0  0  0  0  0
   -1.5291    2.5477    1.5454 H   0  0  0  0  0  0  0  0  0  0  0  0
  1  2  1  0
  2  3  1  0
  3  4  2  0
  4  5  1  0
  5  6  2  0
  6  7  1  0
  7  8  2  0
  8  9  1  0
  9 10  1  0
 10 11  1  0
 11 12  2  0
 12 13  1  0
 13 14  2  0
 14 15  1  0
 15 16  1  0
 16 17  2  0
 16 18  1  0
 18 19  1  0
 19 20  1  0
 20 21  2  0
 21 22  1  0
 22 23  2  0
 23 24  1  0
 24 25  1  0
 24 26  2  0
 14 27  1  0
 27 28  1  0
 27 29  2  0
  8  3  1  0
 29 11  1  0
 26 20  1  0
  1 30  1  0
  1 31  1  0
  1 32  1  0
  4 33  1  0
  5 34  1  0
  6 35  1  0
  7 36  1  0
  9 37  1  0
  9 38  1  0
 12 39  1  0
 13 40  1  0
 15 41  1  0
 19 42  1  0
 19 43  1  0
 21 44  1  0
 22 45  1  0
 23 46  1  0
 25 47  1  0
 25 48  1  0
 25 49  1  0
 26 50  1  0
 28 51  1  0
 29 52  1  0
M  END
$$$$
[H]c1c([H])c([H])c(-c2c([H])c([H])c3c(c2[H])N(C(=O)c2c([H])c([H])c([H])c([H])c2C([H])([H])[H])C([H])([H])C([H])([H])C([H])([H])O3)c([H])c1[H]
     RDKit          3D

 47 50  0  0  0  0  0  0  0  0999 V2000
   -2.5759   -0.1557    1.9643 C   0  0  0  0  0  0  0  0  0  0  0  0
   -2.3623    1.0817    1.2153 C   0  0  0  0  0  0  0  0  0  0  0  0
   -2.4793    2.2992    1.8445 C   0  0  0  0  0  0  0  0  0  0  0  0
   -2.2802    3.4890    1.1512 C   0  0  0  0  0  0  0  0  0  0  0  0
   -1.9654    3.4215   -0.1701 C   0  0  0  0  0  0  0  0  0  0  0  0
   -1.8561    2.2048   -0.7668 C   0  0  0  0  0  0  0  0  0  0  0  0
   -2.0410    0.9926   -0.1351 C   0  0  0  0  0  0  0  0  0  0  0  0
   -2.0302   -0.2381   -0.8565 C   0  0  0  0  0  0  0  0  0  0  0  0
   -3.1082   -0.3264   -1.6372 O   0  0  0  0  0  0  0  0  0  0  0  0
   -1.2783   -1.3657   -0.9943 N   0  0  0  0  0  0  0  0  0  0  0  0
   -1.9229   -2.5196   -1.6564 C   0  0  0  0  0  0  0  0  0  0  0  0
   -2.0870   -3.5914   -0.5845 C   0  0  0  0  0  0  0  0  0  0  0  0
   -0.8637   -4.4516   -0.5720 C   0  0  0  0  0  0  0  0  0  0  0  0
    0.1027   -3.8501    0.3201 O   0  0  0  0  0  0  0  0  0  0  0  0
    0.6569   -2.5606    0.1458 C   0  0  0  0  0  0  0  0  0  0  0  0
    1.9232   -2.4962    0.6506 C   0  0  0  0  0  0  0  0  0  0  0  0
    2.6399   -1.3049    0.5681 C   0  0  0  0  0  0  0  0  0  0  0  0
    1.9902   -0.2295   -0.0457 C   0  0  0  0  0  0  0  0  0  0  0  0
    0.7158   -0.3058   -0.5509 C   0  0  0  0  0  0  0  0  0  0  0  0
    0.0255   -1.4943   -0.4547 C   0  0  0  0  0  0  0  0  0  0  0  0
    2.7571    1.0008   -0.1335 C   0  0  0  0  0  0  0  0  0  0  0  0
    4.1256    0.9785   -0.2883 C   0  0  0  0  0  0  0  0  0  0  0  0
    4.8809    2.1262   -0.3663 C   0  0  0  0  0  0  0  0  0  0  0  0
    4.2604    3.3441   -0.2883 C   0  0  0  0  0  0  0  0  0  0  0  0
    2.8998    3.4001   -0.1340 C   0  0  0  0  0  0  0  0  0  0  0  0
    2.1597    2.2309   -0.0577 C   0  0  0  0  0  0  0  0  0  0  0  0
   -3.2964   -0.8347    1.4540 H   0  0  0  0  0  0  0  0  0  0  0  0
   -3.0719    0.0656    2.9575 H   0  0  0  0  0  0  0  0  0  0  0  0
   -1.6381   -0.6739    2.2517 H   0  0  0  0  0  0  0  0  0  0  0  0
   -2.7279    2.3927    2.8922 H   0  0  0  0  0  0  0  0  0  0  0  0
   -2.3660    4.4468    1.6231 H   0  0  0  0  0  0  0  0  0  0  0  0
   -1.7999    4.3324   -0.7566 H   0  0  0  0  0  0  0  0  0  0  0  0
   -1.6001    2.1787   -1.8371 H   0  0  0  0  0  0  0  0  0  0  0  0
   -2.9012   -2.2275   -2.0558 H   0  0  0  0  0  0  0  0  0  0  0  0
   -1.3463   -2.9328   -2.4809 H   0  0  0  0  0  0  0  0  0  0  0  0
   -2.2084   -3.1416    0.4311 H   0  0  0  0  0  0  0  0  0  0  0  0
   -3.0267   -4.1780   -0.7634 H   0  0  0  0  0  0  0  0  0  0  0  0
   -0.4401   -4.6435   -1.5726 H   0  0  0  0  0  0  0  0  0  0  0  0
   -1.1118   -5.4392   -0.1383 H   0  0  0  0  0  0  0  0  0  0  0  0
    2.4082   -3.3356    1.1191 H   0  0  0  0  0  0  0  0  0  0  0  0
    3.6401   -1.2207    0.9571 H   0  0  0  0  0  0  0  0  0  0  0  0
    0.2577    0.5100   -1.0545 H   0  0  0  0  0  0  0  0  0  0  0  0
    4.6138    0.0051   -0.3500 H   0  0  0  0  0  0  0  0  0  0  0  0
    5.9484    2.0554   -0.4883 H   0  0  0  0  0  0  0  0  0  0  0  0
    4.8294    4.2442   -0.3474 H   0  0  0  0  0  0  0  0  0  0  0  0
    2.4448    4.3748   -0.0764 H   0  0  0  0  0  0  0  0  0  0  0  0
    1.1054    2.3422    0.0678 H   0  0  0  0  0  0  0  0  0  0  0  0
  1  2  1  0
  2  3  2  0
  3  4  1  0
  4  5  2  0
  5  6  1  0
  6  7  2  0
  7  8  1  0
  8  9  2  0
  8 10  1  0
 10 11  1  0
 11 12  1  0
 12 13  1  0
 13 14  1  0
 14 15  1  0
 15 16  2  0
 16 17  1  0
 17 18  2  0
 18 19  1  0
 19 20  2  0
 18 21  1  0
 21 22  2  0
 22 23  1  0
 23 24  2  0
 24 25  1  0
 25 26  2  0
  7  2  1  0
 20 10  1  0
 26 21  1  0
 20 15  1  0
  1 27  1  0
  1 28  1  0
  1 29  1  0
  3 30  1  0
  4 31  1  0
  5 32  1  0
  6 33  1  0
 11 34  1  0
 11 35  1  0
 12 36  1  0
 12 37  1  0
 13 38  1  0
 13 39  1  0
 16 40  1  0
 17 41  1  0
 19 42  1  0
 22 43  1  0
 23 44  1  0
 24 45  1  0
 25 46  1  0
 26 47  1  0
M  END
$$$$
