[H]c1c([H])c(-n2c([H])nc3c([H])c(OC([H])([H])[H])c(OC([H])([H])[H])c([H])c32)c([H])c(C([H])([H])N([H])C(=O)C2([H])C([H])([H])C2([H])[H])c1[H]
     RDKit          3D

 47 50  0  0  0  0  0  0  0  0999 V2000
    6.4924    0.6932    2.8347 C   0  0  0  0  0  0  0  0  0  0  0  0
    5.9679    0.4006    1.5704 O   0  0  0  0  0  0  0  0  0  0  0  0
    4.6349    0.1985    1.2592 C   0  0  0  0  0  0  0  0  0  0  0  0
    3.6221    0.2615    2.1702 C   0  0  0  0  0  0  0  0  0  0  0  0
    2.3019    0.0457    1.7915 C   0  0  0  0  0  0  0  0  0  0  0  0
    1.1870    0.0572    2.5765 N   0  0  0  0  0  0  0  0  0  0  0  0
    0.1611   -0.2260    1.7368 C   0  0  0  0  0  0  0  0  0  0  0  0
    0.6612   -0.4009    0.4881 N   0  0  0  0  0  0  0  0  0  0  0  0
   -0.1505   -0.8449   -0.6141 C   0  0  0  0  0  0  0  0  0  0  0  0
    0.2550   -1.8065   -1.5186 C   0  0  0  0  0  0  0  0  0  0  0  0
   -0.5262   -2.3064   -2.5030 C   0  0  0  0  0  0  0  0  0  0  0  0
   -1.8364   -1.8390   -2.6404 C   0  0  0  0  0  0  0  0  0  0  0  0
   -2.2910   -0.8810   -1.7601 C   0  0  0  0  0  0  0  0  0  0  0  0
   -3.7577   -0.5459   -1.9089 C   0  0  0  0  0  0  0  0  0  0  0  0
   -4.2066    0.5053   -1.1054 N   0  0  0  0  0  0  0  0  0  0  0  0
   -4.6327    1.5071   -0.3449 C   0  0  0  0  0  0  0  0  0  0  0  0
   -4.7878    2.7195   -0.7278 O   0  0  0  0  0  0  0  0  0  0  0  0
   -5.0162    1.3978    1.1436 C   0  0  0  0  0  0  0  0  0  0  0  0
   -6.3727    0.7286    1.4670 C   0  0  0  0  0  0  0  0  0  0  0  0
   -6.1680    2.1719    1.5750 C   0  0  0  0  0  0  0  0  0  0  0  0
   -1.4728   -0.3846   -0.7619 C   0  0  0  0  0  0  0  0  0  0  0  0
    1.9927   -0.2375    0.4853 C   0  0  0  0  0  0  0  0  0  0  0  0
    2.9917   -0.2973   -0.4474 C   0  0  0  0  0  0  0  0  0  0  0  0
    4.3062   -0.0917   -0.1000 C   0  0  0  0  0  0  0  0  0  0  0  0
    5.3356   -0.1390   -0.9651 O   0  0  0  0  0  0  0  0  0  0  0  0
    5.3829   -0.3404   -2.3260 C   0  0  0  0  0  0  0  0  0  0  0  0
    6.7610    1.7679    2.8899 H   0  0  0  0  0  0  0  0  0  0  0  0
    5.7780    0.4458    3.6831 H   0  0  0  0  0  0  0  0  0  0  0  0
    7.3388    0.0428    3.0160 H   0  0  0  0  0  0  0  0  0  0  0  0
    3.8405    0.4802    3.2225 H   0  0  0  0  0  0  0  0  0  0  0  0
   -0.8878   -0.2845    1.9928 H   0  0  0  0  0  0  0  0  0  0  0  0
    1.2761   -2.1732   -1.3427 H   0  0  0  0  0  0  0  0  0  0  0  0
   -0.1780   -3.0413   -3.1853 H   0  0  0  0  0  0  0  0  0  0  0  0
   -2.4842   -2.2228   -3.4271 H   0  0  0  0  0  0  0  0  0  0  0  0
   -4.3529   -1.4619   -1.5914 H   0  0  0  0  0  0  0  0  0  0  0  0
   -3.9840   -0.5007   -2.9941 H   0  0  0  0  0  0  0  0  0  0  0  0
   -3.8963    1.3761   -2.0940 H   0  0  0  0  0  0  0  0  0  0  0  0
   -4.2398    0.8759    1.7090 H   0  0  0  0  0  0  0  0  0  0  0  0
   -6.3753    0.1654    2.4590 H   0  0  0  0  0  0  0  0  0  0  0  0
   -6.7410    0.1292    0.6458 H   0  0  0  0  0  0  0  0  0  0  0  0
   -6.7872    2.7553    0.8295 H   0  0  0  0  0  0  0  0  0  0  0  0
   -6.2067    2.6641    2.5938 H   0  0  0  0  0  0  0  0  0  0  0  0
   -1.8809    0.3707   -0.1104 H   0  0  0  0  0  0  0  0  0  0  0  0
    2.7054   -0.4943   -1.4722 H   0  0  0  0  0  0  0  0  0  0  0  0
    4.5891    0.2156   -2.8397 H   0  0  0  0  0  0  0  0  0  0  0  0
    5.2510   -1.3940   -2.6181 H   0  0  0  0  0  0  0  0  0  0  0  0
    6.4001   -0.0620   -2.7411 H   0  0  0  0  0  0  0  0  0  0  0  0
  1  2  1  0
  2  3  1  0
  3  4  2  0
  4  5  1  0
  5  6  1  0
  6  7  2  0
  7  8  1  0
  8  9  1  0
  9 10  2  0
 10 11  1  0
 11 12  2  0
 12 13  1  0
 13 14  1  0
 14 15  1  0
 15 16  1  0
 16 17  2  0
 16 18  1  0
 18 19  1  0
 19 20  1  0
 13 21  2  0
  8 22  1  0
 22 23  1  0
 23 24  2  0
 24 25  1  0
 25 26  1  0
 24  3  1  0
 22  5  2  0
 21  9  1  0
 20 18  1  0
  1 27  1  0
  1 28  1  0
  1 29  1  0
  4 30  1  0
  7 31  1  0
 10 32  1  0
 11 33  1  0
 12 34  1  0
 14 35  1  0
 14 36  1  0
 15 37  1  0
 18 38  1  0
 19 39  1  0
 19 40  1  0
 20 41  1  0
 20 42  1  0
 21 43  1  0
 23 44  1  0
 26 45  1  0
 26 46  1  0
 26 47  1  0
M  END
$$$$
[H]OS(=O)(=O)c1c([H])c([H])c2c(c1[H])/C(=C(\[H])c1c([H])c3c([H])c(C(=O)N([H])[H])c([H])c([H])c3n1[H])C(=O)N2[H]
     RDKit          3D

 40 43  0  0  0  0  0  0  0  0999 V2000
   -6.8387    2.3884    0.1884 N   0  0  0  0  0  0  0  0  0  0  0  0
   -6.7141    1.0121   -0.0818 C   0  0  0  0  0  0  0  0  0  0  0  0
   -7.6917    0.2549   -0.2238 O   0  0  0  0  0  0  0  0  0  0  0  0
   -5.3653    0.4244   -0.2054 C   0  0  0  0  0  0  0  0  0  0  0  0
   -5.2433   -0.9328   -0.4732 C   0  0  0  0  0  0  0  0  0  0  0  0
   -4.0144   -1.5370   -0.5992 C   0  0  0  0  0  0  0  0  0  0  0  0
   -2.8922   -0.7150   -0.4440 C   0  0  0  0  0  0  0  0  0  0  0  0
   -1.6050   -1.0399   -0.5157 N   0  0  0  0  0  0  0  0  0  0  0  0
   -0.8620    0.0354   -0.3076 C   0  0  0  0  0  0  0  0  0  0  0  0
    0.5797    0.1619   -0.2700 C   0  0  0  0  0  0  0  0  0  0  0  0
    1.3119   -0.5191    0.5833 C   0  0  0  0  0  0  0  0  0  0  0  0
    0.9116   -1.4661    1.6047 C   0  0  0  0  0  0  0  0  0  0  0  0
   -0.2635   -1.8087    1.8977 O   0  0  0  0  0  0  0  0  0  0  0  0
    2.1197   -1.9298    2.2147 N   0  0  0  0  0  0  0  0  0  0  0  0
    3.2421   -1.3195    1.6260 C   0  0  0  0  0  0  0  0  0  0  0  0
    4.6143   -1.4044    1.8294 C   0  0  0  0  0  0  0  0  0  0  0  0
    5.4702   -0.6521    1.0621 C   0  0  0  0  0  0  0  0  0  0  0  0
    5.0402    0.2050    0.0762 C   0  0  0  0  0  0  0  0  0  0  0  0
    3.6838    0.2874   -0.1231 C   0  0  0  0  0  0  0  0  0  0  0  0
    2.8034   -0.4693    0.6470 C   0  0  0  0  0  0  0  0  0  0  0  0
    6.1787    1.1467   -0.8791 S   0  0  0  0  0  0  0  0  0  0  0  0
    6.6620    0.3289   -2.2511 O   0  0  0  0  0  0  0  0  0  0  0  0
    7.3695    1.4356    0.0134 O   0  0  0  0  0  0  0  0  0  0  0  0
    5.5659    2.4705   -1.2131 O   0  0  0  0  0  0  0  0  0  0  0  0
   -1.7222    1.0897   -0.0954 C   0  0  0  0  0  0  0  0  0  0  0  0
   -3.0019    0.6174   -0.1812 C   0  0  0  0  0  0  0  0  0  0  0  0
   -4.2580    1.2267   -0.0540 C   0  0  0  0  0  0  0  0  0  0  0  0
   -6.8959    3.0625   -0.5956 H   0  0  0  0  0  0  0  0  0  0  0  0
   -6.8747    2.7434    1.1564 H   0  0  0  0  0  0  0  0  0  0  0  0
   -6.1383   -1.5451   -0.5884 H   0  0  0  0  0  0  0  0  0  0  0  0
   -3.8945   -2.5927   -0.8076 H   0  0  0  0  0  0  0  0  0  0  0  0
   -1.2160   -2.0210   -0.7263 H   0  0  0  0  0  0  0  0  0  0  0  0
    1.1073    0.8362   -0.9587 H   0  0  0  0  0  0  0  0  0  0  0  0
    2.1354   -2.6218    2.9840 H   0  0  0  0  0  0  0  0  0  0  0  0
    4.9795   -2.0597    2.5861 H   0  0  0  0  0  0  0  0  0  0  0  0
    6.5462   -0.7179    1.2207 H   0  0  0  0  0  0  0  0  0  0  0  0
    3.3134    0.9519   -0.8905 H   0  0  0  0  0  0  0  0  0  0  0  0
    7.6362    0.2641   -2.2442 H   0  0  0  0  0  0  0  0  0  0  0  0
   -1.4678    2.1377    0.1093 H   0  0  0  0  0  0  0  0  0  0  0  0
   -4.3115    2.2712    0.1519 H   0  0  0  0  0  0  0  0  0  0  0  0
  1  2  1  0
  2  3  2  0
  2  4  1  0
  4  5  2  0
  5  6  1  0
  6  7  2  0
  7  8  1  0
  8  9  1  0
  9 10  1  0
 10 11  2  0
 11 12  1  0
 12 13  2  0
 12 14  1  0
 14 15  1  0
 15 16  2  0
 16 17  1  0
 17 18  2  0
 18 19  1  0
 19 20  2  0
 18 21  1  0
 21 22  1  0
 21 23  2  0
 21 24  2  0
  9 25  2  0
 25 26  1  0
 26 27  2  0
 27  4  1  0
 26  7  1  0
 20 11  1  0
 20 15  1  0
  1 28  1  0
  1 29  1  0
  5 30  1  0
  6 31  1  0
  8 32  1  0
 10 33  1  0
 14 34  1  0
 16 35  1  0
 17 36  1  0
 19 37  1  0
 22 38  1  0
 25 39  1  0
 27 40  1  0
M  END
$$$$
[H]c1c([H])c([H])c2c(c1[H])c1c3c(c4c5c([H])c([H])c([H])c([H])c5n5c4c1n2[C@@]1([H])O[C@]5(C([H])([H])[H])[C@@]([H])(OC([H])([H])[H])[C@@]([H])(N([H])C([H])([H])[H])C1([H])[H])C([H])([H])N([H])C3=O
     RDKit          3D

 61 68  0  0  0  0  0  0  0  0999 V2000
   -2.5900    1.1246    2.6909 C   0  0  0  0  0  0  0  0  0  0  0  0
   -2.2701    0.1494    1.6691 N   0  0  0  0  0  0  0  0  0  0  0  0
   -2.7037    0.7256    0.3894 C   0  0  1  0  0  0  0  0  0  0  0  0
   -1.9693    1.9591    0.0600 C   0  0  0  0  0  0  0  0  0  0  0  0
   -1.0374    1.8542   -1.1025 C   0  0  2  0  0  0  0  0  0  0  0  0
   -1.1108    0.8211   -1.8978 O   0  0  0  0  0  0  0  0  0  0  0  0
   -1.4719   -0.4453   -1.4993 C   0  0  2  0  0  0  0  0  0  0  0  0
   -1.8587   -1.0747   -2.8537 C   0  0  0  0  0  0  0  0  0  0  0  0
   -2.6627   -0.3659   -0.6565 C   0  0  1  0  0  0  0  0  0  0  0  0
   -3.0555   -1.5061    0.0270 O   0  0  0  0  0  0  0  0  0  0  0  0
   -4.3079   -1.9695   -0.2639 C   0  0  0  0  0  0  0  0  0  0  0  0
   -0.3020   -1.1026   -0.9411 N   0  0  0  0  0  0  0  0  0  0  0  0
   -0.0368   -2.4107   -0.8661 C   0  0  0  0  0  0  0  0  0  0  0  0
   -0.7505   -3.5118   -1.2342 C   0  0  0  0  0  0  0  0  0  0  0  0
   -0.2313   -4.7829   -1.0386 C   0  0  0  0  0  0  0  0  0  0  0  0
    1.0025   -5.0019   -0.4761 C   0  0  0  0  0  0  0  0  0  0  0  0
    1.7444   -3.8826   -0.0939 C   0  0  0  0  0  0  0  0  0  0  0  0
    1.2038   -2.6348   -0.3003 C   0  0  0  0  0  0  0  0  0  0  0  0
    1.7282   -1.3877   -0.0109 C   0  0  0  0  0  0  0  0  0  0  0  0
    2.9250   -0.9637    0.5498 C   0  0  0  0  0  0  0  0  0  0  0  0
    4.0703   -1.7821    1.0519 C   0  0  0  0  0  0  0  0  0  0  0  0
    5.0490   -0.8360    1.5052 N   0  0  0  0  0  0  0  0  0  0  0  0
    4.5511    0.4878    1.3292 C   0  0  0  0  0  0  0  0  0  0  0  0
    5.2116    1.4752    1.6612 O   0  0  0  0  0  0  0  0  0  0  0  0
    3.2325    0.3685    0.7340 C   0  0  0  0  0  0  0  0  0  0  0  0
    2.2736    1.2731    0.3281 C   0  0  0  0  0  0  0  0  0  0  0  0
    2.1943    2.6494    0.3519 C   0  0  0  0  0  0  0  0  0  0  0  0
    3.0346    3.6410    0.7719 C   0  0  0  0  0  0  0  0  0  0  0  0
    2.6237    4.9672    0.6424 C   0  0  0  0  0  0  0  0  0  0  0  0
    1.4040    5.3207    0.1079 C   0  0  0  0  0  0  0  0  0  0  0  0
    0.5569    4.3176   -0.3154 C   0  0  0  0  0  0  0  0  0  0  0  0
    0.9564    3.0255   -0.1896 C   0  0  0  0  0  0  0  0  0  0  0  0
    0.3179    1.9031   -0.5262 N   0  0  0  0  0  0  0  0  0  0  0  0
    1.0813    0.8475   -0.2300 C   0  0  0  0  0  0  0  0  0  0  0  0
    0.8029   -0.4946   -0.4048 C   0  0  0  0  0  0  0  0  0  0  0  0
   -1.7275    1.7656    2.9459 H   0  0  0  0  0  0  0  0  0  0  0  0
   -3.4000    1.7830    2.2910 H   0  0  0  0  0  0  0  0  0  0  0  0
   -3.0290    0.6437    3.5924 H   0  0  0  0  0  0  0  0  0  0  0  0
   -2.7602   -0.7186    1.9035 H   0  0  0  0  0  0  0  0  0  0  0  0
   -3.7998    0.9480    0.5957 H   0  0  0  0  0  0  0  0  0  0  0  0
   -1.4594    2.3204    1.0029 H   0  0  0  0  0  0  0  0  0  0  0  0
   -2.7065    2.7776   -0.1658 H   0  0  0  0  0  0  0  0  0  0  0  0
   -1.0912    2.7965   -1.7221 H   0  0  0  0  0  0  0  0  0  0  0  0
   -2.0056   -0.3257   -3.6573 H   0  0  0  0  0  0  0  0  0  0  0  0
   -1.0068   -1.6950   -3.1940 H   0  0  0  0  0  0  0  0  0  0  0  0
   -2.8277   -1.6039   -2.8044 H   0  0  0  0  0  0  0  0  0  0  0  0
   -3.5358   -0.1252   -1.3381 H   0  0  0  0  0  0  0  0  0  0  0  0
   -4.4650   -2.8889    0.3782 H   0  0  0  0  0  0  0  0  0  0  0  0
   -4.4865   -2.3125   -1.2897 H   0  0  0  0  0  0  0  0  0  0  0  0
   -5.1216   -1.2643    0.0633 H   0  0  0  0  0  0  0  0  0  0  0  0
   -1.7208   -3.3825   -1.6725 H   0  0  0  0  0  0  0  0  0  0  0  0
   -0.8491   -5.6109   -1.3524 H   0  0  0  0  0  0  0  0  0  0  0  0
    1.4213   -5.9802   -0.3168 H   0  0  0  0  0  0  0  0  0  0  0  0
    2.7206   -4.0420    0.3513 H   0  0  0  0  0  0  0  0  0  0  0  0
    3.7648   -2.4865    1.8473 H   0  0  0  0  0  0  0  0  0  0  0  0
    4.5351   -2.3717    0.2322 H   0  0  0  0  0  0  0  0  0  0  0  0
    5.9960   -1.0989    1.9084 H   0  0  0  0  0  0  0  0  0  0  0  0
    3.9823    3.4684    1.1903 H   0  0  0  0  0  0  0  0  0  0  0  0
    3.2909    5.7541    0.9750 H   0  0  0  0  0  0  0  0  0  0  0  0
    1.0902    6.3566    0.0099 H   0  0  0  0  0  0  0  0  0  0  0  0
   -0.4140    4.5350   -0.7434 H   0  0  0  0  0  0  0  0  0  0  0  0
  1  2  1  0
  2  3  1  0
  3  4  1  0
  4  5  1  0
  5  6  1  0
  6  7  1  0
  7  8  1  6
  7  9  1  0
  9 10  1  0
 10 11  1  0
  7 12  1  0
 12 13  1  0
 13 14  2  0
 14 15  1  0
 15 16  2  0
 16 17  1  0
 17 18  2  0
 18 19  1  0
 19 20  2  0
 20 21  1  0
 21 22  1  0
 22 23  1  0
 23 24  2  0
 23 25  1  0
 25 26  2  0
 26 27  1  0
 27 28  2  0
 28 29  1  0
 29 30  2  0
 30 31  1  0
 31 32  2  0
 32 33  1  0
 33 34  1  0
 34 35  2  0
  9  3  1  0
 35 12  1  0
 33  5  1  0
 18 13  1  0
 35 19  1  0
 25 20  1  0
 34 26  1  0
 32 27  1  0
  1 36  1  0
  1 37  1  0
  1 38  1  0
  2 39  1  0
  3 40  1  1
  4 41  1  0
  4 42  1  0
  5 43  1  6
  8 44  1  0
  8 45  1  0
  8 46  1  0
  9 47  1  6
 11 48  1  0
 11 49  1  0
 11 50  1  0
 14 51  1  0
 15 52  1  0
 16 53  1  0
 17 54  1  0
 21 55  1  0
 21 56  1  0
 22 57  1  0
 28 58  1  0
 29 59  1  0
 30 60  1  0
 31 61  1  0
M  END
$$$$
[H]c1nc(N([H])c2c([H])c([H])c(N3C([H])([H])C([H])([H])C([H])(N(C([H])([H])[H])C([H])([H])[H])C([H])([H])C3([H])[H])c([H])c2OC([H])([H])[H])nc(N([H])c2c([H])c([H])c([H])c([H])c2S(=O)(=O)C([H])(C([H])([H])[H])C([H])([H])[H])c1Cl
     RDKit          3D

 73 76  0  0  0  0  0  0  0  0999 V2000
   -1.4887   -3.5880    1.2680 C   0  0  0  0  0  0  0  0  0  0  0  0
   -0.7608   -2.5452    0.6863 O   0  0  0  0  0  0  0  0  0  0  0  0
   -1.4161   -1.4468    0.1649 C   0  0  0  0  0  0  0  0  0  0  0  0
   -2.7697   -1.3138    0.1835 C   0  0  0  0  0  0  0  0  0  0  0  0
   -3.4310   -0.2298   -0.3300 C   0  0  0  0  0  0  0  0  0  0  0  0
   -2.6699    0.7643   -0.8887 C   0  0  0  0  0  0  0  0  0  0  0  0
   -1.2837    0.6857   -0.9374 C   0  0  0  0  0  0  0  0  0  0  0  0
   -0.6456   -0.4090   -0.4169 C   0  0  0  0  0  0  0  0  0  0  0  0
    0.7306   -0.5530   -0.4331 N   0  0  0  0  0  0  0  0  0  0  0  0
    1.7028    0.3458   -0.9492 C   0  0  0  0  0  0  0  0  0  0  0  0
    1.4800    1.5214   -1.5269 N   0  0  0  0  0  0  0  0  0  0  0  0
    2.4593    2.3096   -1.9876 C   0  0  0  0  0  0  0  0  0  0  0  0
    3.7698    1.9304   -1.8818 C   0  0  0  0  0  0  0  0  0  0  0  0
    5.0878    2.9156   -2.4745 Cl  0  0  0  0  0  0  0  0  0  0  0  0
    4.0678    0.6884   -1.2753 C   0  0  0  0  0  0  0  0  0  0  0  0
    5.4172    0.3014   -1.1217 N   0  0  0  0  0  0  0  0  0  0  0  0
    5.8705   -0.9049   -0.5954 C   0  0  0  0  0  0  0  0  0  0  0  0
    5.0906   -2.0601   -0.5353 C   0  0  0  0  0  0  0  0  0  0  0  0
    5.6105   -3.2759   -0.1172 C   0  0  0  0  0  0  0  0  0  0  0  0
    6.9209   -3.3878    0.2545 C   0  0  0  0  0  0  0  0  0  0  0  0
    7.6858   -2.2549    0.1966 C   0  0  0  0  0  0  0  0  0  0  0  0
    7.2100   -1.0030   -0.2158 C   0  0  0  0  0  0  0  0  0  0  0  0
    8.2797    0.3289   -0.1092 S   0  0  0  0  0  0  0  0  0  0  0  0
    9.7039   -0.2341    0.1061 O   0  0  0  0  0  0  0  0  0  0  0  0
    8.4312    1.1263   -1.3815 O   0  0  0  0  0  0  0  0  0  0  0  0
    8.0255    1.4139    1.2573 C   0  0  0  0  0  0  0  0  0  0  0  0
    9.1794    2.4149    1.3719 C   0  0  0  0  0  0  0  0  0  0  0  0
    6.7769    2.1937    1.2396 C   0  0  0  0  0  0  0  0  0  0  0  0
    3.0226    0.0056   -0.8635 N   0  0  0  0  0  0  0  0  0  0  0  0
   -4.8624   -0.0923   -0.3072 N   0  0  0  0  0  0  0  0  0  0  0  0
   -5.5849   -1.1673    0.3276 C   0  0  0  0  0  0  0  0  0  0  0  0
   -7.0407   -0.9434    0.5155 C   0  0  0  0  0  0  0  0  0  0  0  0
   -7.4356    0.4949    0.3818 C   0  0  0  0  0  0  0  0  0  0  0  0
   -6.9640    0.9951   -0.9680 C   0  0  0  0  0  0  0  0  0  0  0  0
   -5.4597    1.0612   -0.8960 C   0  0  0  0  0  0  0  0  0  0  0  0
   -8.8564    0.6589    0.5708 N   0  0  0  0  0  0  0  0  0  0  0  0
   -9.2782    2.0230    0.4605 C   0  0  0  0  0  0  0  0  0  0  0  0
   -9.6390   -0.2430   -0.2416 C   0  0  0  0  0  0  0  0  0  0  0  0
   -0.7931   -4.1921    1.9054 H   0  0  0  0  0  0  0  0  0  0  0  0
   -1.9544   -4.2113    0.4616 H   0  0  0  0  0  0  0  0  0  0  0  0
   -2.2604   -3.2007    1.9817 H   0  0  0  0  0  0  0  0  0  0  0  0
   -3.3514   -2.1246    0.6360 H   0  0  0  0  0  0  0  0  0  0  0  0
   -3.1295    1.6488   -1.3125 H   0  0  0  0  0  0  0  0  0  0  0  0
   -0.7832    1.5103   -1.3929 H   0  0  0  0  0  0  0  0  0  0  0  0
    1.1068   -1.4691    0.0044 H   0  0  0  0  0  0  0  0  0  0  0  0
    2.2213    3.2667   -2.4541 H   0  0  0  0  0  0  0  0  0  0  0  0
    6.1140    0.9939   -1.4647 H   0  0  0  0  0  0  0  0  0  0  0  0
    4.0603   -2.0188   -0.8381 H   0  0  0  0  0  0  0  0  0  0  0  0
    4.9515   -4.1295   -0.0940 H   0  0  0  0  0  0  0  0  0  0  0  0
    7.3564   -4.3431    0.5885 H   0  0  0  0  0  0  0  0  0  0  0  0
    8.7315   -2.3610    0.4975 H   0  0  0  0  0  0  0  0  0  0  0  0
    8.1309    0.7711    2.1790 H   0  0  0  0  0  0  0  0  0  0  0  0
    9.2341    2.9999    0.4280 H   0  0  0  0  0  0  0  0  0  0  0  0
    8.8903    3.1190    2.1704 H   0  0  0  0  0  0  0  0  0  0  0  0
   10.1385    1.9091    1.5465 H   0  0  0  0  0  0  0  0  0  0  0  0
    6.6586    2.6546    0.2401 H   0  0  0  0  0  0  0  0  0  0  0  0
    5.9200    1.5461    1.5414 H   0  0  0  0  0  0  0  0  0  0  0  0
    6.8570    3.0425    1.9945 H   0  0  0  0  0  0  0  0  0  0  0  0
   -5.4057   -2.0834   -0.2985 H   0  0  0  0  0  0  0  0  0  0  0  0
   -5.1129   -1.3839    1.3330 H   0  0  0  0  0  0  0  0  0  0  0  0
   -7.3369   -1.2598    1.5530 H   0  0  0  0  0  0  0  0  0  0  0  0
   -7.5857   -1.5404   -0.2484 H   0  0  0  0  0  0  0  0  0  0  0  0
   -6.9204    1.0822    1.1579 H   0  0  0  0  0  0  0  0  0  0  0  0
   -7.3716    2.0047   -1.1693 H   0  0  0  0  0  0  0  0  0  0  0  0
   -7.2424    0.3151   -1.7855 H   0  0  0  0  0  0  0  0  0  0  0  0
   -5.0229    1.2094   -1.9181 H   0  0  0  0  0  0  0  0  0  0  0  0
   -5.2243    1.9555   -0.2465 H   0  0  0  0  0  0  0  0  0  0  0  0
   -9.3583    2.3936   -0.5797 H   0  0  0  0  0  0  0  0  0  0  0  0
   -8.5425    2.6556    1.0032 H   0  0  0  0  0  0  0  0  0  0  0  0
  -10.3018    2.1167    0.9062 H   0  0  0  0  0  0  0  0  0  0  0  0
  -10.5738    0.3178   -0.5167 H   0  0  0  0  0  0  0  0  0  0  0  0
   -9.1485   -0.5590   -1.1630 H   0  0  0  0  0  0  0  0  0  0  0  0
   -9.8879   -1.1629    0.3397 H   0  0  0  0  0  0  0  0  0  0  0  0
  1  2  1  0
  2  3  1  0
  3  4  2  0
  4  5  1  0
  5  6  2  0
  6  7  1  0
  7  8  2  0
  8  9  1  0
  9 10  1  0
 10 11  2  0
 11 12  1  0
 12 13  2  0
 13 14  1  0
 13 15  1  0
 15 16  1  0
 16 17  1  0
 17 18  2  0
 18 19  1  0
 19 20  2  0
 20 21  1  0
 21 22  2  0
 22 23  1  0
 23 24  2  0
 23 25  2  0
 23 26  1  0
 26 27  1  0
 26 28  1  0
 15 29  2  0
  5 30  1  0
 30 31  1  0
 31 32  1  0
 32 33  1  0
 33 34  1  0
 34 35  1  0
 33 36  1  0
 36 37  1  0
 36 38  1  0
  8  3  1  0
 29 10  1  0
 35 30  1  0
 22 17  1  0
  1 39  1  0
  1 40  1  0
  1 41  1  0
  4 42  1  0
  6 43  1  0
  7 44  1  0
  9 45  1  0
 12 46  1  0
 16 47  1  0
 18 48  1  0
 19 49  1  0
 20 50  1  0
 21 51  1  0
 26 52  1  0
 27 53  1  0
 27 54  1  0
 27 55  1  0
 28 56  1  0
 28 57  1  0
 28 58  1  0
 31 59  1  0
 31 60  1  0
 32 61  1  0
 32 62  1  0
 33 63  1  0
 34 64  1  0
 34 65  1  0
 35 66  1  0
 35 67  1  0
 37 68  1  0
 37 69  1  0
 37 70  1  0
 38 71  1  0
 38 72  1  0
 38 73  1  0
M  END
$$$$
[H]OC([H])([H])[C@@]1(O[H])C([H])([H])[C@@]2([H])O[C@]1(C([H])([H])[H])n1c3c([H])c([H])c([H])c([H])c3c3c4c(c5c6c([H])c([H])c([H])c([H])c6n2c5c31)C(=O)N([H])C4([H])[H]
     RDKit          3D

 54 61  0  0  0  0  0  0  0  0999 V2000
    3.1800    0.8838    1.3878 C   0  0  0  0  0  0  0  0  0  0  0  0
    2.1176    0.2237    0.5774 C   0  0  2  0  0  0  0  0  0  0  0  0
    1.6968   -0.7870    1.4854 O   0  0  0  0  0  0  0  0  0  0  0  0
    1.2511   -1.8639    0.7986 C   0  0  2  0  0  0  0  0  0  0  0  0
    2.0328   -1.9517   -0.4419 C   0  0  0  0  0  0  0  0  0  0  0  0
    2.6347   -0.5714   -0.5849 C   0  0  1  0  0  0  0  0  0  0  0  0
    2.2138   -0.0799   -1.8115 O   0  0  0  0  0  0  0  0  0  0  0  0
    4.1191   -0.7109   -0.6110 C   0  0  0  0  0  0  0  0  0  0  0  0
    4.4589   -1.5975   -1.6334 O   0  0  0  0  0  0  0  0  0  0  0  0
   -0.2014   -1.7853    0.5955 N   0  0  0  0  0  0  0  0  0  0  0  0
   -1.1044   -2.7499    0.6347 C   0  0  0  0  0  0  0  0  0  0  0  0
   -0.9179   -4.0868    0.8734 C   0  0  0  0  0  0  0  0  0  0  0  0
   -2.0299   -4.9199    0.8648 C   0  0  0  0  0  0  0  0  0  0  0  0
   -3.2823   -4.4161    0.6235 C   0  0  0  0  0  0  0  0  0  0  0  0
   -3.4758   -3.0511    0.3794 C   0  0  0  0  0  0  0  0  0  0  0  0
   -2.3768   -2.2421    0.3902 C   0  0  0  0  0  0  0  0  0  0  0  0
   -2.2053   -0.8905    0.1945 C   0  0  0  0  0  0  0  0  0  0  0  0
   -3.0670    0.1511   -0.0975 C   0  0  0  0  0  0  0  0  0  0  0  0
   -4.5001    0.2660   -0.2996 C   0  0  0  0  0  0  0  0  0  0  0  0
   -5.3884   -0.5871   -0.2658 O   0  0  0  0  0  0  0  0  0  0  0  0
   -4.7851    1.6416   -0.5724 N   0  0  0  0  0  0  0  0  0  0  0  0
   -3.5735    2.4248   -0.5610 C   0  0  0  0  0  0  0  0  0  0  0  0
   -2.5314    1.4168   -0.2472 C   0  0  0  0  0  0  0  0  0  0  0  0
   -1.1701    1.6669   -0.1133 C   0  0  0  0  0  0  0  0  0  0  0  0
   -0.3770    2.7657   -0.2198 C   0  0  0  0  0  0  0  0  0  0  0  0
   -0.7006    4.0705   -0.5126 C   0  0  0  0  0  0  0  0  0  0  0  0
    0.3203    5.0230   -0.5829 C   0  0  0  0  0  0  0  0  0  0  0  0
    1.6233    4.6180   -0.3553 C   0  0  0  0  0  0  0  0  0  0  0  0
    1.9232    3.2989   -0.0625 C   0  0  0  0  0  0  0  0  0  0  0  0
    0.9354    2.3466    0.0129 C   0  0  0  0  0  0  0  0  0  0  0  0
    0.9590    1.0103    0.2643 N   0  0  0  0  0  0  0  0  0  0  0  0
   -0.3578    0.6223    0.1746 C   0  0  0  0  0  0  0  0  0  0  0  0
   -0.8544   -0.6533    0.3299 C   0  0  0  0  0  0  0  0  0  0  0  0
    4.0624    1.2462    0.8471 H   0  0  0  0  0  0  0  0  0  0  0  0
    3.5596    0.1949    2.1815 H   0  0  0  0  0  0  0  0  0  0  0  0
    2.7312    1.7230    1.9466 H   0  0  0  0  0  0  0  0  0  0  0  0
    1.4219   -2.7643    1.4120 H   0  0  0  0  0  0  0  0  0  0  0  0
    1.4720   -2.2700   -1.3403 H   0  0  0  0  0  0  0  0  0  0  0  0
    2.8377   -2.7359   -0.3258 H   0  0  0  0  0  0  0  0  0  0  0  0
    2.8799   -0.3390   -2.4928 H   0  0  0  0  0  0  0  0  0  0  0  0
    4.5238   -1.1579    0.3296 H   0  0  0  0  0  0  0  0  0  0  0  0
    4.6358    0.2581   -0.8438 H   0  0  0  0  0  0  0  0  0  0  0  0
    4.7979   -2.4633   -1.2908 H   0  0  0  0  0  0  0  0  0  0  0  0
    0.0592   -4.4684    1.0598 H   0  0  0  0  0  0  0  0  0  0  0  0
   -1.8569   -5.9719    1.0560 H   0  0  0  0  0  0  0  0  0  0  0  0
   -4.1224   -5.0759    0.6219 H   0  0  0  0  0  0  0  0  0  0  0  0
   -4.4721   -2.7398    0.2018 H   0  0  0  0  0  0  0  0  0  0  0  0
   -5.7336    2.0654   -0.7610 H   0  0  0  0  0  0  0  0  0  0  0  0
   -3.6366    3.2333    0.1993 H   0  0  0  0  0  0  0  0  0  0  0  0
   -3.3846    2.8954   -1.5673 H   0  0  0  0  0  0  0  0  0  0  0  0
   -1.7294    4.3700   -0.6881 H   0  0  0  0  0  0  0  0  0  0  0  0
    0.0587    6.0490   -0.8135 H   0  0  0  0  0  0  0  0  0  0  0  0
    2.3774    5.3965   -0.4223 H   0  0  0  0  0  0  0  0  0  0  0  0
    2.9510    3.0689    0.0761 H   0  0  0  0  0  0  0  0  0  0  0  0
  2  1  1  1
  2  3  1  0
  3  4  1  0
  4  5  1  0
  5  6  1  0
  6  7  1  6
  6  8  1  0
  8  9  1  0
  4 10  1  0
 10 11  1  0
 11 12  2  0
 12 13  1  0
 13 14  2  0
 14 15  1  0
 15 16  2  0
 16 17  1  0
 17 18  2  0
 18 19  1  0
 19 20  2  0
 19 21  1  0
 21 22  1  0
 22 23  1  0
 23 24  2  0
 24 25  1  0
 25 26  2  0
 26 27  1  0
 27 28  2  0
 28 29  1  0
 29 30  2  0
 30 31  1  0
 31 32  1  0
 32 33  2  0
  6  2  1  0
 33 10  1  0
 31  2  1  0
 16 11  1  0
 33 17  1  0
 23 18  1  0
 32 24  1  0
 30 25  1  0
  1 34  1  0
  1 35  1  0
  1 36  1  0
  4 37  1  1
  5 38  1  0
  5 39  1  0
  7 40  1  0
  8 41  1  0
  8 42  1  0
  9 43  1  0
 12 44  1  0
 13 45  1  0
 14 46  1  0
 15 47  1  0
 21 48  1  0
 22 49  1  0
 22 50  1  0
 26 51  1  0
 27 52  1  0
 28 53  1  0
 29 54  1  0
M  END
$$$$
[H]c1c([H])c([H])c2c(c1[H])c1c3c(c4c5c([H])c([H])c([H])c([H])c5n5c4c1n2[C@]1([H])O[C@]5(C([H])([H])[H])[C@]([H])(OC([H])([H])[H])[C@@]([H])(N([H])C([H])([H])[H])C1([H])[H])C([H])([H])N([H])C3=O
     RDKit          3D

 61 68  0  0  0  0  0  0  0  0999 V2000
   -4.6729    2.4704    0.6701 C   0  0  0  0  0  0  0  0  0  0  0  0
   -3.9561    1.2431    0.7989 N   0  0  0  0  0  0  0  0  0  0  0  0
   -3.1827    0.9142   -0.3838 C   0  0  1  0  0  0  0  0  0  0  0  0
   -2.1402    2.0723   -0.5185 C   0  0  0  0  0  0  0  0  0  0  0  0
   -0.9578    1.3809   -0.4239 C   0  0  1  0  0  0  0  0  0  0  0  0
   -1.0012    0.5004   -1.5008 O   0  0  0  0  0  0  0  0  0  0  0  0
   -1.3700   -0.7676   -0.9505 C   0  0  2  0  0  0  0  0  0  0  0  0
   -1.7787   -1.5242   -2.2382 C   0  0  0  0  0  0  0  0  0  0  0  0
   -2.4988   -0.4528   -0.0976 C   0  0  2  0  0  0  0  0  0  0  0  0
   -3.5516   -1.3395   -0.4711 O   0  0  0  0  0  0  0  0  0  0  0  0
   -4.0462   -2.0650    0.5660 C   0  0  0  0  0  0  0  0  0  0  0  0
   -0.1182   -1.2988   -0.4529 N   0  0  0  0  0  0  0  0  0  0  0  0
    0.2026   -2.6147   -0.3684 C   0  0  0  0  0  0  0  0  0  0  0  0
   -0.5266   -3.7517   -0.5683 C   0  0  0  0  0  0  0  0  0  0  0  0
    0.0524   -5.0036   -0.4051 C   0  0  0  0  0  0  0  0  0  0  0  0
    1.3926   -5.1477   -0.0325 C   0  0  0  0  0  0  0  0  0  0  0  0
    2.1371   -4.0052    0.1725 C   0  0  0  0  0  0  0  0  0  0  0  0
    1.5289   -2.7803    0.0012 C   0  0  0  0  0  0  0  0  0  0  0  0
    2.0485   -1.5465    0.1558 C   0  0  0  0  0  0  0  0  0  0  0  0
    3.3025   -1.0014    0.4712 C   0  0  0  0  0  0  0  0  0  0  0  0
    4.5400   -1.7303    0.7940 C   0  0  0  0  0  0  0  0  0  0  0  0
    5.5206   -0.7063    1.0489 N   0  0  0  0  0  0  0  0  0  0  0  0
    4.9204    0.5944    0.8755 C   0  0  0  0  0  0  0  0  0  0  0  0
    5.6103    1.6121    1.0433 O   0  0  0  0  0  0  0  0  0  0  0  0
    3.5413    0.3604    0.5176 C   0  0  0  0  0  0  0  0  0  0  0  0
    2.5227    1.2647    0.2507 C   0  0  0  0  0  0  0  0  0  0  0  0
    2.3682    2.6229    0.2472 C   0  0  0  0  0  0  0  0  0  0  0  0
    3.2205    3.6549    0.4650 C   0  0  0  0  0  0  0  0  0  0  0  0
    2.7083    4.9621    0.3758 C   0  0  0  0  0  0  0  0  0  0  0  0
    1.3816    5.1770    0.0757 C   0  0  0  0  0  0  0  0  0  0  0  0
    0.5187    4.1120   -0.1455 C   0  0  0  0  0  0  0  0  0  0  0  0
    1.0401    2.8494   -0.0530 C   0  0  0  0  0  0  0  0  0  0  0  0
    0.3949    1.7020   -0.2301 N   0  0  0  0  0  0  0  0  0  0  0  0
    1.3072    0.7097   -0.0536 C   0  0  0  0  0  0  0  0  0  0  0  0
    1.0653   -0.6739   -0.1093 C   0  0  0  0  0  0  0  0  0  0  0  0
   -4.1378    3.2896    1.1811 H   0  0  0  0  0  0  0  0  0  0  0  0
   -4.9117    2.6802   -0.3866 H   0  0  0  0  0  0  0  0  0  0  0  0
   -5.6527    2.3385    1.2050 H   0  0  0  0  0  0  0  0  0  0  0  0
   -3.2976    1.2798    1.6344 H   0  0  0  0  0  0  0  0  0  0  0  0
   -3.8488    0.8666   -1.2338 H   0  0  0  0  0  0  0  0  0  0  0  0
   -2.3900    2.5503   -1.5008 H   0  0  0  0  0  0  0  0  0  0  0  0
   -2.3278    2.8494    0.2401 H   0  0  0  0  0  0  0  0  0  0  0  0
   -1.1232    0.8155    0.6063 H   0  0  0  0  0  0  0  0  0  0  0  0
   -2.0290   -0.8100   -3.0632 H   0  0  0  0  0  0  0  0  0  0  0  0
   -0.9380   -2.1222   -2.6367 H   0  0  0  0  0  0  0  0  0  0  0  0
   -2.6973   -2.1123   -2.1005 H   0  0  0  0  0  0  0  0  0  0  0  0
   -2.3910   -0.6283    0.9834 H   0  0  0  0  0  0  0  0  0  0  0  0
   -3.2245   -2.6856    1.0089 H   0  0  0  0  0  0  0  0  0  0  0  0
   -4.7508   -2.8108    0.1278 H   0  0  0  0  0  0  0  0  0  0  0  0
   -4.5876   -1.5274    1.3339 H   0  0  0  0  0  0  0  0  0  0  0  0
   -1.5381   -3.7221   -0.8394 H   0  0  0  0  0  0  0  0  0  0  0  0
   -0.5262   -5.8823   -0.5635 H   0  0  0  0  0  0  0  0  0  0  0  0
    1.8193   -6.1363    0.0880 H   0  0  0  0  0  0  0  0  0  0  0  0
    3.1750   -4.0914    0.4618 H   0  0  0  0  0  0  0  0  0  0  0  0
    4.3470   -2.2880    1.7377 H   0  0  0  0  0  0  0  0  0  0  0  0
    4.8560   -2.4302   -0.0043 H   0  0  0  0  0  0  0  0  0  0  0  0
    6.5043   -0.9356    1.3160 H   0  0  0  0  0  0  0  0  0  0  0  0
    4.2542    3.5201    0.6968 H   0  0  0  0  0  0  0  0  0  0  0  0
    3.4136    5.7638    0.5555 H   0  0  0  0  0  0  0  0  0  0  0  0
    0.9998    6.1818    0.0099 H   0  0  0  0  0  0  0  0  0  0  0  0
   -0.5210    4.2535   -0.3844 H   0  0  0  0  0  0  0  0  0  0  0  0
  1  2  1  0
  2  3  1  0
  3  4  1  0
  4  5  1  0
  5  6  1  0
  6  7  1  0
  7  8  1  6
  7  9  1  0
  9 10  1  0
 10 11  1  0
  7 12  1  0
 12 13  1  0
 13 14  2  0
 14 15  1  0
 15 16  2  0
 16 17  1  0
 17 18  2  0
 18 19  1  0
 19 20  2  0
 20 21  1  0
 21 22  1  0
 22 23  1  0
 23 24  2  0
 23 25  1  0
 25 26  2  0
 26 27  1  0
 27 28  2  0
 28 29  1  0
 29 30  2  0
 30 31  1  0
 31 32  2  0
 32 33  1  0
 33 34  1  0
 34 35  2  0
  9  3  1  0
 35 12  1  0
 33  5  1  0
 18 13  1  0
 35 19  1  0
 25 20  1  0
 34 26  1  0
 32 27  1  0
  1 36  1  0
  1 37  1  0
  1 38  1  0
  2 39  1  0
  3 40  1  6
  4 41  1  0
  4 42  1  0
  5 43  1  1
  8 44  1  0
  8 45  1  0
  8 46  1  0
  9 47  1  1
 11 48  1  0
 11 49  1  0
 11 50  1  0
 14 51  1  0
 15 52  1  0
 16 53  1  0
 17 54  1  0
 21 55  1  0
 21 56  1  0
 22 57  1  0
 28 58  1  0
 29 59  1  0
 30 60  1  0
 31 61  1  0
M  END
$$$$
[H]OC(=O)C([H])([H])C([H])([H])C([H])([H])c1c([H])c(C([H])([H])[H])c2c(c1[H])c1nn([H])c(C([H])([H])[H])c1c(=O)n2C([H])([H])C(F)(F)F
     RDKit          3D

 45 47  0  0  0  0  0  0  0  0999 V2000
   -4.2812    3.2660    1.4041 C   0  0  0  0  0  0  0  0  0  0  0  0
   -2.9316    2.9521    0.9622 C   0  0  0  0  0  0  0  0  0  0  0  0
   -1.9104    3.8018    0.8257 N   0  0  0  0  0  0  0  0  0  0  0  0
   -0.8270    3.1591    0.3999 N   0  0  0  0  0  0  0  0  0  0  0  0
   -1.1684    1.8413    0.2576 C   0  0  0  0  0  0  0  0  0  0  0  0
   -2.4624    1.7216    0.6045 C   0  0  0  0  0  0  0  0  0  0  0  0
   -3.0428    0.4944    0.5420 C   0  0  0  0  0  0  0  0  0  0  0  0
   -4.2867    0.3887    0.8787 O   0  0  0  0  0  0  0  0  0  0  0  0
   -2.4067   -0.6701    0.1454 N   0  0  0  0  0  0  0  0  0  0  0  0
   -3.1267   -1.8750    0.0227 C   0  0  0  0  0  0  0  0  0  0  0  0
   -4.0115   -2.0199   -1.1917 C   0  0  0  0  0  0  0  0  0  0  0  0
   -3.4706   -1.9128   -2.4240 F   0  0  0  0  0  0  0  0  0  0  0  0
   -4.6351   -3.2991   -1.1640 F   0  0  0  0  0  0  0  0  0  0  0  0
   -5.1318   -1.2121   -1.2358 F   0  0  0  0  0  0  0  0  0  0  0  0
   -1.1116   -0.5432   -0.1875 C   0  0  0  0  0  0  0  0  0  0  0  0
   -0.3712   -1.6477   -0.5402 C   0  0  0  0  0  0  0  0  0  0  0  0
   -0.8891   -2.9942   -0.4526 C   0  0  0  0  0  0  0  0  0  0  0  0
    0.9995   -1.4351   -0.8529 C   0  0  0  0  0  0  0  0  0  0  0  0
    1.6090   -0.2161   -0.8156 C   0  0  0  0  0  0  0  0  0  0  0  0
    3.0288   -0.0684   -1.1546 C   0  0  0  0  0  0  0  0  0  0  0  0
    3.9380   -0.2201    0.0426 C   0  0  0  0  0  0  0  0  0  0  0  0
    5.3733   -0.0429   -0.4623 C   0  0  0  0  0  0  0  0  0  0  0  0
    6.3344   -0.1784    0.6607 C   0  0  0  0  0  0  0  0  0  0  0  0
    7.6796   -0.0426    0.3619 O   0  0  0  0  0  0  0  0  0  0  0  0
    5.9745   -0.4043    1.8307 O   0  0  0  0  0  0  0  0  0  0  0  0
    0.8567    0.8619   -0.4528 C   0  0  0  0  0  0  0  0  0  0  0  0
   -0.4833    0.7209   -0.1365 C   0  0  0  0  0  0  0  0  0  0  0  0
   -4.7590    2.5187    2.0357 H   0  0  0  0  0  0  0  0  0  0  0  0
   -4.9307    3.3765    0.4873 H   0  0  0  0  0  0  0  0  0  0  0  0
   -4.3296    4.2788    1.8985 H   0  0  0  0  0  0  0  0  0  0  0  0
   -1.9105    4.8237    1.0117 H   0  0  0  0  0  0  0  0  0  0  0  0
   -3.0200   -2.7471    0.6435 H   0  0  0  0  0  0  0  0  0  0  0  0
   -4.0171   -1.5838    0.7488 H   0  0  0  0  0  0  0  0  0  0  0  0
   -1.0325   -3.4107    0.5732 H   0  0  0  0  0  0  0  0  0  0  0  0
   -1.4364   -3.4433   -1.2689 H   0  0  0  0  0  0  0  0  0  0  0  0
    0.0606   -3.6512   -0.6288 H   0  0  0  0  0  0  0  0  0  0  0  0
    1.5663   -2.3153   -1.1384 H   0  0  0  0  0  0  0  0  0  0  0  0
    3.3552   -0.6968   -1.9957 H   0  0  0  0  0  0  0  0  0  0  0  0
    3.1730    0.9949   -1.5085 H   0  0  0  0  0  0  0  0  0  0  0  0
    3.7607    0.5316    0.8058 H   0  0  0  0  0  0  0  0  0  0  0  0
    3.8512   -1.2676    0.3947 H   0  0  0  0  0  0  0  0  0  0  0  0
    5.6091   -0.8450   -1.2154 H   0  0  0  0  0  0  0  0  0  0  0  0
    5.5092    0.9315   -0.9684 H   0  0  0  0  0  0  0  0  0  0  0  0
    8.0292    0.2091   -0.5430 H   0  0  0  0  0  0  0  0  0  0  0  0
    1.2756    1.8704   -0.3977 H   0  0  0  0  0  0  0  0  0  0  0  0
  1  2  1  0
  2  3  1  0
  3  4  1  0
  4  5  2  0
  5  6  1  0
  6  7  1  0
  7  8  2  0
  7  9  1  0
  9 10  1  0
 10 11  1  0
 11 12  1  0
 11 13  1  0
 11 14  1  0
  9 15  1  0
 15 16  2  0
 16 17  1  0
 16 18  1  0
 18 19  2  0
 19 20  1  0
 20 21  1  0
 21 22  1  0
 22 23  1  0
 23 24  1  0
 23 25  2  0
 19 26  1  0
 26 27  2  0
  6  2  2  0
 27 15  1  0
 27  5  1  0
  1 28  1  0
  1 29  1  0
  1 30  1  0
  3 31  1  0
 10 32  1  0
 10 33  1  0
 17 34  1  0
 17 35  1  0
 17 36  1  0
 18 37  1  0
 20 38  1  0
 20 39  1  0
 21 40  1  0
 21 41  1  0
 22 42  1  0
 22 43  1  0
 24 44  1  0
 26 45  1  0
M  END
$$$$
[H]OC([H])([H])[C@@]1(O[H])C([H])([H])[C@@]2([H])O[C@]1(C([H])([H])[H])n1c3c([H])c([H])c([H])c([H])c3c3c4c(c5c6c([H])c([H])c([H])c([H])c6n2c5c31)C(=O)N([H])C4([H])[H]
     RDKit          3D

 54 61  0  0  0  0  0  0  0  0999 V2000
    3.1800    0.8838    1.3878 C   0  0  0  0  0  0  0  0  0  0  0  0
    2.1176    0.2237    0.5774 C   0  0  2  0  0  0  0  0  0  0  0  0
    1.6968   -0.7870    1.4854 O   0  0  0  0  0  0  0  0  0  0  0  0
    1.2511   -1.8639    0.7986 C   0  0  2  0  0  0  0  0  0  0  0  0
    2.0328   -1.9517   -0.4419 C   0  0  0  0  0  0  0  0  0  0  0  0
    2.6347   -0.5714   -0.5849 C   0  0  1  0  0  0  0  0  0  0  0  0
    2.2138   -0.0799   -1.8115 O   0  0  0  0  0  0  0  0  0  0  0  0
    4.1191   -0.7109   -0.6110 C   0  0  0  0  0  0  0  0  0  0  0  0
    4.4589   -1.5975   -1.6334 O   0  0  0  0  0  0  0  0  0  0  0  0
   -0.2014   -1.7853    0.5955 N   0  0  0  0  0  0  0  0  0  0  0  0
   -1.1044   -2.7499    0.6347 C   0  0  0  0  0  0  0  0  0  0  0  0
   -0.9179   -4.0868    0.8734 C   0  0  0  0  0  0  0  0  0  0  0  0
   -2.0299   -4.9199    0.8648 C   0  0  0  0  0  0  0  0  0  0  0  0
   -3.2823   -4.4161    0.6235 C   0  0  0  0  0  0  0  0  0  0  0  0
   -3.4758   -3.0511    0.3794 C   0  0  0  0  0  0  0  0  0  0  0  0
   -2.3768   -2.2421    0.3902 C   0  0  0  0  0  0  0  0  0  0  0  0
   -2.2053   -0.8905    0.1945 C   0  0  0  0  0  0  0  0  0  0  0  0
   -3.0670    0.1511   -0.0975 C   0  0  0  0  0  0  0  0  0  0  0  0
   -4.5001    0.2660   -0.2996 C   0  0  0  0  0  0  0  0  0  0  0  0
   -5.3884   -0.5871   -0.2658 O   0  0  0  0  0  0  0  0  0  0  0  0
   -4.7851    1.6416   -0.5724 N   0  0  0  0  0  0  0  0  0  0  0  0
   -3.5735    2.4248   -0.5610 C   0  0  0  0  0  0  0  0  0  0  0  0
   -2.5314    1.4168   -0.2472 C   0  0  0  0  0  0  0  0  0  0  0  0
   -1.1701    1.6669   -0.1133 C   0  0  0  0  0  0  0  0  0  0  0  0
   -0.3770    2.7657   -0.2198 C   0  0  0  0  0  0  0  0  0  0  0  0
   -0.7006    4.0705   -0.5126 C   0  0  0  0  0  0  0  0  0  0  0  0
    0.3203    5.0230   -0.5829 C   0  0  0  0  0  0  0  0  0  0  0  0
    1.6233    4.6180   -0.3553 C   0  0  0  0  0  0  0  0  0  0  0  0
    1.9232    3.2989   -0.0625 C   0  0  0  0  0  0  0  0  0  0  0  0
    0.9354    2.3466    0.0129 C   0  0  0  0  0  0  0  0  0  0  0  0
    0.9590    1.0103    0.2643 N   0  0  0  0  0  0  0  0  0  0  0  0
   -0.3578    0.6223    0.1746 C   0  0  0  0  0  0  0  0  0  0  0  0
   -0.8544   -0.6533    0.3299 C   0  0  0  0  0  0  0  0  0  0  0  0
    4.0624    1.2462    0.8471 H   0  0  0  0  0  0  0  0  0  0  0  0
    3.5596    0.1949    2.1815 H   0  0  0  0  0  0  0  0  0  0  0  0
    2.7312    1.7230    1.9466 H   0  0  0  0  0  0  0  0  0  0  0  0
    1.4219   -2.7643    1.4120 H   0  0  0  0  0  0  0  0  0  0  0  0
    1.4720   -2.2700   -1.3403 H   0  0  0  0  0  0  0  0  0  0  0  0
    2.8377   -2.7359   -0.3258 H   0  0  0  0  0  0  0  0  0  0  0  0
    2.8799   -0.3390   -2.4928 H   0  0  0  0  0  0  0  0  0  0  0  0
    4.5238   -1.1579    0.3296 H   0  0  0  0  0  0  0  0  0  0  0  0
    4.6358    0.2581   -0.8438 H   0  0  0  0  0  0  0  0  0  0  0  0
    4.7979   -2.4633   -1.2908 H   0  0  0  0  0  0  0  0  0  0  0  0
    0.0592   -4.4684    1.0598 H   0  0  0  0  0  0  0  0  0  0  0  0
   -1.8569   -5.9719    1.0560 H   0  0  0  0  0  0  0  0  0  0  0  0
   -4.1224   -5.0759    0.6219 H   0  0  0  0  0  0  0  0  0  0  0  0
   -4.4721   -2.7398    0.2018 H   0  0  0  0  0  0  0  0  0  0  0  0
   -5.7336    2.0654   -0.7610 H   0  0  0  0  0  0  0  0  0  0  0  0
   -3.6366    3.2333    0.1993 H   0  0  0  0  0  0  0  0  0  0  0  0
   -3.3846    2.8954   -1.5673 H   0  0  0  0  0  0  0  0  0  0  0  0
   -1.7294    4.3700   -0.6881 H   0  0  0  0  0  0  0  0  0  0  0  0
    0.0587    6.0490   -0.8135 H   0  0  0  0  0  0  0  0  0  0  0  0
    2.3774    5.3965   -0.4223 H   0  0  0  0  0  0  0  0  0  0  0  0
    2.9510    3.0689    0.0761 H   0  0  0  0  0  0  0  0  0  0  0  0
  2  1  1  1
  2  3  1  0
  3  4  1  0
  4  5  1  0
  5  6  1  0
  6  7  1  6
  6  8  1  0
  8  9  1  0
  4 10  1  0
 10 11  1  0
 11 12  2  0
 12 13  1  0
 13 14  2  0
 14 15  1  0
 15 16  2  0
 16 17  1  0
 17 18  2  0
 18 19  1  0
 19 20  2  0
 19 21  1  0
 21 22  1  0
 22 23  1  0
 23 24  2  0
 24 25  1  0
 25 26  2  0
 26 27  1  0
 27 28  2  0
 28 29  1  0
 29 30  2  0
 30 31  1  0
 31 32  1  0
 32 33  2  0
  6  2  1  0
 33 10  1  0
 31  2  1  0
 16 11  1  0
 33 17  1  0
 23 18  1  0
 32 24  1  0
 30 25  1  0
  1 34  1  0
  1 35  1  0
  1 36  1  0
  4 37  1  1
  5 38  1  0
  5 39  1  0
  7 40  1  0
  8 41  1  0
  8 42  1  0
  9 43  1  0
 12 44  1  0
 13 45  1  0
 14 46  1  0
 15 47  1  0
 21 48  1  0
 22 49  1  0
 22 50  1  0
 26 51  1  0
 27 52  1  0
 28 53  1  0
 29 54  1  0
M  END
$$$$
[H]c1c([H])c(C([H])([H])n2c(=O)n([H])c3c([H])c([H])c([H])c([H])c32)c([H])c([H])c1OC([H])([H])C([H])([H])C([H])([H])N1C([H])([H])C([H])([H])N([H])C([H])([H])C1([H])[H]
     RDKit          3D

 53 56  0  0  0  0  0  0  0  0999 V2000
    4.5480   -1.2639    2.8102 O   0  0  0  0  0  0  0  0  0  0  0  0
    5.1662   -0.7135    1.8584 C   0  0  0  0  0  0  0  0  0  0  0  0
    6.1052    0.2333    2.0110 N   0  0  0  0  0  0  0  0  0  0  0  0
    6.5714    0.6142    0.8034 C   0  0  0  0  0  0  0  0  0  0  0  0
    7.5372    1.5507    0.4283 C   0  0  0  0  0  0  0  0  0  0  0  0
    7.8101    1.7293   -0.9100 C   0  0  0  0  0  0  0  0  0  0  0  0
    7.1289    0.9847   -1.8505 C   0  0  0  0  0  0  0  0  0  0  0  0
    6.1822    0.0691   -1.4478 C   0  0  0  0  0  0  0  0  0  0  0  0
    5.8813   -0.1382   -0.1200 C   0  0  0  0  0  0  0  0  0  0  0  0
    5.0281   -0.9434    0.5346 N   0  0  0  0  0  0  0  0  0  0  0  0
    4.1005   -1.9099   -0.0567 C   0  0  0  0  0  0  0  0  0  0  0  0
    2.7754   -1.3059   -0.3500 C   0  0  0  0  0  0  0  0  0  0  0  0
    1.7705   -1.3229    0.6011 C   0  0  0  0  0  0  0  0  0  0  0  0
    0.5322   -0.7639    0.3401 C   0  0  0  0  0  0  0  0  0  0  0  0
    0.2455   -0.1690   -0.8705 C   0  0  0  0  0  0  0  0  0  0  0  0
   -0.9996    0.4001   -1.1502 O   0  0  0  0  0  0  0  0  0  0  0  0
   -2.0573    0.4195   -0.2412 C   0  0  0  0  0  0  0  0  0  0  0  0
   -3.2321    1.1160   -0.8992 C   0  0  0  0  0  0  0  0  0  0  0  0
   -4.4075    1.1611    0.0528 C   0  0  0  0  0  0  0  0  0  0  0  0
   -4.8268   -0.1656    0.4353 N   0  0  0  0  0  0  0  0  0  0  0  0
   -5.9497   -0.0510    1.3426 C   0  0  0  0  0  0  0  0  0  0  0  0
   -7.1006    0.6246    0.6916 C   0  0  0  0  0  0  0  0  0  0  0  0
   -7.4228    0.2293   -0.6116 N   0  0  0  0  0  0  0  0  0  0  0  0
   -6.4414   -0.4088   -1.3959 C   0  0  0  0  0  0  0  0  0  0  0  0
   -5.2591   -0.9547   -0.6775 C   0  0  0  0  0  0  0  0  0  0  0  0
    1.2473   -0.1525   -1.8174 C   0  0  0  0  0  0  0  0  0  0  0  0
    2.4828   -0.7090   -1.5603 C   0  0  0  0  0  0  0  0  0  0  0  0
    6.4522    0.6414    2.9044 H   0  0  0  0  0  0  0  0  0  0  0  0
    8.0661    2.1286    1.1540 H   0  0  0  0  0  0  0  0  0  0  0  0
    8.5559    2.4485   -1.2578 H   0  0  0  0  0  0  0  0  0  0  0  0
    7.3225    1.1038   -2.9084 H   0  0  0  0  0  0  0  0  0  0  0  0
    5.6505   -0.5123   -2.1836 H   0  0  0  0  0  0  0  0  0  0  0  0
    4.5623   -2.2988   -0.9986 H   0  0  0  0  0  0  0  0  0  0  0  0
    4.0275   -2.7623    0.6382 H   0  0  0  0  0  0  0  0  0  0  0  0
    1.9925   -1.7901    1.5532 H   0  0  0  0  0  0  0  0  0  0  0  0
   -0.2439   -0.7837    1.0911 H   0  0  0  0  0  0  0  0  0  0  0  0
   -1.8165    0.8683    0.7218 H   0  0  0  0  0  0  0  0  0  0  0  0
   -2.3864   -0.6407   -0.0704 H   0  0  0  0  0  0  0  0  0  0  0  0
   -3.4689    0.6395   -1.8619 H   0  0  0  0  0  0  0  0  0  0  0  0
   -2.9377    2.1818   -1.0747 H   0  0  0  0  0  0  0  0  0  0  0  0
   -4.1139    1.7371    0.9300 H   0  0  0  0  0  0  0  0  0  0  0  0
   -5.2465    1.6803   -0.4573 H   0  0  0  0  0  0  0  0  0  0  0  0
   -6.2654   -1.0090    1.7543 H   0  0  0  0  0  0  0  0  0  0  0  0
   -5.6050    0.5769    2.1934 H   0  0  0  0  0  0  0  0  0  0  0  0
   -6.9305    1.7364    0.7105 H   0  0  0  0  0  0  0  0  0  0  0  0
   -8.0021    0.4789    1.3542 H   0  0  0  0  0  0  0  0  0  0  0  0
   -8.3696   -0.1448   -0.7679 H   0  0  0  0  0  0  0  0  0  0  0  0
   -6.9290   -1.2725   -1.9371 H   0  0  0  0  0  0  0  0  0  0  0  0
   -6.0996    0.2710   -2.2031 H   0  0  0  0  0  0  0  0  0  0  0  0
   -5.5143   -1.9701   -0.2842 H   0  0  0  0  0  0  0  0  0  0  0  0
   -4.4076   -1.1028   -1.3674 H   0  0  0  0  0  0  0  0  0  0  0  0
    1.0359    0.3182   -2.7892 H   0  0  0  0  0  0  0  0  0  0  0  0
    3.2559   -0.6834   -2.3243 H   0  0  0  0  0  0  0  0  0  0  0  0
  1  2  2  0
  2  3  1  0
  3  4  1  0
  4  5  2  0
  5  6  1  0
  6  7  2  0
  7  8  1  0
  8  9  2  0
  9 10  1  0
 10 11  1  0
 11 12  1  0
 12 13  2  0
 13 14  1  0
 14 15  2  0
 15 16  1  0
 16 17  1  0
 17 18  1  0
 18 19  1  0
 19 20  1  0
 20 21  1  0
 21 22  1  0
 22 23  1  0
 23 24  1  0
 24 25  1  0
 15 26  1  0
 26 27  2  0
 10  2  1  0
 27 12  1  0
  9  4  1  0
 25 20  1  0
  3 28  1  0
  5 29  1  0
  6 30  1  0
  7 31  1  0
  8 32  1  0
 11 33  1  0
 11 34  1  0
 13 35  1  0
 14 36  1  0
 17 37  1  0
 17 38  1  0
 18 39  1  0
 18 40  1  0
 19 41  1  0
 19 42  1  0
 21 43  1  0
 21 44  1  0
 22 45  1  0
 22 46  1  0
 23 47  1  0
 24 48  1  0
 24 49  1  0
 25 50  1  0
 25 51  1  0
 26 52  1  0
 27 53  1  0
M  END
$$$$
[H]/C(=C1/C(=O)N(C([H])([H])[H])c2c([H])nc(N([H])c3c([H])c([H])c(N4C([H])([H])C([H])([H])N(C([H])([H])c5c([H])c([H])c([H])c([H])c5[H])C([H])([H])C4([H])[H])c([H])c3OC([H])([H])[H])nc21)c1c([H])nc([H])c([H])c1[H]
     RDKit          3D

 71 76  0  0  0  0  0  0  0  0999 V2000
    0.1681    2.8913    2.4143 C   0  0  0  0  0  0  0  0  0  0  0  0
   -0.4936    1.8857    1.6862 O   0  0  0  0  0  0  0  0  0  0  0  0
    0.1812    0.9453    0.9216 C   0  0  0  0  0  0  0  0  0  0  0  0
    1.5638    0.9881    0.8662 C   0  0  0  0  0  0  0  0  0  0  0  0
    2.2422    0.0533    0.1072 C   0  0  0  0  0  0  0  0  0  0  0  0
    1.5364   -0.8932   -0.5736 C   0  0  0  0  0  0  0  0  0  0  0  0
    0.1339   -0.9245   -0.5074 C   0  0  0  0  0  0  0  0  0  0  0  0
   -0.5656   -0.0146    0.2339 C   0  0  0  0  0  0  0  0  0  0  0  0
   -1.9351   -0.0108    0.3652 N   0  0  0  0  0  0  0  0  0  0  0  0
   -2.9422   -0.7573   -0.2762 C   0  0  0  0  0  0  0  0  0  0  0  0
   -2.6743   -1.6506   -1.2172 N   0  0  0  0  0  0  0  0  0  0  0  0
   -3.6205   -2.3901   -1.8524 C   0  0  0  0  0  0  0  0  0  0  0  0
   -4.9565   -2.2115   -1.5056 C   0  0  0  0  0  0  0  0  0  0  0  0
   -6.1501   -2.8188   -1.9798 N   0  0  0  0  0  0  0  0  0  0  0  0
   -6.2998   -3.8369   -2.9994 C   0  0  0  0  0  0  0  0  0  0  0  0
   -7.2723   -2.2503   -1.2635 C   0  0  0  0  0  0  0  0  0  0  0  0
   -8.4794   -2.5535   -1.4229 O   0  0  0  0  0  0  0  0  0  0  0  0
   -6.7234   -1.2910   -0.3528 C   0  0  0  0  0  0  0  0  0  0  0  0
   -7.3767   -0.5141    0.4918 C   0  0  0  0  0  0  0  0  0  0  0  0
   -8.8166   -0.4684    0.6646 C   0  0  0  0  0  0  0  0  0  0  0  0
   -9.3076   -0.7364    1.9489 C   0  0  0  0  0  0  0  0  0  0  0  0
  -10.6669   -0.6522    2.1874 C   0  0  0  0  0  0  0  0  0  0  0  0
  -11.5683   -0.3119    1.2004 C   0  0  0  0  0  0  0  0  0  0  0  0
  -11.0768   -0.0573   -0.0310 N   0  0  0  0  0  0  0  0  0  0  0  0
   -9.7408   -0.1342   -0.2845 C   0  0  0  0  0  0  0  0  0  0  0  0
   -5.2497   -1.2883   -0.5295 C   0  0  0  0  0  0  0  0  0  0  0  0
   -4.2527   -0.6051    0.0417 N   0  0  0  0  0  0  0  0  0  0  0  0
    3.6665    0.1736    0.1026 N   0  0  0  0  0  0  0  0  0  0  0  0
    4.3494    1.4414    0.2791 C   0  0  0  0  0  0  0  0  0  0  0  0
    5.3452    1.5969   -0.8567 C   0  0  0  0  0  0  0  0  0  0  0  0
    6.1569    0.4753   -1.0566 N   0  0  0  0  0  0  0  0  0  0  0  0
    7.5327    0.6298   -1.3064 C   0  0  0  0  0  0  0  0  0  0  0  0
    8.3021    1.3175   -0.2615 C   0  0  0  0  0  0  0  0  0  0  0  0
    8.7403    2.6048   -0.4367 C   0  0  0  0  0  0  0  0  0  0  0  0
    9.4671    3.2745    0.5411 C   0  0  0  0  0  0  0  0  0  0  0  0
    9.7383    2.6025    1.7035 C   0  0  0  0  0  0  0  0  0  0  0  0
    9.3028    1.3196    1.8812 C   0  0  0  0  0  0  0  0  0  0  0  0
    8.5870    0.6710    0.9093 C   0  0  0  0  0  0  0  0  0  0  0  0
    5.5918   -0.8049   -1.0203 C   0  0  0  0  0  0  0  0  0  0  0  0
    4.4778   -1.0118   -0.0533 C   0  0  0  0  0  0  0  0  0  0  0  0
    0.8422    2.3788    3.1481 H   0  0  0  0  0  0  0  0  0  0  0  0
    0.6990    3.6342    1.7993 H   0  0  0  0  0  0  0  0  0  0  0  0
   -0.6008    3.4128    3.0599 H   0  0  0  0  0  0  0  0  0  0  0  0
    2.1161    1.7504    1.4173 H   0  0  0  0  0  0  0  0  0  0  0  0
    2.0595   -1.6205   -1.1754 H   0  0  0  0  0  0  0  0  0  0  0  0
   -0.3176   -1.7032   -1.0679 H   0  0  0  0  0  0  0  0  0  0  0  0
   -2.3596    0.6869    1.1006 H   0  0  0  0  0  0  0  0  0  0  0  0
   -3.3237   -3.1025   -2.6127 H   0  0  0  0  0  0  0  0  0  0  0  0
   -5.5205   -3.6339   -3.7872 H   0  0  0  0  0  0  0  0  0  0  0  0
   -6.2303   -4.8515   -2.5804 H   0  0  0  0  0  0  0  0  0  0  0  0
   -7.2833   -3.7155   -3.5433 H   0  0  0  0  0  0  0  0  0  0  0  0
   -6.7248    0.1500    1.1074 H   0  0  0  0  0  0  0  0  0  0  0  0
   -8.6242   -1.0049    2.7288 H   0  0  0  0  0  0  0  0  0  0  0  0
  -11.0667   -0.8551    3.1706 H   0  0  0  0  0  0  0  0  0  0  0  0
  -12.6451   -0.2523    1.4137 H   0  0  0  0  0  0  0  0  0  0  0  0
   -9.4167    0.0949   -1.2801 H   0  0  0  0  0  0  0  0  0  0  0  0
    4.7878    1.4940    1.2792 H   0  0  0  0  0  0  0  0  0  0  0  0
    3.6493    2.2999    0.1853 H   0  0  0  0  0  0  0  0  0  0  0  0
    5.9548    2.4947   -0.6260 H   0  0  0  0  0  0  0  0  0  0  0  0
    4.7649    1.8145   -1.7763 H   0  0  0  0  0  0  0  0  0  0  0  0
    7.9476   -0.3987   -1.5199 H   0  0  0  0  0  0  0  0  0  0  0  0
    7.6478    1.1665   -2.2953 H   0  0  0  0  0  0  0  0  0  0  0  0
    8.5131    3.1328   -1.3786 H   0  0  0  0  0  0  0  0  0  0  0  0
    9.7699    4.2772    0.3148 H   0  0  0  0  0  0  0  0  0  0  0  0
   10.2993    3.1066    2.4706 H   0  0  0  0  0  0  0  0  0  0  0  0
    9.5364    0.8051    2.8294 H   0  0  0  0  0  0  0  0  0  0  0  0
    8.2423   -0.3578    1.0675 H   0  0  0  0  0  0  0  0  0  0  0  0
    6.4144   -1.5355   -0.7444 H   0  0  0  0  0  0  0  0  0  0  0  0
    5.2681   -1.1369   -2.0277 H   0  0  0  0  0  0  0  0  0  0  0  0
    4.8272   -1.3229    0.9595 H   0  0  0  0  0  0  0  0  0  0  0  0
    3.8591   -1.8911   -0.3958 H   0  0  0  0  0  0  0  0  0  0  0  0
  1  2  1  0
  2  3  1  0
  3  4  2  0
  4  5  1  0
  5  6  2  0
  6  7  1  0
  7  8  2  0
  8  9  1  0
  9 10  1  0
 10 11  2  0
 11 12  1  0
 12 13  2  0
 13 14  1  0
 14 15  1  0
 14 16  1  0
 16 17  2  0
 16 18  1  0
 18 19  2  0
 19 20  1  0
 20 21  2  0
 21 22  1  0
 22 23  2  0
 23 24  1  0
 24 25  2  0
 18 26  1  0
 26 27  2  0
  5 28  1  0
 28 29  1  0
 29 30  1  0
 30 31  1  0
 31 32  1  0
 32 33  1  0
 33 34  2  0
 34 35  1  0
 35 36  2  0
 36 37  1  0
 37 38  2  0
 31 39  1  0
 39 40  1  0
  8  3  1  0
 27 10  1  0
 40 28  1  0
 26 13  1  0
 38 33  1  0
 25 20  1  0
  1 41  1  0
  1 42  1  0
  1 43  1  0
  4 44  1  0
  6 45  1  0
  7 46  1  0
  9 47  1  0
 12 48  1  0
 15 49  1  0
 15 50  1  0
 15 51  1  0
 19 52  1  0
 21 53  1  0
 22 54  1  0
 23 55  1  0
 25 56  1  0
 29 57  1  0
 29 58  1  0
 30 59  1  0
 30 60  1  0
 32 61  1  0
 32 62  1  0
 34 63  1  0
 35 64  1  0
 36 65  1  0
 37 66  1  0
 38 67  1  0
 39 68  1  0
 39 69  1  0
 40 70  1  0
 40 71  1  0
M  END
$$$$
[H]c1nc(N([H])c2c([H])c([H])c(N3C([H])([H])C([H])([H])C([H])(N4C([H])([H])C([H])([H])N(C([H])([H])[H])C([H])([H])C4([H])[H])C([H])([H])C3([H])[H])c([H])c2OC([H])([H])[H])nc(N([H])c2c([H])c([H])c([H])c([H])c2S(=O)(=O)C([H])(C([H])([H])[H])C([H])([H])[H])c1Cl
     RDKit          3D

 82 86  0  0  0  0  0  0  0  0999 V2000
   -0.1870    3.7228   -1.2569 C   0  0  0  0  0  0  0  0  0  0  0  0
    0.4390    2.5297   -0.8437 O   0  0  0  0  0  0  0  0  0  0  0  0
   -0.3483    1.4775   -0.4024 C   0  0  0  0  0  0  0  0  0  0  0  0
   -1.7220    1.6350   -0.3827 C   0  0  0  0  0  0  0  0  0  0  0  0
   -2.5624    0.6308    0.0436 C   0  0  0  0  0  0  0  0  0  0  0  0
   -1.9599   -0.5357    0.4478 C   0  0  0  0  0  0  0  0  0  0  0  0
   -0.5748   -0.7280    0.4408 C   0  0  0  0  0  0  0  0  0  0  0  0
    0.2576    0.2764    0.0150 C   0  0  0  0  0  0  0  0  0  0  0  0
    1.6540    0.2011   -0.0367 N   0  0  0  0  0  0  0  0  0  0  0  0
    2.4984   -0.8842    0.3177 C   0  0  0  0  0  0  0  0  0  0  0  0
    2.1033   -2.0726    0.7812 N   0  0  0  0  0  0  0  0  0  0  0  0
    2.9559   -3.0558    1.0957 C   0  0  0  0  0  0  0  0  0  0  0  0
    4.3092   -2.8632    0.9451 C   0  0  0  0  0  0  0  0  0  0  0  0
    5.4455   -4.1449    1.3534 Cl  0  0  0  0  0  0  0  0  0  0  0  0
    4.7527   -1.6166    0.4572 C   0  0  0  0  0  0  0  0  0  0  0  0
    6.1380   -1.4466    0.3110 N   0  0  0  0  0  0  0  0  0  0  0  0
    6.9009   -0.3576   -0.1368 C   0  0  0  0  0  0  0  0  0  0  0  0
    6.2766    0.8084   -0.5266 C   0  0  0  0  0  0  0  0  0  0  0  0
    7.0240    1.9039   -0.9778 C   0  0  0  0  0  0  0  0  0  0  0  0
    8.3820    1.8034   -1.0274 C   0  0  0  0  0  0  0  0  0  0  0  0
    9.0024    0.6381   -0.6374 C   0  0  0  0  0  0  0  0  0  0  0  0
    8.2961   -0.4485   -0.1920 C   0  0  0  0  0  0  0  0  0  0  0  0
    9.0842   -1.8926    0.2913 S   0  0  0  0  0  0  0  0  0  0  0  0
    8.6633   -3.0312   -0.6035 O   0  0  0  0  0  0  0  0  0  0  0  0
    8.8235   -2.3045    1.7132 O   0  0  0  0  0  0  0  0  0  0  0  0
   10.8572   -1.7881    0.1370 C   0  0  0  0  0  0  0  0  0  0  0  0
   11.2609   -1.6791   -1.2975 C   0  0  0  0  0  0  0  0  0  0  0  0
   11.4760   -0.7869    1.0544 C   0  0  0  0  0  0  0  0  0  0  0  0
    3.8248   -0.7008    0.1721 N   0  0  0  0  0  0  0  0  0  0  0  0
   -3.9818    0.8060    0.0512 N   0  0  0  0  0  0  0  0  0  0  0  0
   -4.5241    1.9609   -0.5784 C   0  0  0  0  0  0  0  0  0  0  0  0
   -6.0011    1.9283   -0.8544 C   0  0  0  0  0  0  0  0  0  0  0  0
   -6.8245    1.3726    0.2584 C   0  0  0  0  0  0  0  0  0  0  0  0
   -6.0036    0.6088    1.2781 C   0  0  0  0  0  0  0  0  0  0  0  0
   -4.8657   -0.1463    0.6796 C   0  0  0  0  0  0  0  0  0  0  0  0
   -7.9560    0.6086   -0.0875 N   0  0  0  0  0  0  0  0  0  0  0  0
   -7.7905   -0.5856   -0.8057 C   0  0  0  0  0  0  0  0  0  0  0  0
   -9.1362   -1.0235   -1.3907 C   0  0  0  0  0  0  0  0  0  0  0  0
  -10.1390   -0.8718   -0.3544 N   0  0  0  0  0  0  0  0  0  0  0  0
  -10.0361   -1.8235    0.7053 C   0  0  0  0  0  0  0  0  0  0  0  0
  -10.3349    0.4834    0.0484 C   0  0  0  0  0  0  0  0  0  0  0  0
   -9.1475    1.3193   -0.4248 C   0  0  0  0  0  0  0  0  0  0  0  0
    0.5375    4.4499   -1.6799 H   0  0  0  0  0  0  0  0  0  0  0  0
   -0.9481    3.5330   -2.0530 H   0  0  0  0  0  0  0  0  0  0  0  0
   -0.6880    4.2523   -0.4156 H   0  0  0  0  0  0  0  0  0  0  0  0
   -2.1476    2.5764   -0.7105 H   0  0  0  0  0  0  0  0  0  0  0  0
   -2.6020   -1.3517    0.7883 H   0  0  0  0  0  0  0  0  0  0  0  0
   -0.2121   -1.6859    0.7807 H   0  0  0  0  0  0  0  0  0  0  0  0
    2.1500    1.0935   -0.3956 H   0  0  0  0  0  0  0  0  0  0  0  0
    2.6174   -4.0222    1.4737 H   0  0  0  0  0  0  0  0  0  0  0  0
    6.7215   -2.3022    0.5911 H   0  0  0  0  0  0  0  0  0  0  0  0
    5.2202    0.9989   -0.5296 H   0  0  0  0  0  0  0  0  0  0  0  0
    6.5603    2.8305   -1.2896 H   0  0  0  0  0  0  0  0  0  0  0  0
    9.0220    2.6252   -1.3712 H   0  0  0  0  0  0  0  0  0  0  0  0
   10.0936    0.6299   -0.7052 H   0  0  0  0  0  0  0  0  0  0  0  0
   11.2252   -2.8031    0.4806 H   0  0  0  0  0  0  0  0  0  0  0  0
   11.9033   -0.7785   -1.4926 H   0  0  0  0  0  0  0  0  0  0  0  0
   10.3307   -1.5514   -1.9199 H   0  0  0  0  0  0  0  0  0  0  0  0
   11.7765   -2.5763   -1.6995 H   0  0  0  0  0  0  0  0  0  0  0  0
   12.0225   -1.2557    1.8769 H   0  0  0  0  0  0  0  0  0  0  0  0
   12.1781   -0.1622    0.4319 H   0  0  0  0  0  0  0  0  0  0  0  0
   10.7434   -0.0899    1.5079 H   0  0  0  0  0  0  0  0  0  0  0  0
   -4.2803    2.8410    0.0525 H   0  0  0  0  0  0  0  0  0  0  0  0
   -3.9354    2.1199   -1.5269 H   0  0  0  0  0  0  0  0  0  0  0  0
   -6.3084    2.9635   -1.1164 H   0  0  0  0  0  0  0  0  0  0  0  0
   -6.1470    1.3325   -1.7818 H   0  0  0  0  0  0  0  0  0  0  0  0
   -7.2139    2.2642    0.8421 H   0  0  0  0  0  0  0  0  0  0  0  0
   -6.6586   -0.1075    1.8153 H   0  0  0  0  0  0  0  0  0  0  0  0
   -5.5929    1.2907    2.0626 H   0  0  0  0  0  0  0  0  0  0  0  0
   -5.1731   -0.8869   -0.0780 H   0  0  0  0  0  0  0  0  0  0  0  0
   -4.3121   -0.6097    1.5260 H   0  0  0  0  0  0  0  0  0  0  0  0
   -7.5080   -1.4012   -0.0997 H   0  0  0  0  0  0  0  0  0  0  0  0
   -7.0082   -0.5774   -1.5870 H   0  0  0  0  0  0  0  0  0  0  0  0
   -9.4445   -0.3742   -2.2343 H   0  0  0  0  0  0  0  0  0  0  0  0
   -9.0261   -2.0597   -1.7202 H   0  0  0  0  0  0  0  0  0  0  0  0
   -9.1822   -2.5377    0.5321 H   0  0  0  0  0  0  0  0  0  0  0  0
   -9.9814   -1.3564    1.7041 H   0  0  0  0  0  0  0  0  0  0  0  0
  -10.9456   -2.4645    0.6802 H   0  0  0  0  0  0  0  0  0  0  0  0
  -11.2261    0.8855   -0.4545 H   0  0  0  0  0  0  0  0  0  0  0  0
  -10.4517    0.5517    1.1515 H   0  0  0  0  0  0  0  0  0  0  0  0
   -9.2778    1.5186   -1.4917 H   0  0  0  0  0  0  0  0  0  0  0  0
   -9.1611    2.2698    0.1783 H   0  0  0  0  0  0  0  0  0  0  0  0
  1  2  1  0
  2  3  1  0
  3  4  2  0
  4  5  1  0
  5  6  2  0
  6  7  1  0
  7  8  2  0
  8  9  1  0
  9 10  1  0
 10 11  2  0
 11 12  1  0
 12 13  2  0
 13 14  1  0
 13 15  1  0
 15 16  1  0
 16 17  1  0
 17 18  2  0
 18 19  1  0
 19 20  2  0
 20 21  1  0
 21 22  2  0
 22 23  1  0
 23 24  2  0
 23 25  2  0
 23 26  1  0
 26 27  1  0
 26 28  1  0
 15 29  2  0
  5 30  1  0
 30 31  1  0
 31 32  1  0
 32 33  1  0
 33 34  1  0
 34 35  1  0
 33 36  1  0
 36 37  1  0
 37 38  1  0
 38 39  1  0
 39 40  1  0
 39 41  1  0
 41 42  1  0
  8  3  1  0
 29 10  1  0
 35 30  1  0
 42 36  1  0
 22 17  1  0
  1 43  1  0
  1 44  1  0
  1 45  1  0
  4 46  1  0
  6 47  1  0
  7 48  1  0
  9 49  1  0
 12 50  1  0
 16 51  1  0
 18 52  1  0
 19 53  1  0
 20 54  1  0
 21 55  1  0
 26 56  1  0
 27 57  1  0
 27 58  1  0
 27 59  1  0
 28 60  1  0
 28 61  1  0
 28 62  1  0
 31 63  1  0
 31 64  1  0
 32 65  1  0
 32 66  1  0
 33 67  1  0
 34 68  1  0
 34 69  1  0
 35 70  1  0
 35 71  1  0
 37 72  1  0
 37 73  1  0
 38 74  1  0
 38 75  1  0
 40 76  1  0
 40 77  1  0
 40 78  1  0
 41 79  1  0
 41 80  1  0
 42 81  1  0
 42 82  1  0
M  END
$$$$
[H]c1c(C#CC([H])([H])N([H])C(=O)C([H])([H])N2C([H])([H])C([H])([H])N([H])C([H])([H])C2([H])[H])c([H])c2c(nc([H])c3nc(C([H])([H])[H])n(C([H])([H])C([H])([H])[H])c32)c1[H]
     RDKit          3D

 55 58  0  0  0  0  0  0  0  0999 V2000
   -5.1878   -1.9849   -1.2618 C   0  0  0  0  0  0  0  0  0  0  0  0
   -5.4903   -1.3961    0.0963 C   0  0  0  0  0  0  0  0  0  0  0  0
   -5.9604   -0.0596    0.0804 N   0  0  0  0  0  0  0  0  0  0  0  0
   -7.3060    0.1886   -0.0902 C   0  0  0  0  0  0  0  0  0  0  0  0
   -8.3726   -0.8230   -0.3592 C   0  0  0  0  0  0  0  0  0  0  0  0
   -7.5508    1.4972   -0.0087 N   0  0  0  0  0  0  0  0  0  0  0  0
   -6.3942    2.1174    0.2095 C   0  0  0  0  0  0  0  0  0  0  0  0
   -6.0723    3.4561    0.3956 C   0  0  0  0  0  0  0  0  0  0  0  0
   -4.8040    3.7786    0.6229 N   0  0  0  0  0  0  0  0  0  0  0  0
   -3.8115    2.8659    0.6779 C   0  0  0  0  0  0  0  0  0  0  0  0
   -2.5185    3.2904    0.8771 C   0  0  0  0  0  0  0  0  0  0  0  0
   -1.5362    2.3813    0.8843 C   0  0  0  0  0  0  0  0  0  0  0  0
   -1.8101    1.0217    0.6933 C   0  0  0  0  0  0  0  0  0  0  0  0
   -3.1213    0.5709    0.4965 C   0  0  0  0  0  0  0  0  0  0  0  0
   -4.1046    1.5232    0.4937 C   0  0  0  0  0  0  0  0  0  0  0  0
   -5.4094    1.1499    0.2614 C   0  0  0  0  0  0  0  0  0  0  0  0
   -0.7344    0.1214    0.5752 C   0  0  0  0  0  0  0  0  0  0  0  0
    0.2142   -0.5335    0.4074 C   0  0  0  0  0  0  0  0  0  0  0  0
    1.3563   -1.1514    0.1156 C   0  0  0  0  0  0  0  0  0  0  0  0
    2.5077   -1.7802   -0.1811 N   0  0  0  0  0  0  0  0  0  0  0  0
    3.7723   -1.1205    0.0580 C   0  0  0  0  0  0  0  0  0  0  0  0
    3.6410    0.0543    0.5881 O   0  0  0  0  0  0  0  0  0  0  0  0
    5.0999   -1.5768   -0.2110 C   0  0  0  0  0  0  0  0  0  0  0  0
    6.1356   -0.6807    0.1323 N   0  0  0  0  0  0  0  0  0  0  0  0
    6.2855    0.5245   -0.5940 C   0  0  0  0  0  0  0  0  0  0  0  0
    7.5311    1.2795   -0.0667 C   0  0  0  0  0  0  0  0  0  0  0  0
    8.6431    0.4612   -0.4383 N   0  0  0  0  0  0  0  0  0  0  0  0
    8.5475   -0.9212   -0.0678 C   0  0  0  0  0  0  0  0  0  0  0  0
    7.2851   -1.2798    0.6865 C   0  0  0  0  0  0  0  0  0  0  0  0
   -4.2253   -2.5432   -1.2567 H   0  0  0  0  0  0  0  0  0  0  0  0
   -5.0396   -1.1966   -2.0539 H   0  0  0  0  0  0  0  0  0  0  0  0
   -5.9449   -2.6649   -1.6600 H   0  0  0  0  0  0  0  0  0  0  0  0
   -4.8067   -1.7161    0.9111 H   0  0  0  0  0  0  0  0  0  0  0  0
   -6.4023   -2.0515    0.4234 H   0  0  0  0  0  0  0  0  0  0  0  0
   -9.3219   -0.3092   -0.6319 H   0  0  0  0  0  0  0  0  0  0  0  0
   -8.6110   -1.4075    0.5493 H   0  0  0  0  0  0  0  0  0  0  0  0
   -8.0957   -1.4511   -1.2138 H   0  0  0  0  0  0  0  0  0  0  0  0
   -6.8537    4.1743    0.3467 H   0  0  0  0  0  0  0  0  0  0  0  0
   -2.3342    4.3567    1.0221 H   0  0  0  0  0  0  0  0  0  0  0  0
   -0.5314    2.6969    1.0353 H   0  0  0  0  0  0  0  0  0  0  0  0
   -3.2220   -0.4567    0.3558 H   0  0  0  0  0  0  0  0  0  0  0  0
    1.9012   -0.8294    1.3514 H   0  0  0  0  0  0  0  0  0  0  0  0
    0.9864   -2.2610    0.8954 H   0  0  0  0  0  0  0  0  0  0  0  0
    2.6201   -2.7588   -0.6046 H   0  0  0  0  0  0  0  0  0  0  0  0
    5.3190   -2.5560    0.3062 H   0  0  0  0  0  0  0  0  0  0  0  0
    5.2562   -1.8737   -1.3041 H   0  0  0  0  0  0  0  0  0  0  0  0
    6.4754    0.3940   -1.6740 H   0  0  0  0  0  0  0  0  0  0  0  0
    5.4524    1.2574   -0.4212 H   0  0  0  0  0  0  0  0  0  0  0  0
    7.5639    2.2480   -0.5778 H   0  0  0  0  0  0  0  0  0  0  0  0
    7.4108    1.4380    0.9985 H   0  0  0  0  0  0  0  0  0  0  0  0
    8.8260    0.6131   -1.4644 H   0  0  0  0  0  0  0  0  0  0  0  0
    9.3986   -1.1429    0.6278 H   0  0  0  0  0  0  0  0  0  0  0  0
    8.6950   -1.5912   -0.9493 H   0  0  0  0  0  0  0  0  0  0  0  0
    7.1865   -2.3828    0.6257 H   0  0  0  0  0  0  0  0  0  0  0  0
    7.4623   -0.9603    1.7530 H   0  0  0  0  0  0  0  0  0  0  0  0
  1  2  1  0
  2  3  1  0
  3  4  1  0
  4  5  1  0
  4  6  2  0
  6  7  1  0
  7  8  2  0
  8  9  1  0
  9 10  2  0
 10 11  1  0
 11 12  2  0
 12 13  1  0
 13 14  2  0
 14 15  1  0
 15 16  2  0
 13 17  1  0
 17 18  3  0
 18 19  1  0
 19 20  1  0
 20 21  1  0
 21 22  2  0
 21 23  1  0
 23 24  1  0
 24 25  1  0
 25 26  1  0
 26 27  1  0
 27 28  1  0
 28 29  1  0
 16  3  1  0
 29 24  1  0
 16  7  1  0
 15 10  1  0
  1 30  1  0
  1 31  1  0
  1 32  1  0
  2 33  1  0
  2 34  1  0
  5 35  1  0
  5 36  1  0
  5 37  1  0
  8 38  1  0
 11 39  1  0
 12 40  1  0
 14 41  1  0
 19 42  1  0
 19 43  1  0
 20 44  1  0
 23 45  1  0
 23 46  1  0
 25 47  1  0
 25 48  1  0
 26 49  1  0
 26 50  1  0
 27 51  1  0
 28 52  1  0
 28 53  1  0
 29 54  1  0
 29 55  1  0
M  END
$$$$
[H]c1nc(N([H])c2c([H])c([H])c(N3C([H])([H])C([H])([H])N(C([H])([H])[H])C([H])([H])C3([H])[H])c([H])c2[H])nc(N([H])c2c([H])c([H])c(N([H])C(=O)N([H])c3noc(C([H])([H])[H])c3[H])c([H])c2[H])c1Cl
     RDKit          3D

 66 70  0  0  0  0  0  0  0  0999 V2000
  -10.7899    2.0480    0.9022 C   0  0  0  0  0  0  0  0  0  0  0  0
   -9.4779    1.4396    1.1333 N   0  0  0  0  0  0  0  0  0  0  0  0
   -8.5148    2.5055    1.1963 C   0  0  0  0  0  0  0  0  0  0  0  0
   -7.0965    2.0389    1.2485 C   0  0  0  0  0  0  0  0  0  0  0  0
   -6.8501    1.1407    0.1299 N   0  0  0  0  0  0  0  0  0  0  0  0
   -7.9781    0.8264   -0.7056 C   0  0  0  0  0  0  0  0  0  0  0  0
   -9.1736    0.4307    0.1657 C   0  0  0  0  0  0  0  0  0  0  0  0
   -5.5350    0.6469   -0.0525 C   0  0  0  0  0  0  0  0  0  0  0  0
   -5.1698   -0.1890   -1.0777 C   0  0  0  0  0  0  0  0  0  0  0  0
   -3.8510   -0.6458   -1.2042 C   0  0  0  0  0  0  0  0  0  0  0  0
   -2.8559   -0.2920   -0.3238 C   0  0  0  0  0  0  0  0  0  0  0  0
   -1.5273   -0.7101   -0.3493 N   0  0  0  0  0  0  0  0  0  0  0  0
   -1.0282   -1.8412   -1.0133 C   0  0  0  0  0  0  0  0  0  0  0  0
   -1.7451   -2.7128   -1.7209 N   0  0  0  0  0  0  0  0  0  0  0  0
   -1.2840   -3.7907   -2.3569 C   0  0  0  0  0  0  0  0  0  0  0  0
    0.0737   -4.0398   -2.2821 C   0  0  0  0  0  0  0  0  0  0  0  0
    0.7098   -5.4335   -3.0975 Cl  0  0  0  0  0  0  0  0  0  0  0  0
    0.8860   -3.1577   -1.5507 C   0  0  0  0  0  0  0  0  0  0  0  0
    2.2513   -3.4205   -1.5147 N   0  0  0  0  0  0  0  0  0  0  0  0
    3.1862   -2.6529   -0.8072 C   0  0  0  0  0  0  0  0  0  0  0  0
    2.9604   -1.8813    0.2918 C   0  0  0  0  0  0  0  0  0  0  0  0
    3.9635   -1.1618    0.8560 C   0  0  0  0  0  0  0  0  0  0  0  0
    5.2874   -1.1504    0.3702 C   0  0  0  0  0  0  0  0  0  0  0  0
    6.2434   -0.3893    1.0428 N   0  0  0  0  0  0  0  0  0  0  0  0
    7.4683    0.0472    0.5342 C   0  0  0  0  0  0  0  0  0  0  0  0
    7.8084   -0.2285   -0.6401 O   0  0  0  0  0  0  0  0  0  0  0  0
    8.3726    0.8329    1.3648 N   0  0  0  0  0  0  0  0  0  0  0  0
    9.5929    1.2386    0.7812 C   0  0  0  0  0  0  0  0  0  0  0  0
   10.5997    1.9948    1.3960 C   0  0  0  0  0  0  0  0  0  0  0  0
   11.6078    2.1615    0.4757 C   0  0  0  0  0  0  0  0  0  0  0  0
   12.8743    2.8929    0.6772 C   0  0  0  0  0  0  0  0  0  0  0  0
   11.2293    1.5477   -0.6126 O   0  0  0  0  0  0  0  0  0  0  0  0
   10.0574    1.0020   -0.4580 N   0  0  0  0  0  0  0  0  0  0  0  0
    5.4780   -1.9406   -0.7369 C   0  0  0  0  0  0  0  0  0  0  0  0
    4.4887   -2.6751   -1.3273 C   0  0  0  0  0  0  0  0  0  0  0  0
    0.3147   -2.1219   -0.9621 N   0  0  0  0  0  0  0  0  0  0  0  0
   -3.2534    0.5667    0.7198 C   0  0  0  0  0  0  0  0  0  0  0  0
   -4.5350    0.9985    0.8253 C   0  0  0  0  0  0  0  0  0  0  0  0
  -11.6087    1.3962    1.2076 H   0  0  0  0  0  0  0  0  0  0  0  0
  -10.8580    2.3626   -0.1571 H   0  0  0  0  0  0  0  0  0  0  0  0
  -10.8308    2.9717    1.5169 H   0  0  0  0  0  0  0  0  0  0  0  0
   -8.7132    3.0552    2.1542 H   0  0  0  0  0  0  0  0  0  0  0  0
   -8.6606    3.2268    0.3601 H   0  0  0  0  0  0  0  0  0  0  0  0
   -6.4506    2.9435    1.0541 H   0  0  0  0  0  0  0  0  0  0  0  0
   -6.8021    1.5998    2.2046 H   0  0  0  0  0  0  0  0  0  0  0  0
   -8.2881    1.7907   -1.2002 H   0  0  0  0  0  0  0  0  0  0  0  0
   -7.7986    0.0921   -1.4844 H   0  0  0  0  0  0  0  0  0  0  0  0
  -10.0214    0.2482   -0.5476 H   0  0  0  0  0  0  0  0  0  0  0  0
   -8.9661   -0.5428    0.6590 H   0  0  0  0  0  0  0  0  0  0  0  0
   -5.9044   -0.5082   -1.8080 H   0  0  0  0  0  0  0  0  0  0  0  0
   -3.6321   -1.2893   -2.0470 H   0  0  0  0  0  0  0  0  0  0  0  0
   -0.8172   -0.1226    0.1755 H   0  0  0  0  0  0  0  0  0  0  0  0
   -1.9669   -4.4398   -2.9103 H   0  0  0  0  0  0  0  0  0  0  0  0
    2.5983   -4.2761   -2.0684 H   0  0  0  0  0  0  0  0  0  0  0  0
    1.9661   -1.8402    0.7563 H   0  0  0  0  0  0  0  0  0  0  0  0
    3.7860   -0.5388    1.7378 H   0  0  0  0  0  0  0  0  0  0  0  0
    6.0295   -0.1097    2.0506 H   0  0  0  0  0  0  0  0  0  0  0  0
    8.0989    1.0646    2.3353 H   0  0  0  0  0  0  0  0  0  0  0  0
   10.5449    2.3567    2.4106 H   0  0  0  0  0  0  0  0  0  0  0  0
   13.2351    2.7330    1.7142 H   0  0  0  0  0  0  0  0  0  0  0  0
   13.6307    2.6364   -0.0850 H   0  0  0  0  0  0  0  0  0  0  0  0
   12.7228    4.0065    0.5905 H   0  0  0  0  0  0  0  0  0  0  0  0
    6.4889   -1.9901   -1.1564 H   0  0  0  0  0  0  0  0  0  0  0  0
    4.7121   -3.2726   -2.1951 H   0  0  0  0  0  0  0  0  0  0  0  0
   -2.4981    0.8614    1.4248 H   0  0  0  0  0  0  0  0  0  0  0  0
   -4.7847    1.6600    1.6511 H   0  0  0  0  0  0  0  0  0  0  0  0
  1  2  1  0
  2  3  1  0
  3  4  1  0
  4  5  1  0
  5  6  1  0
  6  7  1  0
  5  8  1  0
  8  9  2  0
  9 10  1  0
 10 11  2  0
 11 12  1  0
 12 13  1  0
 13 14  2  0
 14 15  1  0
 15 16  2  0
 16 17  1  0
 16 18  1  0
 18 19  1  0
 19 20  1  0
 20 21  2  0
 21 22  1  0
 22 23  2  0
 23 24  1  0
 24 25  1  0
 25 26  2  0
 25 27  1  0
 27 28  1  0
 28 29  1  0
 29 30  2  0
 30 31  1  0
 30 32  1  0
 32 33  1  0
 23 34  1  0
 34 35  2  0
 18 36  2  0
 11 37  1  0
 37 38  2  0
  7  2  1  0
 38  8  1  0
 36 13  1  0
 35 20  1  0
 33 28  2  0
  1 39  1  0
  1 40  1  0
  1 41  1  0
  3 42  1  0
  3 43  1  0
  4 44  1  0
  4 45  1  0
  6 46  1  0
  6 47  1  0
  7 48  1  0
  7 49  1  0
  9 50  1  0
 10 51  1  0
 12 52  1  0
 15 53  1  0
 19 54  1  0
 21 55  1  0
 22 56  1  0
 24 57  1  0
 27 58  1  0
 29 59  1  0
 31 60  1  0
 31 61  1  0
 31 62  1  0
 34 63  1  0
 35 64  1  0
 37 65  1  0
 38 66  1  0
M  END
$$$$
[H]c1c([H])c([H])c2c(c1[H])c1c3c(c4c5c([H])c([H])c([H])c([H])c5n5c4c1n2[C@@]1([H])O[C@]5(C([H])([H])[H])[C@@]([H])(OC([H])([H])[H])[C@@]([H])(N([H])C([H])([H])[H])C1([H])[H])C([H])([H])N([H])C3=O
     RDKit          3D

 61 68  0  0  0  0  0  0  0  0999 V2000
   -2.5900    1.1246    2.6909 C   0  0  0  0  0  0  0  0  0  0  0  0
   -2.2701    0.1494    1.6691 N   0  0  0  0  0  0  0  0  0  0  0  0
   -2.7037    0.7256    0.3894 C   0  0  1  0  0  0  0  0  0  0  0  0
   -1.9693    1.9591    0.0600 C   0  0  0  0  0  0  0  0  0  0  0  0
   -1.0374    1.8542   -1.1025 C   0  0  2  0  0  0  0  0  0  0  0  0
   -1.1108    0.8211   -1.8978 O   0  0  0  0  0  0  0  0  0  0  0  0
   -1.4719   -0.4453   -1.4993 C   0  0  2  0  0  0  0  0  0  0  0  0
   -1.8587   -1.0747   -2.8537 C   0  0  0  0  0  0  0  0  0  0  0  0
   -2.6627   -0.3659   -0.6565 C   0  0  1  0  0  0  0  0  0  0  0  0
   -3.0555   -1.5061    0.0270 O   0  0  0  0  0  0  0  0  0  0  0  0
   -4.3079   -1.9695   -0.2639 C   0  0  0  0  0  0  0  0  0  0  0  0
   -0.3020   -1.1026   -0.9411 N   0  0  0  0  0  0  0  0  0  0  0  0
   -0.0368   -2.4107   -0.8661 C   0  0  0  0  0  0  0  0  0  0  0  0
   -0.7505   -3.5118   -1.2342 C   0  0  0  0  0  0  0  0  0  0  0  0
   -0.2313   -4.7829   -1.0386 C   0  0  0  0  0  0  0  0  0  0  0  0
    1.0025   -5.0019   -0.4761 C   0  0  0  0  0  0  0  0  0  0  0  0
    1.7444   -3.8826   -0.0939 C   0  0  0  0  0  0  0  0  0  0  0  0
    1.2038   -2.6348   -0.3003 C   0  0  0  0  0  0  0  0  0  0  0  0
    1.7282   -1.3877   -0.0109 C   0  0  0  0  0  0  0  0  0  0  0  0
    2.9250   -0.9637    0.5498 C   0  0  0  0  0  0  0  0  0  0  0  0
    4.0703   -1.7821    1.0519 C   0  0  0  0  0  0  0  0  0  0  0  0
    5.0490   -0.8360    1.5052 N   0  0  0  0  0  0  0  0  0  0  0  0
    4.5511    0.4878    1.3292 C   0  0  0  0  0  0  0  0  0  0  0  0
    5.2116    1.4752    1.6612 O   0  0  0  0  0  0  0  0  0  0  0  0
    3.2325    0.3685    0.7340 C   0  0  0  0  0  0  0  0  0  0  0  0
    2.2736    1.2731    0.3281 C   0  0  0  0  0  0  0  0  0  0  0  0
    2.1943    2.6494    0.3519 C   0  0  0  0  0  0  0  0  0  0  0  0
    3.0346    3.6410    0.7719 C   0  0  0  0  0  0  0  0  0  0  0  0
    2.6237    4.9672    0.6424 C   0  0  0  0  0  0  0  0  0  0  0  0
    1.4040    5.3207    0.1079 C   0  0  0  0  0  0  0  0  0  0  0  0
    0.5569    4.3176   -0.3154 C   0  0  0  0  0  0  0  0  0  0  0  0
    0.9564    3.0255   -0.1896 C   0  0  0  0  0  0  0  0  0  0  0  0
    0.3179    1.9031   -0.5262 N   0  0  0  0  0  0  0  0  0  0  0  0
    1.0813    0.8475   -0.2300 C   0  0  0  0  0  0  0  0  0  0  0  0
    0.8029   -0.4946   -0.4048 C   0  0  0  0  0  0  0  0  0  0  0  0
   -1.7275    1.7656    2.9459 H   0  0  0  0  0  0  0  0  0  0  0  0
   -3.4000    1.7830    2.2910 H   0  0  0  0  0  0  0  0  0  0  0  0
   -3.0290    0.6437    3.5924 H   0  0  0  0  0  0  0  0  0  0  0  0
   -2.7602   -0.7186    1.9035 H   0  0  0  0  0  0  0  0  0  0  0  0
   -3.7998    0.9480    0.5957 H   0  0  0  0  0  0  0  0  0  0  0  0
   -1.4594    2.3204    1.0029 H   0  0  0  0  0  0  0  0  0  0  0  0
   -2.7065    2.7776   -0.1658 H   0  0  0  0  0  0  0  0  0  0  0  0
   -1.0912    2.7965   -1.7221 H   0  0  0  0  0  0  0  0  0  0  0  0
   -2.0056   -0.3257   -3.6573 H   0  0  0  0  0  0  0  0  0  0  0  0
   -1.0068   -1.6950   -3.1940 H   0  0  0  0  0  0  0  0  0  0  0  0
   -2.8277   -1.6039   -2.8044 H   0  0  0  0  0  0  0  0  0  0  0  0
   -3.5358   -0.1252   -1.3381 H   0  0  0  0  0  0  0  0  0  0  0  0
   -4.4650   -2.8889    0.3782 H   0  0  0  0  0  0  0  0  0  0  0  0
   -4.4865   -2.3125   -1.2897 H   0  0  0  0  0  0  0  0  0  0  0  0
   -5.1216   -1.2643    0.0633 H   0  0  0  0  0  0  0  0  0  0  0  0
   -1.7208   -3.3825   -1.6725 H   0  0  0  0  0  0  0  0  0  0  0  0
   -0.8491   -5.6109   -1.3524 H   0  0  0  0  0  0  0  0  0  0  0  0
    1.4213   -5.9802   -0.3168 H   0  0  0  0  0  0  0  0  0  0  0  0
    2.7206   -4.0420    0.3513 H   0  0  0  0  0  0  0  0  0  0  0  0
    3.7648   -2.4865    1.8473 H   0  0  0  0  0  0  0  0  0  0  0  0
    4.5351   -2.3717    0.2322 H   0  0  0  0  0  0  0  0  0  0  0  0
    5.9960   -1.0989    1.9084 H   0  0  0  0  0  0  0  0  0  0  0  0
    3.9823    3.4684    1.1903 H   0  0  0  0  0  0  0  0  0  0  0  0
    3.2909    5.7541    0.9750 H   0  0  0  0  0  0  0  0  0  0  0  0
    1.0902    6.3566    0.0099 H   0  0  0  0  0  0  0  0  0  0  0  0
   -0.4140    4.5350   -0.7434 H   0  0  0  0  0  0  0  0  0  0  0  0
  1  2  1  0
  2  3  1  0
  3  4  1  0
  4  5  1  0
  5  6  1  0
  6  7  1  0
  7  8  1  6
  7  9  1  0
  9 10  1  0
 10 11  1  0
  7 12  1  0
 12 13  1  0
 13 14  2  0
 14 15  1  0
 15 16  2  0
 16 17  1  0
 17 18  2  0
 18 19  1  0
 19 20  2  0
 20 21  1  0
 21 22  1  0
 22 23  1  0
 23 24  2  0
 23 25  1  0
 25 26  2  0
 26 27  1  0
 27 28  2  0
 28 29  1  0
 29 30  2  0
 30 31  1  0
 31 32  2  0
 32 33  1  0
 33 34  1  0
 34 35  2  0
  9  3  1  0
 35 12  1  0
 33  5  1  0
 18 13  1  0
 35 19  1  0
 25 20  1  0
 34 26  1  0
 32 27  1  0
  1 36  1  0
  1 37  1  0
  1 38  1  0
  2 39  1  0
  3 40  1  1
  4 41  1  0
  4 42  1  0
  5 43  1  6
  8 44  1  0
  8 45  1  0
  8 46  1  0
  9 47  1  6
 11 48  1  0
 11 49  1  0
 11 50  1  0
 14 51  1  0
 15 52  1  0
 16 53  1  0
 17 54  1  0
 21 55  1  0
 21 56  1  0
 22 57  1  0
 28 58  1  0
 29 59  1  0
 30 60  1  0
 31 61  1  0
M  END
$$$$
[H]/C(=C1/C(=O)N([H])c2c([H])c([H])c(F)c([H])c21)c1c(C([H])([H])[H])c(C(=O)N([H])C([H])([H])C([H])([H])C([H])([H])N(C([H])([H])[H])C([H])([H])[H])c(C([H])([H])[H])n1[H]
     RDKit          3D

 53 55  0  0  0  0  0  0  0  0999 V2000
   -7.4196    0.2840   -0.2582 C   0  0  0  0  0  0  0  0  0  0  0  0
   -6.2761   -0.1356    0.4699 N   0  0  0  0  0  0  0  0  0  0  0  0
   -6.1808    0.2447    1.8256 C   0  0  0  0  0  0  0  0  0  0  0  0
   -5.0128   -0.0130   -0.2703 C   0  0  0  0  0  0  0  0  0  0  0  0
   -4.6425    1.3837   -0.5187 C   0  0  0  0  0  0  0  0  0  0  0  0
   -3.4264    1.6346   -1.3189 C   0  0  0  0  0  0  0  0  0  0  0  0
   -2.1658    1.1501   -0.9021 N   0  0  0  0  0  0  0  0  0  0  0  0
   -1.6402   -0.1379   -0.8261 C   0  0  0  0  0  0  0  0  0  0  0  0
   -2.3197   -1.1732   -1.1799 O   0  0  0  0  0  0  0  0  0  0  0  0
   -0.3129   -0.4307   -0.3498 C   0  0  0  0  0  0  0  0  0  0  0  0
    0.0559   -1.6708    0.1713 C   0  0  0  0  0  0  0  0  0  0  0  0
   -0.8643   -2.8429    0.3544 C   0  0  0  0  0  0  0  0  0  0  0  0
    1.3560   -1.6794    0.4949 N   0  0  0  0  0  0  0  0  0  0  0  0
    1.8360   -0.4746    0.1938 C   0  0  0  0  0  0  0  0  0  0  0  0
    3.1860    0.0463    0.3245 C   0  0  0  0  0  0  0  0  0  0  0  0
    4.2005   -0.5145   -0.2516 C   0  0  0  0  0  0  0  0  0  0  0  0
    4.2828   -1.6768   -1.0976 C   0  0  0  0  0  0  0  0  0  0  0  0
    3.3261   -2.3980   -1.4848 O   0  0  0  0  0  0  0  0  0  0  0  0
    5.6661   -1.8888   -1.4440 N   0  0  0  0  0  0  0  0  0  0  0  0
    6.4291   -0.8709   -0.8218 C   0  0  0  0  0  0  0  0  0  0  0  0
    7.7659   -0.6196   -0.8301 C   0  0  0  0  0  0  0  0  0  0  0  0
    8.2635    0.4589   -0.1272 C   0  0  0  0  0  0  0  0  0  0  0  0
    7.4377    1.2981    0.5909 C   0  0  0  0  0  0  0  0  0  0  0  0
    7.9701    2.3432    1.2658 F   0  0  0  0  0  0  0  0  0  0  0  0
    6.0785    1.0456    0.6015 C   0  0  0  0  0  0  0  0  0  0  0  0
    5.5915   -0.0324   -0.1026 C   0  0  0  0  0  0  0  0  0  0  0  0
    0.8021    0.3382   -0.3436 C   0  0  0  0  0  0  0  0  0  0  0  0
    1.0125    1.7375   -0.8163 C   0  0  0  0  0  0  0  0  0  0  0  0
   -7.6998    1.3289   -0.0149 H   0  0  0  0  0  0  0  0  0  0  0  0
   -8.2595   -0.4138   -0.0237 H   0  0  0  0  0  0  0  0  0  0  0  0
   -7.2068    0.1900   -1.3446 H   0  0  0  0  0  0  0  0  0  0  0  0
   -5.9814   -0.6751    2.4553 H   0  0  0  0  0  0  0  0  0  0  0  0
   -5.3410    0.9490    1.9768 H   0  0  0  0  0  0  0  0  0  0  0  0
   -7.1337    0.7261    2.1325 H   0  0  0  0  0  0  0  0  0  0  0  0
   -4.2798   -0.4639    0.4669 H   0  0  0  0  0  0  0  0  0  0  0  0
   -5.0821   -0.6195   -1.1564 H   0  0  0  0  0  0  0  0  0  0  0  0
   -5.4888    1.9223   -1.0738 H   0  0  0  0  0  0  0  0  0  0  0  0
   -4.5503    1.9806    0.4396 H   0  0  0  0  0  0  0  0  0  0  0  0
   -3.3079    2.7611   -1.5258 H   0  0  0  0  0  0  0  0  0  0  0  0
   -3.5648    1.2603   -2.3944 H   0  0  0  0  0  0  0  0  0  0  0  0
   -1.4865    1.9208   -0.5404 H   0  0  0  0  0  0  0  0  0  0  0  0
   -1.8273   -2.5383    0.8091 H   0  0  0  0  0  0  0  0  0  0  0  0
   -1.0749   -3.2891   -0.6440 H   0  0  0  0  0  0  0  0  0  0  0  0
   -0.4085   -3.5914    1.0227 H   0  0  0  0  0  0  0  0  0  0  0  0
    1.9045   -2.4821    0.9237 H   0  0  0  0  0  0  0  0  0  0  0  0
    3.3388    0.9529    0.9388 H   0  0  0  0  0  0  0  0  0  0  0  0
    5.9627   -2.6763   -2.0503 H   0  0  0  0  0  0  0  0  0  0  0  0
    8.4335   -1.2535   -1.3789 H   0  0  0  0  0  0  0  0  0  0  0  0
    9.3256    0.6237   -0.1582 H   0  0  0  0  0  0  0  0  0  0  0  0
    5.4201    1.7068    1.1684 H   0  0  0  0  0  0  0  0  0  0  0  0
    0.7304    2.5024   -0.0762 H   0  0  0  0  0  0  0  0  0  0  0  0
    0.4817    1.9306   -1.7553 H   0  0  0  0  0  0  0  0  0  0  0  0
    2.0966    1.8418   -1.0758 H   0  0  0  0  0  0  0  0  0  0  0  0
  1  2  1  0
  2  3  1  0
  2  4  1  0
  4  5  1  0
  5  6  1  0
  6  7  1  0
  7  8  1  0
  8  9  2  0
  8 10  1  0
 10 11  2  0
 11 12  1  0
 11 13  1  0
 13 14  1  0
 14 15  1  0
 15 16  2  0
 16 17  1  0
 17 18  2  0
 17 19  1  0
 19 20  1  0
 20 21  2  0
 21 22  1  0
 22 23  2  0
 23 24  1  0
 23 25  1  0
 25 26  2  0
 14 27  2  0
 27 28  1  0
 27 10  1  0
 26 16  1  0
 26 20  1  0
  1 29  1  0
  1 30  1  0
  1 31  1  0
  3 32  1  0
  3 33  1  0
  3 34  1  0
  4 35  1  0
  4 36  1  0
  5 37  1  0
  5 38  1  0
  6 39  1  0
  6 40  1  0
  7 41  1  0
 12 42  1  0
 12 43  1  0
 12 44  1  0
 13 45  1  0
 15 46  1  0
 19 47  1  0
 21 48  1  0
 22 49  1  0
 25 50  1  0
 28 51  1  0
 28 52  1  0
 28 53  1  0
M  END
$$$$
[H]c1nc(N([H])c2c([H])c([H])c(N3C([H])([H])C([H])([H])N(C([H])([H])[H])C([H])([H])C3([H])[H])c(N([H])C(=O)C([H])([H])[H])c2[H])nc2c1C([H])([H])C([H])([H])c1c(C(=O)N([H])[H])nn(C([H])([H])[H])c1-2
     RDKit          3D

 64 68  0  0  0  0  0  0  0  0999 V2000
   -8.3802   -0.0851    0.3108 C   0  0  0  0  0  0  0  0  0  0  0  0
   -7.2791   -0.9784    0.1366 N   0  0  0  0  0  0  0  0  0  0  0  0
   -6.8075   -1.1647   -1.1727 C   0  0  0  0  0  0  0  0  0  0  0  0
   -5.3810   -0.7845   -1.4313 C   0  0  0  0  0  0  0  0  0  0  0  0
   -4.5023   -0.9691   -0.3281 N   0  0  0  0  0  0  0  0  0  0  0  0
   -5.0195   -1.6115    0.8692 C   0  0  0  0  0  0  0  0  0  0  0  0
   -6.3429   -1.0288    1.1928 C   0  0  0  0  0  0  0  0  0  0  0  0
   -3.1630   -0.5765   -0.3368 C   0  0  0  0  0  0  0  0  0  0  0  0
   -2.1913   -1.5476   -0.4248 C   0  0  0  0  0  0  0  0  0  0  0  0
   -0.8245   -1.2695   -0.4762 C   0  0  0  0  0  0  0  0  0  0  0  0
   -0.4596    0.0458   -0.4346 C   0  0  0  0  0  0  0  0  0  0  0  0
    0.8984    0.4274   -0.4569 N   0  0  0  0  0  0  0  0  0  0  0  0
    2.0297   -0.3280   -0.1257 C   0  0  0  0  0  0  0  0  0  0  0  0
    2.0163   -1.5861    0.2975 N   0  0  0  0  0  0  0  0  0  0  0  0
    3.1052   -2.3073    0.6105 C   0  0  0  0  0  0  0  0  0  0  0  0
    4.3625   -1.7350    0.4986 C   0  0  0  0  0  0  0  0  0  0  0  0
    5.5236   -2.5678    0.8496 C   0  0  0  0  0  0  0  0  0  0  0  0
    6.8423   -1.8962    0.7286 C   0  0  0  0  0  0  0  0  0  0  0  0
    6.8112   -0.5036    0.2478 C   0  0  0  0  0  0  0  0  0  0  0  0
    7.8979    0.3569    0.0240 C   0  0  0  0  0  0  0  0  0  0  0  0
    7.3642    1.5055   -0.4030 N   0  0  0  0  0  0  0  0  0  0  0  0
    6.0655    1.4491   -0.4671 N   0  0  0  0  0  0  0  0  0  0  0  0
    5.1530    2.5106   -0.8869 C   0  0  0  0  0  0  0  0  0  0  0  0
    5.6931    0.2181   -0.0706 C   0  0  0  0  0  0  0  0  0  0  0  0
    4.4029   -0.4378    0.0644 C   0  0  0  0  0  0  0  0  0  0  0  0
    3.2801    0.2267   -0.2320 N   0  0  0  0  0  0  0  0  0  0  0  0
    9.2968    0.0611    0.2134 C   0  0  0  0  0  0  0  0  0  0  0  0
   10.2725    1.0509   -0.0507 N   0  0  0  0  0  0  0  0  0  0  0  0
    9.6531   -1.0611    0.6089 O   0  0  0  0  0  0  0  0  0  0  0  0
   -1.4320    1.0595   -0.3443 C   0  0  0  0  0  0  0  0  0  0  0  0
   -2.7727    0.7597   -0.2949 C   0  0  0  0  0  0  0  0  0  0  0  0
   -3.7737    1.7551   -0.1643 N   0  0  0  0  0  0  0  0  0  0  0  0
   -3.6424    3.1328   -0.1853 C   0  0  0  0  0  0  0  0  0  0  0  0
   -4.8750    3.9844   -0.0205 C   0  0  0  0  0  0  0  0  0  0  0  0
   -2.5868    3.7587   -0.3287 O   0  0  0  0  0  0  0  0  0  0  0  0
   -8.1539    0.9645    0.0248 H   0  0  0  0  0  0  0  0  0  0  0  0
   -9.2364   -0.4980   -0.2742 H   0  0  0  0  0  0  0  0  0  0  0  0
   -8.6827   -0.1172    1.3776 H   0  0  0  0  0  0  0  0  0  0  0  0
   -7.0074   -2.2439   -1.4569 H   0  0  0  0  0  0  0  0  0  0  0  0
   -7.4385   -0.5878   -1.8835 H   0  0  0  0  0  0  0  0  0  0  0  0
   -5.2431    0.1874   -1.9351 H   0  0  0  0  0  0  0  0  0  0  0  0
   -5.0341   -1.5323   -2.2212 H   0  0  0  0  0  0  0  0  0  0  0  0
   -5.1148   -2.7040    0.6866 H   0  0  0  0  0  0  0  0  0  0  0  0
   -4.3442   -1.4848    1.7417 H   0  0  0  0  0  0  0  0  0  0  0  0
   -6.7957   -1.6458    2.0287 H   0  0  0  0  0  0  0  0  0  0  0  0
   -6.1778   -0.0243    1.6749 H   0  0  0  0  0  0  0  0  0  0  0  0
   -2.4666   -2.5866   -0.4589 H   0  0  0  0  0  0  0  0  0  0  0  0
   -0.1391   -2.1088   -0.5631 H   0  0  0  0  0  0  0  0  0  0  0  0
    1.1086    1.4435   -0.7780 H   0  0  0  0  0  0  0  0  0  0  0  0
    2.9962   -3.3216    0.9443 H   0  0  0  0  0  0  0  0  0  0  0  0
    5.5034   -3.4678    0.1722 H   0  0  0  0  0  0  0  0  0  0  0  0
    5.3702   -2.9812    1.8765 H   0  0  0  0  0  0  0  0  0  0  0  0
    7.5726   -2.4914    0.1048 H   0  0  0  0  0  0  0  0  0  0  0  0
    7.2979   -1.8612    1.7509 H   0  0  0  0  0  0  0  0  0  0  0  0
    4.5206    2.1629   -1.7244 H   0  0  0  0  0  0  0  0  0  0  0  0
    4.5624    2.8248   -0.0201 H   0  0  0  0  0  0  0  0  0  0  0  0
    5.7440    3.3889   -1.2169 H   0  0  0  0  0  0  0  0  0  0  0  0
   10.4243    1.3602   -1.0321 H   0  0  0  0  0  0  0  0  0  0  0  0
   10.8531    1.4890    0.7115 H   0  0  0  0  0  0  0  0  0  0  0  0
   -1.0628    2.0557   -0.3130 H   0  0  0  0  0  0  0  0  0  0  0  0
   -4.7765    1.3891   -0.0149 H   0  0  0  0  0  0  0  0  0  0  0  0
   -5.7097    3.3875    0.4173 H   0  0  0  0  0  0  0  0  0  0  0  0
   -4.6250    4.8711    0.5761 H   0  0  0  0  0  0  0  0  0  0  0  0
   -5.1799    4.2684   -1.0491 H   0  0  0  0  0  0  0  0  0  0  0  0
  1  2  1  0
  2  3  1  0
  3  4  1  0
  4  5  1  0
  5  6  1  0
  6  7  1  0
  5  8  1  0
  8  9  2  0
  9 10  1  0
 10 11  2  0
 11 12  1  0
 12 13  1  0
 13 14  2  0
 14 15  1  0
 15 16  2  0
 16 17  1  0
 17 18  1  0
 18 19  1  0
 19 20  1  0
 20 21  2  0
 21 22  1  0
 22 23  1  0
 22 24  1  0
 24 25  1  0
 25 26  2  0
 20 27  1  0
 27 28  1  0
 27 29  2  0
 11 30  1  0
 30 31  2  0
 31 32  1  0
 32 33  1  0
 33 34  1  0
 33 35  2  0
  7  2  1  0
 31  8  1  0
 26 13  1  0
 25 16  1  0
 24 19  2  0
  1 36  1  0
  1 37  1  0
  1 38  1  0
  3 39  1  0
  3 40  1  0
  4 41  1  0
  4 42  1  0
  6 43  1  0
  6 44  1  0
  7 45  1  0
  7 46  1  0
  9 47  1  0
 10 48  1  0
 12 49  1  0
 15 50  1  0
 17 51  1  0
 17 52  1  0
 18 53  1  0
 18 54  1  0
 23 55  1  0
 23 56  1  0
 23 57  1  0
 28 58  1  0
 28 59  1  0
 30 60  1  0
 32 61  1  0
 34 62  1  0
 34 63  1  0
 34 64  1  0
M  END
$$$$
[H]c1nc(N([H])c2c([H])c([H])c(N3C([H])([H])C([H])([H])N(C([H])([H])C([H])([H])[H])C([H])([H])C3([H])[H])c([H])c2[H])nc(N([H])c2c([H])c([H])c([H])c([H])c2S(=O)(=O)C([H])(C([H])([H])[H])C([H])([H])[H])c1F
     RDKit          3D

 66 69  0  0  0  0  0  0  0  0999 V2000
   10.2756   -1.6002    0.3695 C   0  0  0  0  0  0  0  0  0  0  0  0
    9.4992   -0.3493    0.6224 C   0  0  0  0  0  0  0  0  0  0  0  0
    8.6751   -0.0413   -0.5219 N   0  0  0  0  0  0  0  0  0  0  0  0
    7.8986    1.1634   -0.3333 C   0  0  0  0  0  0  0  0  0  0  0  0
    6.5780    0.8165    0.3280 C   0  0  0  0  0  0  0  0  0  0  0  0
    5.8112    0.0477   -0.6735 N   0  0  0  0  0  0  0  0  0  0  0  0
    6.6635   -0.5773   -1.6659 C   0  0  0  0  0  0  0  0  0  0  0  0
    7.8494   -1.1621   -0.9222 C   0  0  0  0  0  0  0  0  0  0  0  0
    4.4135   -0.0365   -0.6172 C   0  0  0  0  0  0  0  0  0  0  0  0
    3.7644    0.5336    0.4471 C   0  0  0  0  0  0  0  0  0  0  0  0
    2.3604    0.4703    0.5331 C   0  0  0  0  0  0  0  0  0  0  0  0
    1.5886   -0.1462   -0.4153 C   0  0  0  0  0  0  0  0  0  0  0  0
    0.1828   -0.2245   -0.3966 N   0  0  0  0  0  0  0  0  0  0  0  0
   -0.7419    0.4861    0.3715 C   0  0  0  0  0  0  0  0  0  0  0  0
   -0.4641    1.4324    1.2791 N   0  0  0  0  0  0  0  0  0  0  0  0
   -1.4058    2.0729    1.9790 C   0  0  0  0  0  0  0  0  0  0  0  0
   -2.7130    1.7646    1.7756 C   0  0  0  0  0  0  0  0  0  0  0  0
   -3.6490    2.4218    2.4916 F   0  0  0  0  0  0  0  0  0  0  0  0
   -3.0711    0.7754    0.8321 C   0  0  0  0  0  0  0  0  0  0  0  0
   -4.4341    0.5188    0.6820 N   0  0  0  0  0  0  0  0  0  0  0  0
   -5.1101   -0.3891   -0.1566 C   0  0  0  0  0  0  0  0  0  0  0  0
   -4.4156   -1.2155   -0.9982 C   0  0  0  0  0  0  0  0  0  0  0  0
   -5.0968   -2.1244   -1.8338 C   0  0  0  0  0  0  0  0  0  0  0  0
   -6.4679   -2.1830   -1.8048 C   0  0  0  0  0  0  0  0  0  0  0  0
   -7.1960   -1.3682   -0.9721 C   0  0  0  0  0  0  0  0  0  0  0  0
   -6.5024   -0.4848   -0.1622 C   0  0  0  0  0  0  0  0  0  0  0  0
   -7.4164    0.5494    0.8988 S   0  0  0  0  0  0  0  0  0  0  0  0
   -7.1117    0.3282    2.3347 O   0  0  0  0  0  0  0  0  0  0  0  0
   -7.1781    1.9813    0.5177 O   0  0  0  0  0  0  0  0  0  0  0  0
   -9.1706    0.2743    0.7017 C   0  0  0  0  0  0  0  0  0  0  0  0
   -9.8251    1.0722    1.8433 C   0  0  0  0  0  0  0  0  0  0  0  0
   -9.7113    0.8042   -0.5818 C   0  0  0  0  0  0  0  0  0  0  0  0
   -2.0474    0.2198    0.2092 N   0  0  0  0  0  0  0  0  0  0  0  0
    2.3088   -0.7137   -1.4844 C   0  0  0  0  0  0  0  0  0  0  0  0
    3.6784   -0.6597   -1.5811 C   0  0  0  0  0  0  0  0  0  0  0  0
   11.3050   -1.5342    0.7532 H   0  0  0  0  0  0  0  0  0  0  0  0
    9.7953   -2.4705    0.8492 H   0  0  0  0  0  0  0  0  0  0  0  0
   10.3595   -1.8543   -0.7145 H   0  0  0  0  0  0  0  0  0  0  0  0
    8.8101   -0.5426    1.4803 H   0  0  0  0  0  0  0  0  0  0  0  0
   10.1617    0.5072    0.8151 H   0  0  0  0  0  0  0  0  0  0  0  0
    8.4659    1.7782    0.4257 H   0  0  0  0  0  0  0  0  0  0  0  0
    7.8008    1.7865   -1.2189 H   0  0  0  0  0  0  0  0  0  0  0  0
    6.0476    1.7514    0.6071 H   0  0  0  0  0  0  0  0  0  0  0  0
    6.7883    0.2369    1.2227 H   0  0  0  0  0  0  0  0  0  0  0  0
    6.1785   -1.2897   -2.3224 H   0  0  0  0  0  0  0  0  0  0  0  0
    7.0470    0.2523   -2.3302 H   0  0  0  0  0  0  0  0  0  0  0  0
    7.4524   -1.6234    0.0056 H   0  0  0  0  0  0  0  0  0  0  0  0
    8.3847   -1.9170   -1.4954 H   0  0  0  0  0  0  0  0  0  0  0  0
    4.2618    1.0411    1.2480 H   0  0  0  0  0  0  0  0  0  0  0  0
    1.8807    0.9187    1.3881 H   0  0  0  0  0  0  0  0  0  0  0  0
   -0.2252   -0.9474   -1.0777 H   0  0  0  0  0  0  0  0  0  0  0  0
   -1.1545    2.8480    2.7207 H   0  0  0  0  0  0  0  0  0  0  0  0
   -5.1103    1.0978    1.3008 H   0  0  0  0  0  0  0  0  0  0  0  0
   -3.3383   -1.2202   -1.0692 H   0  0  0  0  0  0  0  0  0  0  0  0
   -4.5192   -2.7691   -2.4928 H   0  0  0  0  0  0  0  0  0  0  0  0
   -6.9867   -2.8740   -2.4399 H   0  0  0  0  0  0  0  0  0  0  0  0
   -8.2953   -1.4108   -0.9403 H   0  0  0  0  0  0  0  0  0  0  0  0
   -9.3953   -0.7681    0.9171 H   0  0  0  0  0  0  0  0  0  0  0  0
   -9.2175    0.9980    2.7680 H   0  0  0  0  0  0  0  0  0  0  0  0
  -10.8620    0.7655    2.0108 H   0  0  0  0  0  0  0  0  0  0  0  0
   -9.8420    2.1538    1.5499 H   0  0  0  0  0  0  0  0  0  0  0  0
  -10.5683    0.2241   -0.9778 H   0  0  0  0  0  0  0  0  0  0  0  0
  -10.0639    1.8402   -0.4219 H   0  0  0  0  0  0  0  0  0  0  0  0
   -8.8927    0.8760   -1.3315 H   0  0  0  0  0  0  0  0  0  0  0  0
    1.7226   -1.2042   -2.2446 H   0  0  0  0  0  0  0  0  0  0  0  0
    4.1904   -1.1071   -2.4193 H   0  0  0  0  0  0  0  0  0  0  0  0
  1  2  1  0
  2  3  1  0
  3  4  1  0
  4  5  1  0
  5  6  1  0
  6  7  1  0
  7  8  1  0
  6  9  1  0
  9 10  2  0
 10 11  1  0
 11 12  2  0
 12 13  1  0
 13 14  1  0
 14 15  2  0
 15 16  1  0
 16 17  2  0
 17 18  1  0
 17 19  1  0
 19 20  1  0
 20 21  1  0
 21 22  2  0
 22 23  1  0
 23 24  2  0
 24 25  1  0
 25 26  2  0
 26 27  1  0
 27 28  2  0
 27 29  2  0
 27 30  1  0
 30 31  1  0
 30 32  1  0
 19 33  2  0
 12 34  1  0
 34 35  2  0
  8  3  1  0
 35  9  1  0
 33 14  1  0
 26 21  1  0
  1 36  1  0
  1 37  1  0
  1 38  1  0
  2 39  1  0
  2 40  1  0
  4 41  1  0
  4 42  1  0
  5 43  1  0
  5 44  1  0
  7 45  1  0
  7 46  1  0
  8 47  1  0
  8 48  1  0
 10 49  1  0
 11 50  1  0
 13 51  1  0
 16 52  1  0
 20 53  1  0
 22 54  1  0
 23 55  1  0
 24 56  1  0
 25 57  1  0
 30 58  1  0
 31 59  1  0
 31 60  1  0
 31 61  1  0
 32 62  1  0
 32 63  1  0
 32 64  1  0
 34 65  1  0
 35 66  1  0
M  END
$$$$
