[H]c1c([H])c(N([H])C(=O)c2c(C([H])([H])[H])c(C(=O)C(=O)N([H])C3(C#N)C([H])([H])C(F)(F)C3([H])[H])c3n2C([H])([H])C([H])([H])C3([H])[H])c([H])c(Cl)c1F
     RDKit          3D

 51 54  0  0  0  0  0  0  0  0999 V2000
    0.5145    1.5698    1.1178 C   0  0  0  0  0  0  0  0  0  0  0  0
    0.5323    0.0956    0.8106 C   0  0  0  0  0  0  0  0  0  0  0  0
   -0.6047   -0.7170    0.8669 C   0  0  0  0  0  0  0  0  0  0  0  0
   -1.9463   -0.2940    1.2097 C   0  0  0  0  0  0  0  0  0  0  0  0
   -2.2402   -0.3560    2.4495 O   0  0  0  0  0  0  0  0  0  0  0  0
   -2.9146    0.1738    0.2331 C   0  0  0  0  0  0  0  0  0  0  0  0
   -2.5884    0.2202   -0.9740 O   0  0  0  0  0  0  0  0  0  0  0  0
   -4.1919    0.5660    0.6388 N   0  0  0  0  0  0  0  0  0  0  0  0
   -5.2229    1.0446   -0.2541 C   0  0  0  0  0  0  0  0  0  0  0  0
   -6.5033    1.3958    0.4683 C   0  0  0  0  0  0  0  0  0  0  0  0
   -7.2571    0.7420   -0.6815 C   0  0  0  0  0  0  0  0  0  0  0  0
   -7.5836    1.6672   -1.6629 F   0  0  0  0  0  0  0  0  0  0  0  0
   -8.3197   -0.0403   -0.2866 F   0  0  0  0  0  0  0  0  0  0  0  0
   -5.9849   -0.0326   -0.9825 C   0  0  0  0  0  0  0  0  0  0  0  0
   -4.8128    2.1630   -1.1080 C   0  0  0  0  0  0  0  0  0  0  0  0
   -4.4888    3.0556   -1.7647 N   0  0  0  0  0  0  0  0  0  0  0  0
   -0.2144   -1.9804    0.5390 C   0  0  0  0  0  0  0  0  0  0  0  0
   -0.7464   -3.3890    0.3631 C   0  0  0  0  0  0  0  0  0  0  0  0
    0.5403   -4.1668    0.6775 C   0  0  0  0  0  0  0  0  0  0  0  0
    1.5367   -3.3097   -0.0686 C   0  0  0  0  0  0  0  0  0  0  0  0
    1.0935   -1.9542    0.2922 N   0  0  0  0  0  0  0  0  0  0  0  0
    1.5822   -0.6780    0.4532 C   0  0  0  0  0  0  0  0  0  0  0  0
    2.9768   -0.3313    0.2403 C   0  0  0  0  0  0  0  0  0  0  0  0
    3.7899   -1.2980   -0.0087 O   0  0  0  0  0  0  0  0  0  0  0  0
    3.5426    0.9372    0.2732 N   0  0  0  0  0  0  0  0  0  0  0  0
    4.9212    1.2112    0.0439 C   0  0  0  0  0  0  0  0  0  0  0  0
    5.4891    2.3642    0.6318 C   0  0  0  0  0  0  0  0  0  0  0  0
    6.7970    2.7298    0.4493 C   0  0  0  0  0  0  0  0  0  0  0  0
    7.6229    1.9548   -0.3408 C   0  0  0  0  0  0  0  0  0  0  0  0
    8.9139    2.3338   -0.5081 F   0  0  0  0  0  0  0  0  0  0  0  0
    7.1127    0.8351   -0.9258 C   0  0  0  0  0  0  0  0  0  0  0  0
    8.1580   -0.1470   -1.9267 Cl  0  0  0  0  0  0  0  0  0  0  0  0
    5.7767    0.4844   -0.7247 C   0  0  0  0  0  0  0  0  0  0  0  0
    1.1708    1.7677    1.9772 H   0  0  0  0  0  0  0  0  0  0  0  0
   -0.5238    1.8249    1.5033 H   0  0  0  0  0  0  0  0  0  0  0  0
    0.6628    2.1877    0.2347 H   0  0  0  0  0  0  0  0  0  0  0  0
   -4.4372    0.5155    1.6634 H   0  0  0  0  0  0  0  0  0  0  0  0
   -6.6869    2.4861    0.5635 H   0  0  0  0  0  0  0  0  0  0  0  0
   -6.6385    0.8478    1.4318 H   0  0  0  0  0  0  0  0  0  0  0  0
   -5.8246   -0.0578   -2.0819 H   0  0  0  0  0  0  0  0  0  0  0  0
   -5.9106   -1.0054   -0.4882 H   0  0  0  0  0  0  0  0  0  0  0  0
   -1.0303   -3.4768   -0.6903 H   0  0  0  0  0  0  0  0  0  0  0  0
   -1.5438   -3.6080    1.0855 H   0  0  0  0  0  0  0  0  0  0  0  0
    0.7004   -4.1307    1.7604 H   0  0  0  0  0  0  0  0  0  0  0  0
    0.4497   -5.1791    0.2593 H   0  0  0  0  0  0  0  0  0  0  0  0
    2.5746   -3.4961    0.2509 H   0  0  0  0  0  0  0  0  0  0  0  0
    1.3948   -3.5002   -1.1547 H   0  0  0  0  0  0  0  0  0  0  0  0
    2.9546    1.7741    0.4677 H   0  0  0  0  0  0  0  0  0  0  0  0
    4.8125    2.9539    1.2494 H   0  0  0  0  0  0  0  0  0  0  0  0
    7.1449    3.6401    0.9463 H   0  0  0  0  0  0  0  0  0  0  0  0
    5.4507   -0.3937   -1.2337 H   0  0  0  0  0  0  0  0  0  0  0  0
  1  2  1  0
  2  3  1  0
  3  4  1  0
  4  5  2  0
  4  6  1  0
  6  7  2  0
  6  8  1  0
  8  9  1  0
  9 10  1  0
 10 11  1  0
 11 12  1  0
 11 13  1  0
 11 14  1  0
  9 15  1  0
 15 16  3  0
  3 17  2  0
 17 18  1  0
 18 19  1  0
 19 20  1  0
 20 21  1  0
 21 22  1  0
 22 23  1  0
 23 24  2  0
 23 25  1  0
 25 26  1  0
 26 27  2  0
 27 28  1  0
 28 29  2  0
 29 30  1  0
 29 31  1  0
 31 32  1  0
 31 33  2  0
 22  2  2  0
 33 26  1  0
 14  9  1  0
 21 17  1  0
  1 34  1  0
  1 35  1  0
  1 36  1  0
  8 37  1  0
 10 38  1  0
 10 39  1  0
 14 40  1  0
 14 41  1  0
 18 42  1  0
 18 43  1  0
 19 44  1  0
 19 45  1  0
 20 46  1  0
 20 47  1  0
 25 48  1  0
 27 49  1  0
 28 50  1  0
 33 51  1  0
M  END
$$$$
[H]c1c(N([H])c2c([H])c(C([H])([H])[H])nn2[H])nc(Sc2c([H])c([H])c(N([H])C(=O)C3([H])C([H])([H])C3([H])[H])c([H])c2[H])nc1N1C([H])([H])C([H])([H])N(C([H])([H])[H])C([H])([H])C1([H])[H]
     RDKit          3D

 61 65  0  0  0  0  0  0  0  0999 V2000
   -4.2646   -5.6180   -0.8930 C   0  0  0  0  0  0  0  0  0  0  0  0
   -4.0388   -4.9096    0.3469 N   0  0  0  0  0  0  0  0  0  0  0  0
   -4.9696   -3.8770    0.6179 C   0  0  0  0  0  0  0  0  0  0  0  0
   -4.4568   -2.4780    0.3905 C   0  0  0  0  0  0  0  0  0  0  0  0
   -3.1604   -2.2721    0.9830 N   0  0  0  0  0  0  0  0  0  0  0  0
   -2.4057   -3.4027    1.4241 C   0  0  0  0  0  0  0  0  0  0  0  0
   -2.6716   -4.6457    0.6165 C   0  0  0  0  0  0  0  0  0  0  0  0
   -2.6280   -0.9703    1.1317 C   0  0  0  0  0  0  0  0  0  0  0  0
   -3.3065    0.1623    0.7177 C   0  0  0  0  0  0  0  0  0  0  0  0
   -2.7272    1.4220    0.8916 C   0  0  0  0  0  0  0  0  0  0  0  0
   -3.4153    2.5840    0.4694 N   0  0  0  0  0  0  0  0  0  0  0  0
   -2.9879    3.9099    0.5662 C   0  0  0  0  0  0  0  0  0  0  0  0
   -1.8261    4.4015    1.0807 C   0  0  0  0  0  0  0  0  0  0  0  0
   -1.8242    5.7979    0.9682 C   0  0  0  0  0  0  0  0  0  0  0  0
   -0.7519    6.7000    1.4065 C   0  0  0  0  0  0  0  0  0  0  0  0
   -2.9975    6.0783    0.3855 N   0  0  0  0  0  0  0  0  0  0  0  0
   -3.6831    4.9846    0.1471 N   0  0  0  0  0  0  0  0  0  0  0  0
   -1.5435    1.4581    1.4516 N   0  0  0  0  0  0  0  0  0  0  0  0
   -0.8398    0.3793    1.8733 C   0  0  0  0  0  0  0  0  0  0  0  0
    0.7577    0.5455    2.6192 S   0  0  0  0  0  0  0  0  0  0  0  0
    2.0730    0.4998    1.4305 C   0  0  0  0  0  0  0  0  0  0  0  0
    2.5763    1.6046    0.7996 C   0  0  0  0  0  0  0  0  0  0  0  0
    3.6213    1.4805   -0.1305 C   0  0  0  0  0  0  0  0  0  0  0  0
    4.1788    0.2819   -0.4490 C   0  0  0  0  0  0  0  0  0  0  0  0
    5.2261    0.1244   -1.3846 N   0  0  0  0  0  0  0  0  0  0  0  0
    5.8169    1.1027   -2.1894 C   0  0  0  0  0  0  0  0  0  0  0  0
    5.5218    2.3221   -2.2325 O   0  0  0  0  0  0  0  0  0  0  0  0
    6.9272    0.6974   -3.1173 C   0  0  0  0  0  0  0  0  0  0  0  0
    6.9786   -0.6854   -3.6287 C   0  0  0  0  0  0  0  0  0  0  0  0
    7.8874   -0.2702   -2.5303 C   0  0  0  0  0  0  0  0  0  0  0  0
    3.6565   -0.8432    0.2023 C   0  0  0  0  0  0  0  0  0  0  0  0
    2.6430   -0.7071    1.1021 C   0  0  0  0  0  0  0  0  0  0  0  0
   -1.4192   -0.8072    1.6934 N   0  0  0  0  0  0  0  0  0  0  0  0
   -5.2860   -5.5458   -1.2607 H   0  0  0  0  0  0  0  0  0  0  0  0
   -4.0438   -6.6889   -0.6970 H   0  0  0  0  0  0  0  0  0  0  0  0
   -3.5203   -5.2881   -1.6729 H   0  0  0  0  0  0  0  0  0  0  0  0
   -5.8463   -4.0096   -0.0641 H   0  0  0  0  0  0  0  0  0  0  0  0
   -5.3882   -3.9471    1.6460 H   0  0  0  0  0  0  0  0  0  0  0  0
   -5.1974   -1.7757    0.8383 H   0  0  0  0  0  0  0  0  0  0  0  0
   -4.4054   -2.2132   -0.6885 H   0  0  0  0  0  0  0  0  0  0  0  0
   -1.3288   -3.1638    1.3038 H   0  0  0  0  0  0  0  0  0  0  0  0
   -2.5603   -3.6014    2.5090 H   0  0  0  0  0  0  0  0  0  0  0  0
   -2.1263   -4.6198   -0.3623 H   0  0  0  0  0  0  0  0  0  0  0  0
   -2.2259   -5.5035    1.1720 H   0  0  0  0  0  0  0  0  0  0  0  0
   -4.2768    0.0432    0.2657 H   0  0  0  0  0  0  0  0  0  0  0  0
   -4.3882    2.4468    0.0162 H   0  0  0  0  0  0  0  0  0  0  0  0
   -0.9930    3.8851    1.5204 H   0  0  0  0  0  0  0  0  0  0  0  0
    0.0279    6.8369    0.6278 H   0  0  0  0  0  0  0  0  0  0  0  0
   -0.3297    6.3446    2.3712 H   0  0  0  0  0  0  0  0  0  0  0  0
   -1.1768    7.7166    1.6036 H   0  0  0  0  0  0  0  0  0  0  0  0
   -4.6364    5.0189   -0.3108 H   0  0  0  0  0  0  0  0  0  0  0  0
    2.1491    2.5815    1.0345 H   0  0  0  0  0  0  0  0  0  0  0  0
    3.9423    2.4136   -0.5646 H   0  0  0  0  0  0  0  0  0  0  0  0
    5.6195   -0.8577   -1.4942 H   0  0  0  0  0  0  0  0  0  0  0  0
    7.3829    1.4795   -3.7486 H   0  0  0  0  0  0  0  0  0  0  0  0
    6.1732   -1.4279   -3.3745 H   0  0  0  0  0  0  0  0  0  0  0  0
    7.4107   -0.8935   -4.6283 H   0  0  0  0  0  0  0  0  0  0  0  0
    7.7380   -0.6937   -1.5244 H   0  0  0  0  0  0  0  0  0  0  0  0
    8.9683   -0.1884   -2.8070 H   0  0  0  0  0  0  0  0  0  0  0  0
    4.0993   -1.7971   -0.0507 H   0  0  0  0  0  0  0  0  0  0  0  0
    2.2717   -1.6019    1.5799 H   0  0  0  0  0  0  0  0  0  0  0  0
  1  2  1  0
  2  3  1  0
  3  4  1  0
  4  5  1  0
  5  6  1  0
  6  7  1  0
  5  8  1  0
  8  9  2  0
  9 10  1  0
 10 11  1  0
 11 12  1  0
 12 13  2  0
 13 14  1  0
 14 15  1  0
 14 16  2  0
 16 17  1  0
 10 18  2  0
 18 19  1  0
 19 20  1  0
 20 21  1  0
 21 22  2  0
 22 23  1  0
 23 24  2  0
 24 25  1  0
 25 26  1  0
 26 27  2  0
 26 28  1  0
 28 29  1  0
 29 30  1  0
 24 31  1  0
 31 32  2  0
 19 33  2  0
  7  2  1  0
 33  8  1  0
 17 12  1  0
 32 21  1  0
 30 28  1  0
  1 34  1  0
  1 35  1  0
  1 36  1  0
  3 37  1  0
  3 38  1  0
  4 39  1  0
  4 40  1  0
  6 41  1  0
  6 42  1  0
  7 43  1  0
  7 44  1  0
  9 45  1  0
 11 46  1  0
 13 47  1  0
 15 48  1  0
 15 49  1  0
 15 50  1  0
 17 51  1  0
 22 52  1  0
 23 53  1  0
 25 54  1  0
 28 55  1  0
 29 56  1  0
 29 57  1  0
 30 58  1  0
 30 59  1  0
 31 60  1  0
 32 61  1  0
M  END
$$$$
[H]c1c([H])c(Cl)c(-c2c([H])c3c([H])nc(N([H])c4c([H])c([H])c(N5C([H])([H])C([H])([H])N(C([H])([H])[H])C([H])([H])C5([H])[H])c(F)c4[H])nc3n(C([H])([H])[H])c2=O)c(Cl)c1[H]
     RDKit          3D

 58 62  0  0  0  0  0  0  0  0999 V2000
   -8.9319   -0.7705   -1.0083 C   0  0  0  0  0  0  0  0  0  0  0  0
   -7.8582   -1.3013   -0.2360 N   0  0  0  0  0  0  0  0  0  0  0  0
   -6.7295   -1.7504   -1.0133 C   0  0  0  0  0  0  0  0  0  0  0  0
   -5.9295   -0.5991   -1.5066 C   0  0  0  0  0  0  0  0  0  0  0  0
   -5.4924    0.1947   -0.3745 N   0  0  0  0  0  0  0  0  0  0  0  0
   -6.5665    0.6375    0.5317 C   0  0  0  0  0  0  0  0  0  0  0  0
   -7.4708   -0.4886    0.8899 C   0  0  0  0  0  0  0  0  0  0  0  0
   -4.1516    0.5403   -0.1396 C   0  0  0  0  0  0  0  0  0  0  0  0
   -3.7656    1.8659   -0.0846 C   0  0  0  0  0  0  0  0  0  0  0  0
   -2.4656    2.2313    0.1425 C   0  0  0  0  0  0  0  0  0  0  0  0
   -1.4586    1.2592    0.3313 C   0  0  0  0  0  0  0  0  0  0  0  0
   -0.1374    1.6764    0.5922 N   0  0  0  0  0  0  0  0  0  0  0  0
    1.0341    0.9804    0.2981 C   0  0  0  0  0  0  0  0  0  0  0  0
    1.0700   -0.1998   -0.3019 N   0  0  0  0  0  0  0  0  0  0  0  0
    2.2057   -0.8523   -0.5756 C   0  0  0  0  0  0  0  0  0  0  0  0
    3.4162   -0.2556   -0.2084 C   0  0  0  0  0  0  0  0  0  0  0  0
    4.5878   -0.9073   -0.4799 C   0  0  0  0  0  0  0  0  0  0  0  0
    5.7690   -0.2922   -0.1048 C   0  0  0  0  0  0  0  0  0  0  0  0
    7.0720   -0.8882   -0.3410 C   0  0  0  0  0  0  0  0  0  0  0  0
    7.6691   -1.7185    0.5850 C   0  0  0  0  0  0  0  0  0  0  0  0
    6.8491   -2.0648    2.0725 Cl  0  0  0  0  0  0  0  0  0  0  0  0
    8.9099   -2.2688    0.3282 C   0  0  0  0  0  0  0  0  0  0  0  0
    9.5586   -2.0016   -0.8360 C   0  0  0  0  0  0  0  0  0  0  0  0
    8.9473   -1.1629   -1.7629 C   0  0  0  0  0  0  0  0  0  0  0  0
    7.7170   -0.6103   -1.5211 C   0  0  0  0  0  0  0  0  0  0  0  0
    6.9437    0.4420   -2.6777 Cl  0  0  0  0  0  0  0  0  0  0  0  0
    5.7245    0.9419    0.5222 C   0  0  0  0  0  0  0  0  0  0  0  0
    6.8123    1.4998    0.8633 O   0  0  0  0  0  0  0  0  0  0  0  0
    4.5609    1.5559    0.7749 N   0  0  0  0  0  0  0  0  0  0  0  0
    4.5099    2.8383    1.4261 C   0  0  0  0  0  0  0  0  0  0  0  0
    3.3846    0.9749    0.4174 C   0  0  0  0  0  0  0  0  0  0  0  0
    2.2155    1.5746    0.6624 N   0  0  0  0  0  0  0  0  0  0  0  0
   -1.8228   -0.0378    0.2808 C   0  0  0  0  0  0  0  0  0  0  0  0
   -3.1601   -0.3806    0.0464 C   0  0  0  0  0  0  0  0  0  0  0  0
   -3.4558   -1.6861    0.0072 F   0  0  0  0  0  0  0  0  0  0  0  0
   -9.4426   -1.6461   -1.5065 H   0  0  0  0  0  0  0  0  0  0  0  0
   -8.6447   -0.0659   -1.7978 H   0  0  0  0  0  0  0  0  0  0  0  0
   -9.6872   -0.3628   -0.3098 H   0  0  0  0  0  0  0  0  0  0  0  0
   -7.1796   -2.2765   -1.9047 H   0  0  0  0  0  0  0  0  0  0  0  0
   -6.2008   -2.5246   -0.4625 H   0  0  0  0  0  0  0  0  0  0  0  0
   -6.6301    0.0610   -2.0861 H   0  0  0  0  0  0  0  0  0  0  0  0
   -5.1053   -0.8683   -2.1795 H   0  0  0  0  0  0  0  0  0  0  0  0
   -7.0915    1.4840    0.0341 H   0  0  0  0  0  0  0  0  0  0  0  0
   -6.0703    1.0354    1.4277 H   0  0  0  0  0  0  0  0  0  0  0  0
   -8.4191   -0.0399    1.2960 H   0  0  0  0  0  0  0  0  0  0  0  0
   -7.0280   -1.0614    1.7180 H   0  0  0  0  0  0  0  0  0  0  0  0
   -4.4886    2.6562   -0.2211 H   0  0  0  0  0  0  0  0  0  0  0  0
   -2.1488    3.2571    0.1873 H   0  0  0  0  0  0  0  0  0  0  0  0
   -0.0891    2.6457    1.0777 H   0  0  0  0  0  0  0  0  0  0  0  0
    2.2619   -1.8131   -1.0627 H   0  0  0  0  0  0  0  0  0  0  0  0
    4.6444   -1.8712   -0.9685 H   0  0  0  0  0  0  0  0  0  0  0  0
    9.3999   -2.9251    1.0414 H   0  0  0  0  0  0  0  0  0  0  0  0
   10.5382   -2.4103   -1.0867 H   0  0  0  0  0  0  0  0  0  0  0  0
    9.4667   -0.9426   -2.7070 H   0  0  0  0  0  0  0  0  0  0  0  0
    5.4926    3.3239    1.4794 H   0  0  0  0  0  0  0  0  0  0  0  0
    4.1518    2.7012    2.4713 H   0  0  0  0  0  0  0  0  0  0  0  0
    3.8178    3.5291    0.8827 H   0  0  0  0  0  0  0  0  0  0  0  0
   -1.1083   -0.8621    0.4361 H   0  0  0  0  0  0  0  0  0  0  0  0
  1  2  1  0
  2  3  1  0
  3  4  1  0
  4  5  1  0
  5  6  1  0
  6  7  1  0
  5  8  1  0
  8  9  2  0
  9 10  1  0
 10 11  2  0
 11 12  1  0
 12 13  1  0
 13 14  2  0
 14 15  1  0
 15 16  2  0
 16 17  1  0
 17 18  2  0
 18 19  1  0
 19 20  2  0
 20 21  1  0
 20 22  1  0
 22 23  2  0
 23 24  1  0
 24 25  2  0
 25 26  1  0
 18 27  1  0
 27 28  2  0
 27 29  1  0
 29 30  1  0
 29 31  1  0
 31 32  2  0
 11 33  1  0
 33 34  2  0
 34 35  1  0
  7  2  1  0
 34  8  1  0
 32 13  1  0
 31 16  1  0
 25 19  1  0
  1 36  1  0
  1 37  1  0
  1 38  1  0
  3 39  1  0
  3 40  1  0
  4 41  1  0
  4 42  1  0
  6 43  1  0
  6 44  1  0
  7 45  1  0
  7 46  1  0
  9 47  1  0
 10 48  1  0
 12 49  1  0
 15 50  1  0
 17 51  1  0
 22 52  1  0
 23 53  1  0
 24 54  1  0
 30 55  1  0
 30 56  1  0
 30 57  1  0
 33 58  1  0
M  END
$$$$
[H]OC(=O)C([H])([H])C([H])([H])[C@@]([H])(C([H])([H])[H])[C@@]1([H])C([H])([H])C([H])([H])[C@@]2([H])[C@@]3([H])[C@]([H])(C([H])([H])C([H])([H])[C@@]21C([H])([H])[H])[C@@]1(C([H])([H])[H])C([H])([H])C([H])([H])[C@]([H])(O[H])[C@@]1([H])C([H])([H])[C@@]3([H])O[H]
     RDKit          3D

 65 68  0  0  0  0  0  0  0  0999 V2000
   -4.5889   -1.8919    0.1735 C   0  0  0  0  0  0  0  0  0  0  0  0
   -3.5703   -0.8018    0.6004 C   0  0  2  0  0  0  0  0  0  0  0  0
   -4.1381    0.4606   -0.0284 C   0  0  0  0  0  0  0  0  0  0  0  0
   -5.5443    0.7329    0.5169 C   0  0  0  0  0  0  0  0  0  0  0  0
   -6.0817    1.9744   -0.1054 C   0  0  0  0  0  0  0  0  0  0  0  0
   -7.3465    2.4620    0.2073 O   0  0  0  0  0  0  0  0  0  0  0  0
   -5.3598    2.5850   -0.9330 O   0  0  0  0  0  0  0  0  0  0  0  0
   -2.2561   -1.2207    0.0713 C   0  0  1  0  0  0  0  0  0  0  0  0
   -2.2407   -1.3178   -1.4627 C   0  0  0  0  0  0  0  0  0  0  0  0
   -1.2063   -0.2178   -1.8250 C   0  0  0  0  0  0  0  0  0  0  0  0
   -0.2084   -0.5500   -0.7960 C   0  0  1  0  0  0  0  0  0  0  0  0
    0.9869    0.2683   -0.6055 C   0  0  2  0  0  0  0  0  0  0  0  0
    1.6796    0.6660   -1.8931 C   0  0  2  0  0  0  0  0  0  0  0  0
    1.9796   -0.4295   -2.6947 O   0  0  0  0  0  0  0  0  0  0  0  0
    2.8373    1.5293   -1.5702 C   0  0  0  0  0  0  0  0  0  0  0  0
    3.5449    1.2500   -0.3048 C   0  0  2  0  0  0  0  0  0  0  0  0
    5.0432    1.2891   -0.5886 C   0  0  1  0  0  0  0  0  0  0  0  0
    5.7387    2.0387    0.3309 O   0  0  0  0  0  0  0  0  0  0  0  0
    5.4807   -0.1381   -0.6840 C   0  0  0  0  0  0  0  0  0  0  0  0
    4.3484   -1.0039   -0.2149 C   0  0  0  0  0  0  0  0  0  0  0  0
    3.2874   -0.0535    0.3464 C   0  0  1  0  0  0  0  0  0  0  0  0
    3.6481    0.0963    1.8334 C   0  0  0  0  0  0  0  0  0  0  0  0
    1.9349   -0.6059    0.2299 C   0  0  1  0  0  0  0  0  0  0  0  0
    1.2553   -0.9405    1.5098 C   0  0  0  0  0  0  0  0  0  0  0  0
   -0.1440   -1.4215    1.4165 C   0  0  0  0  0  0  0  0  0  0  0  0
   -1.0276   -0.5403    0.5069 C   0  0  2  0  0  0  0  0  0  0  0  0
   -1.1363    0.8343    1.0499 C   0  0  0  0  0  0  0  0  0  0  0  0
   -5.4330   -1.8026    0.8811 H   0  0  0  0  0  0  0  0  0  0  0  0
   -4.1257   -2.8960    0.2663 H   0  0  0  0  0  0  0  0  0  0  0  0
   -4.9314   -1.6490   -0.8264 H   0  0  0  0  0  0  0  0  0  0  0  0
   -3.6133   -0.7860    1.6879 H   0  0  0  0  0  0  0  0  0  0  0  0
   -4.3268    0.2781   -1.1284 H   0  0  0  0  0  0  0  0  0  0  0  0
   -3.5610    1.3542    0.1530 H   0  0  0  0  0  0  0  0  0  0  0  0
   -5.5223    0.9003    1.6122 H   0  0  0  0  0  0  0  0  0  0  0  0
   -6.2514   -0.0719    0.2270 H   0  0  0  0  0  0  0  0  0  0  0  0
   -7.8151    2.0798    1.0078 H   0  0  0  0  0  0  0  0  0  0  0  0
   -2.1300   -2.3134    0.4080 H   0  0  0  0  0  0  0  0  0  0  0  0
   -1.7575   -2.2560   -1.8017 H   0  0  0  0  0  0  0  0  0  0  0  0
   -3.1957   -1.1698   -1.9326 H   0  0  0  0  0  0  0  0  0  0  0  0
   -0.8197   -0.3695   -2.8310 H   0  0  0  0  0  0  0  0  0  0  0  0
   -1.7125    0.7371   -1.7373 H   0  0  0  0  0  0  0  0  0  0  0  0
    0.0831   -1.6170   -0.9531 H   0  0  0  0  0  0  0  0  0  0  0  0
    0.8772    1.2123   -0.0358 H   0  0  0  0  0  0  0  0  0  0  0  0
    0.9263    1.2658   -2.4689 H   0  0  0  0  0  0  0  0  0  0  0  0
    2.0473   -0.1685   -3.6417 H   0  0  0  0  0  0  0  0  0  0  0  0
    2.4833    2.6027   -1.5404 H   0  0  0  0  0  0  0  0  0  0  0  0
    3.5307    1.5128   -2.4633 H   0  0  0  0  0  0  0  0  0  0  0  0
    3.3778    2.0673    0.4574 H   0  0  0  0  0  0  0  0  0  0  0  0
    5.2461    1.7549   -1.5975 H   0  0  0  0  0  0  0  0  0  0  0  0
    6.5650    1.5279    0.5669 H   0  0  0  0  0  0  0  0  0  0  0  0
    6.4211   -0.2875   -0.1398 H   0  0  0  0  0  0  0  0  0  0  0  0
    5.6955   -0.4495   -1.7482 H   0  0  0  0  0  0  0  0  0  0  0  0
    4.7646   -1.6590    0.5995 H   0  0  0  0  0  0  0  0  0  0  0  0
    3.9464   -1.6813   -0.9713 H   0  0  0  0  0  0  0  0  0  0  0  0
    4.7286    0.4226    1.8937 H   0  0  0  0  0  0  0  0  0  0  0  0
    3.6254   -0.8854    2.3502 H   0  0  0  0  0  0  0  0  0  0  0  0
    3.0722    0.8823    2.3207 H   0  0  0  0  0  0  0  0  0  0  0  0
    1.9989   -1.5691   -0.3592 H   0  0  0  0  0  0  0  0  0  0  0  0
    1.8248   -1.7829    2.0188 H   0  0  0  0  0  0  0  0  0  0  0  0
    1.2984   -0.1225    2.2688 H   0  0  0  0  0  0  0  0  0  0  0  0
   -0.6060   -1.3564    2.4231 H   0  0  0  0  0  0  0  0  0  0  0  0
   -0.2740   -2.4476    1.0561 H   0  0  0  0  0  0  0  0  0  0  0  0
   -1.9430    0.9693    1.7968 H   0  0  0  0  0  0  0  0  0  0  0  0
   -1.2094    1.6528    0.3239 H   0  0  0  0  0  0  0  0  0  0  0  0
   -0.2011    1.0670    1.6464 H   0  0  0  0  0  0  0  0  0  0  0  0
  1  2  1  0
  2  3  1  0
  3  4  1  0
  4  5  1  0
  5  6  1  0
  5  7  2  0
  2  8  1  0
  8  9  1  0
  9 10  1  0
 10 11  1  0
 11 12  1  0
 12 13  1  0
 13 14  1  0
 13 15  1  0
 15 16  1  0
 16 17  1  0
 17 18  1  0
 17 19  1  0
 19 20  1  0
 20 21  1  0
 21 22  1  1
 21 23  1  0
 23 24  1  0
 24 25  1  0
 25 26  1  0
 26 27  1  1
 26  8  1  0
 26 11  1  0
 23 12  1  0
 21 16  1  0
  1 28  1  0
  1 29  1  0
  1 30  1  0
  2 31  1  1
  3 32  1  0
  3 33  1  0
  4 34  1  0
  4 35  1  0
  6 36  1  0
  8 37  1  1
  9 38  1  0
  9 39  1  0
 10 40  1  0
 10 41  1  0
 11 42  1  6
 12 43  1  1
 13 44  1  6
 14 45  1  0
 15 46  1  0
 15 47  1  0
 16 48  1  1
 17 49  1  6
 18 50  1  0
 19 51  1  0
 19 52  1  0
 20 53  1  0
 20 54  1  0
 22 55  1  0
 22 56  1  0
 22 57  1  0
 23 58  1  6
 24 59  1  0
 24 60  1  0
 25 61  1  0
 25 62  1  0
 27 63  1  0
 27 64  1  0
 27 65  1  0
M  END
$$$$
[H]c1c([H])c([H])c2c(c1[H])c1c3c(c4c5c([H])c([H])c([H])c([H])c5n5c4c1n2[C@@]1([H])O[C@]5(C([H])([H])[H])[C@@]([H])(OC([H])([H])[H])[C@@]([H])(N([H])C([H])([H])[H])C1([H])[H])C([H])([H])N([H])C3=O
     RDKit          3D

 61 68  0  0  0  0  0  0  0  0999 V2000
   -2.5900    1.1246    2.6909 C   0  0  0  0  0  0  0  0  0  0  0  0
   -2.2701    0.1494    1.6691 N   0  0  0  0  0  0  0  0  0  0  0  0
   -2.7037    0.7256    0.3894 C   0  0  1  0  0  0  0  0  0  0  0  0
   -1.9693    1.9591    0.0600 C   0  0  0  0  0  0  0  0  0  0  0  0
   -1.0374    1.8542   -1.1025 C   0  0  2  0  0  0  0  0  0  0  0  0
   -1.1108    0.8211   -1.8978 O   0  0  0  0  0  0  0  0  0  0  0  0
   -1.4719   -0.4453   -1.4993 C   0  0  2  0  0  0  0  0  0  0  0  0
   -1.8587   -1.0747   -2.8537 C   0  0  0  0  0  0  0  0  0  0  0  0
   -2.6627   -0.3659   -0.6565 C   0  0  1  0  0  0  0  0  0  0  0  0
   -3.0555   -1.5061    0.0270 O   0  0  0  0  0  0  0  0  0  0  0  0
   -4.3079   -1.9695   -0.2639 C   0  0  0  0  0  0  0  0  0  0  0  0
   -0.3020   -1.1026   -0.9411 N   0  0  0  0  0  0  0  0  0  0  0  0
   -0.0368   -2.4107   -0.8661 C   0  0  0  0  0  0  0  0  0  0  0  0
   -0.7505   -3.5118   -1.2342 C   0  0  0  0  0  0  0  0  0  0  0  0
   -0.2313   -4.7829   -1.0386 C   0  0  0  0  0  0  0  0  0  0  0  0
    1.0025   -5.0019   -0.4761 C   0  0  0  0  0  0  0  0  0  0  0  0
    1.7444   -3.8826   -0.0939 C   0  0  0  0  0  0  0  0  0  0  0  0
    1.2038   -2.6348   -0.3003 C   0  0  0  0  0  0  0  0  0  0  0  0
    1.7282   -1.3877   -0.0109 C   0  0  0  0  0  0  0  0  0  0  0  0
    2.9250   -0.9637    0.5498 C   0  0  0  0  0  0  0  0  0  0  0  0
    4.0703   -1.7821    1.0519 C   0  0  0  0  0  0  0  0  0  0  0  0
    5.0490   -0.8360    1.5052 N   0  0  0  0  0  0  0  0  0  0  0  0
    4.5511    0.4878    1.3292 C   0  0  0  0  0  0  0  0  0  0  0  0
    5.2116    1.4752    1.6612 O   0  0  0  0  0  0  0  0  0  0  0  0
    3.2325    0.3685    0.7340 C   0  0  0  0  0  0  0  0  0  0  0  0
    2.2736    1.2731    0.3281 C   0  0  0  0  0  0  0  0  0  0  0  0
    2.1943    2.6494    0.3519 C   0  0  0  0  0  0  0  0  0  0  0  0
    3.0346    3.6410    0.7719 C   0  0  0  0  0  0  0  0  0  0  0  0
    2.6237    4.9672    0.6424 C   0  0  0  0  0  0  0  0  0  0  0  0
    1.4040    5.3207    0.1079 C   0  0  0  0  0  0  0  0  0  0  0  0
    0.5569    4.3176   -0.3154 C   0  0  0  0  0  0  0  0  0  0  0  0
    0.9564    3.0255   -0.1896 C   0  0  0  0  0  0  0  0  0  0  0  0
    0.3179    1.9031   -0.5262 N   0  0  0  0  0  0  0  0  0  0  0  0
    1.0813    0.8475   -0.2300 C   0  0  0  0  0  0  0  0  0  0  0  0
    0.8029   -0.4946   -0.4048 C   0  0  0  0  0  0  0  0  0  0  0  0
   -1.7275    1.7656    2.9459 H   0  0  0  0  0  0  0  0  0  0  0  0
   -3.4000    1.7830    2.2910 H   0  0  0  0  0  0  0  0  0  0  0  0
   -3.0290    0.6437    3.5924 H   0  0  0  0  0  0  0  0  0  0  0  0
   -2.7602   -0.7186    1.9035 H   0  0  0  0  0  0  0  0  0  0  0  0
   -3.7998    0.9480    0.5957 H   0  0  0  0  0  0  0  0  0  0  0  0
   -1.4594    2.3204    1.0029 H   0  0  0  0  0  0  0  0  0  0  0  0
   -2.7065    2.7776   -0.1658 H   0  0  0  0  0  0  0  0  0  0  0  0
   -1.0912    2.7965   -1.7221 H   0  0  0  0  0  0  0  0  0  0  0  0
   -2.0056   -0.3257   -3.6573 H   0  0  0  0  0  0  0  0  0  0  0  0
   -1.0068   -1.6950   -3.1940 H   0  0  0  0  0  0  0  0  0  0  0  0
   -2.8277   -1.6039   -2.8044 H   0  0  0  0  0  0  0  0  0  0  0  0
   -3.5358   -0.1252   -1.3381 H   0  0  0  0  0  0  0  0  0  0  0  0
   -4.4650   -2.8889    0.3782 H   0  0  0  0  0  0  0  0  0  0  0  0
   -4.4865   -2.3125   -1.2897 H   0  0  0  0  0  0  0  0  0  0  0  0
   -5.1216   -1.2643    0.0633 H   0  0  0  0  0  0  0  0  0  0  0  0
   -1.7208   -3.3825   -1.6725 H   0  0  0  0  0  0  0  0  0  0  0  0
   -0.8491   -5.6109   -1.3524 H   0  0  0  0  0  0  0  0  0  0  0  0
    1.4213   -5.9802   -0.3168 H   0  0  0  0  0  0  0  0  0  0  0  0
    2.7206   -4.0420    0.3513 H   0  0  0  0  0  0  0  0  0  0  0  0
    3.7648   -2.4865    1.8473 H   0  0  0  0  0  0  0  0  0  0  0  0
    4.5351   -2.3717    0.2322 H   0  0  0  0  0  0  0  0  0  0  0  0
    5.9960   -1.0989    1.9084 H   0  0  0  0  0  0  0  0  0  0  0  0
    3.9823    3.4684    1.1903 H   0  0  0  0  0  0  0  0  0  0  0  0
    3.2909    5.7541    0.9750 H   0  0  0  0  0  0  0  0  0  0  0  0
    1.0902    6.3566    0.0099 H   0  0  0  0  0  0  0  0  0  0  0  0
   -0.4140    4.5350   -0.7434 H   0  0  0  0  0  0  0  0  0  0  0  0
  1  2  1  0
  2  3  1  0
  3  4  1  0
  4  5  1  0
  5  6  1  0
  6  7  1  0
  7  8  1  6
  7  9  1  0
  9 10  1  0
 10 11  1  0
  7 12  1  0
 12 13  1  0
 13 14  2  0
 14 15  1  0
 15 16  2  0
 16 17  1  0
 17 18  2  0
 18 19  1  0
 19 20  2  0
 20 21  1  0
 21 22  1  0
 22 23  1  0
 23 24  2  0
 23 25  1  0
 25 26  2  0
 26 27  1  0
 27 28  2  0
 28 29  1  0
 29 30  2  0
 30 31  1  0
 31 32  2  0
 32 33  1  0
 33 34  1  0
 34 35  2  0
  9  3  1  0
 35 12  1  0
 33  5  1  0
 18 13  1  0
 35 19  1  0
 25 20  1  0
 34 26  1  0
 32 27  1  0
  1 36  1  0
  1 37  1  0
  1 38  1  0
  2 39  1  0
  3 40  1  1
  4 41  1  0
  4 42  1  0
  5 43  1  6
  8 44  1  0
  8 45  1  0
  8 46  1  0
  9 47  1  6
 11 48  1  0
 11 49  1  0
 11 50  1  0
 14 51  1  0
 15 52  1  0
 16 53  1  0
 17 54  1  0
 21 55  1  0
 21 56  1  0
 22 57  1  0
 28 58  1  0
 29 59  1  0
 30 60  1  0
 31 61  1  0
M  END
$$$$
[H]OC(=O)C([H])([H])C([H])(c1c([H])c([H])c(Cl)c([H])c1[H])N(C([H])([H])c1c([H])c([H])c(OC([H])([H])C([H])([H])N2C(=O)C([H])([H])C([H])([H])C2=O)c(OC([H])([H])[H])c1[H])C([H])([H])C1([H])C([H])([H])C1([H])[H]
     RDKit          3D

 67 70  0  0  0  0  0  0  0  0999 V2000
    2.5455   -3.8100    1.3321 C   0  0  0  0  0  0  0  0  0  0  0  0
    2.8469   -2.6791    0.5703 O   0  0  0  0  0  0  0  0  0  0  0  0
    1.9777   -1.6161    0.3513 C   0  0  0  0  0  0  0  0  0  0  0  0
    0.7088   -1.5934    0.8862 C   0  0  0  0  0  0  0  0  0  0  0  0
   -0.1554   -0.5152    0.6565 C   0  0  0  0  0  0  0  0  0  0  0  0
   -1.4604   -0.5641    1.3085 C   0  0  0  0  0  0  0  0  0  0  0  0
   -2.4989    0.3192    0.7701 N   0  0  0  0  0  0  0  0  0  0  0  0
   -3.3729    0.3698    1.9772 C   0  0  0  0  0  0  0  0  0  0  0  0
   -4.5928    1.1181    2.0495 C   0  0  0  0  0  0  0  0  0  0  0  0
   -5.2940    0.9991    3.4565 C   0  0  0  0  0  0  0  0  0  0  0  0
   -5.9468    0.5160    2.2549 C   0  0  0  0  0  0  0  0  0  0  0  0
   -3.2765   -0.1193   -0.3142 C   0  0  0  0  0  0  0  0  0  0  0  0
   -2.7848   -0.6781   -1.5692 C   0  0  0  0  0  0  0  0  0  0  0  0
   -2.0673   -1.9531   -1.6073 C   0  0  0  0  0  0  0  0  0  0  0  0
   -2.4078   -2.9908   -0.7632 O   0  0  0  0  0  0  0  0  0  0  0  0
   -1.1236   -2.0802   -2.4409 O   0  0  0  0  0  0  0  0  0  0  0  0
   -3.9655    1.1671   -0.8358 C   0  0  0  0  0  0  0  0  0  0  0  0
   -3.3244    2.3644   -0.8738 C   0  0  0  0  0  0  0  0  0  0  0  0
   -3.9694    3.4789   -1.4212 C   0  0  0  0  0  0  0  0  0  0  0  0
   -5.2476    3.3873   -1.9249 C   0  0  0  0  0  0  0  0  0  0  0  0
   -6.0588    4.8002   -2.6165 Cl  0  0  0  0  0  0  0  0  0  0  0  0
   -5.8811    2.1704   -1.8785 C   0  0  0  0  0  0  0  0  0  0  0  0
   -5.2340    1.0677   -1.3333 C   0  0  0  0  0  0  0  0  0  0  0  0
    0.3014    0.5004   -0.1082 C   0  0  0  0  0  0  0  0  0  0  0  0
    1.5967    0.4663   -0.6482 C   0  0  0  0  0  0  0  0  0  0  0  0
    2.4536   -0.5904   -0.4273 C   0  0  0  0  0  0  0  0  0  0  0  0
    3.7248   -0.5916   -0.9750 O   0  0  0  0  0  0  0  0  0  0  0  0
    4.2140    0.4641   -1.7767 C   0  0  0  0  0  0  0  0  0  0  0  0
    5.6210    0.2174   -2.2448 C   0  0  0  0  0  0  0  0  0  0  0  0
    6.5408    0.0730   -1.1433 N   0  0  0  0  0  0  0  0  0  0  0  0
    7.2619    1.1314   -0.5274 C   0  0  0  0  0  0  0  0  0  0  0  0
    7.2218    2.3630   -0.7287 O   0  0  0  0  0  0  0  0  0  0  0  0
    8.1644    0.5039    0.4961 C   0  0  0  0  0  0  0  0  0  0  0  0
    7.3972   -0.7552    0.8504 C   0  0  0  0  0  0  0  0  0  0  0  0
    6.8681   -1.1522   -0.5026 C   0  0  0  0  0  0  0  0  0  0  0  0
    6.7573   -2.3254   -0.9314 O   0  0  0  0  0  0  0  0  0  0  0  0
    2.8101   -3.6695    2.4124 H   0  0  0  0  0  0  0  0  0  0  0  0
    3.1952   -4.6528    0.9579 H   0  0  0  0  0  0  0  0  0  0  0  0
    1.4796   -4.1067    1.2946 H   0  0  0  0  0  0  0  0  0  0  0  0
    0.3567   -2.4095    1.4942 H   0  0  0  0  0  0  0  0  0  0  0  0
   -1.2362   -0.0961    2.3406 H   0  0  0  0  0  0  0  0  0  0  0  0
   -1.8207   -1.5539    1.5887 H   0  0  0  0  0  0  0  0  0  0  0  0
   -2.6749    0.7044    2.8056 H   0  0  0  0  0  0  0  0  0  0  0  0
   -3.5540   -0.7183    2.2451 H   0  0  0  0  0  0  0  0  0  0  0  0
   -4.4962    2.2376    1.8612 H   0  0  0  0  0  0  0  0  0  0  0  0
   -4.8767    0.2490    4.1499 H   0  0  0  0  0  0  0  0  0  0  0  0
   -5.6609    1.8979    3.9354 H   0  0  0  0  0  0  0  0  0  0  0  0
   -5.9811   -0.5802    2.0063 H   0  0  0  0  0  0  0  0  0  0  0  0
   -6.7927    1.0627    1.7681 H   0  0  0  0  0  0  0  0  0  0  0  0
   -4.1644   -0.7503    0.0024 H   0  0  0  0  0  0  0  0  0  0  0  0
   -3.7196   -0.8974   -2.2033 H   0  0  0  0  0  0  0  0  0  0  0  0
   -2.2862    0.0907   -2.2383 H   0  0  0  0  0  0  0  0  0  0  0  0
   -2.6234   -3.8958   -1.2044 H   0  0  0  0  0  0  0  0  0  0  0  0
   -2.3436    2.5010   -0.4987 H   0  0  0  0  0  0  0  0  0  0  0  0
   -3.4719    4.4323   -1.4571 H   0  0  0  0  0  0  0  0  0  0  0  0
   -6.8897    2.0977   -2.2758 H   0  0  0  0  0  0  0  0  0  0  0  0
   -5.7706    0.1321   -1.3180 H   0  0  0  0  0  0  0  0  0  0  0  0
   -0.3326    1.3459   -0.3045 H   0  0  0  0  0  0  0  0  0  0  0  0
    1.9419    1.2943   -1.2601 H   0  0  0  0  0  0  0  0  0  0  0  0
    3.5876    0.5980   -2.6885 H   0  0  0  0  0  0  0  0  0  0  0  0
    4.2025    1.4369   -1.2421 H   0  0  0  0  0  0  0  0  0  0  0  0
    5.6978   -0.7043   -2.8678 H   0  0  0  0  0  0  0  0  0  0  0  0
    5.9008    1.0725   -2.8974 H   0  0  0  0  0  0  0  0  0  0  0  0
    8.3077    1.1647    1.3656 H   0  0  0  0  0  0  0  0  0  0  0  0
    9.1394    0.2323    0.0691 H   0  0  0  0  0  0  0  0  0  0  0  0
    8.0122   -1.5319    1.3023 H   0  0  0  0  0  0  0  0  0  0  0  0
    6.5243   -0.4471    1.4900 H   0  0  0  0  0  0  0  0  0  0  0  0
  1  2  1  0
  2  3  1  0
  3  4  2  0
  4  5  1  0
  5  6  1  0
  6  7  1  0
  7  8  1  0
  8  9  1  0
  9 10  1  0
 10 11  1  0
  7 12  1  0
 12 13  1  0
 13 14  1  0
 14 15  1  0
 14 16  2  0
 12 17  1  0
 17 18  2  0
 18 19  1  0
 19 20  2  0
 20 21  1  0
 20 22  1  0
 22 23  2  0
  5 24  2  0
 24 25  1  0
 25 26  2  0
 26 27  1  0
 27 28  1  0
 28 29  1  0
 29 30  1  0
 30 31  1  0
 31 32  2  0
 31 33  1  0
 33 34  1  0
 34 35  1  0
 35 36  2  0
 26  3  1  0
 35 30  1  0
 11  9  1  0
 23 17  1  0
  1 37  1  0
  1 38  1  0
  1 39  1  0
  4 40  1  0
  6 41  1  0
  6 42  1  0
  8 43  1  0
  8 44  1  0
  9 45  1  0
 10 46  1  0
 10 47  1  0
 11 48  1  0
 11 49  1  0
 12 50  1  0
 13 51  1  0
 13 52  1  0
 15 53  1  0
 18 54  1  0
 19 55  1  0
 22 56  1  0
 23 57  1  0
 24 58  1  0
 25 59  1  0
 28 60  1  0
 28 61  1  0
 29 62  1  0
 29 63  1  0
 33 64  1  0
 33 65  1  0
 34 66  1  0
 34 67  1  0
M  END
$$$$
[H]c1nc([H])n(C([H])(C(=O)N2C([H])([H])C([H])([H])C([H])([H])[C@@]2([H])C(=O)N2C([H])([H])C([H])([H])C([H])([H])[C@@]2([H])C#N)C([H])([H])c2c([H])c([H])c([H])c([H])c2[H])c1[H]
     RDKit          3D

 54 57  0  0  0  0  0  0  0  0999 V2000
    0.2482    1.5014    0.5613 O   0  0  0  0  0  0  0  0  0  0  0  0
   -0.3516    0.4433    0.2641 C   0  0  0  0  0  0  0  0  0  0  0  0
   -1.8186    0.4437    0.0653 C   0  0  0  0  0  0  0  0  0  0  0  0
   -2.5830   -0.3510    1.0792 C   0  0  0  0  0  0  0  0  0  0  0  0
   -4.0455   -0.3394    0.8488 C   0  0  0  0  0  0  0  0  0  0  0  0
   -4.6147   -1.2787   -0.0182 C   0  0  0  0  0  0  0  0  0  0  0  0
   -5.9631   -1.3198   -0.2566 C   0  0  0  0  0  0  0  0  0  0  0  0
   -6.8008   -0.4181    0.3662 C   0  0  0  0  0  0  0  0  0  0  0  0
   -6.2757    0.5158    1.2224 C   0  0  0  0  0  0  0  0  0  0  0  0
   -4.8953    0.5433    1.4544 C   0  0  0  0  0  0  0  0  0  0  0  0
   -2.3405    1.7913    0.0382 N   0  0  0  0  0  0  0  0  0  0  0  0
   -3.1741    2.3474   -0.8691 C   0  0  0  0  0  0  0  0  0  0  0  0
   -3.4040    3.6506   -0.5102 C   0  0  0  0  0  0  0  0  0  0  0  0
   -2.7125    3.8917    0.6149 N   0  0  0  0  0  0  0  0  0  0  0  0
   -2.0684    2.7447    0.9362 C   0  0  0  0  0  0  0  0  0  0  0  0
    0.4607   -0.7541    0.1293 N   0  0  0  0  0  0  0  0  0  0  0  0
   -0.0543   -2.0584   -0.1865 C   0  0  0  0  0  0  0  0  0  0  0  0
    1.1171   -2.7226   -0.8868 C   0  0  0  0  0  0  0  0  0  0  0  0
    2.2699   -2.2504    0.0367 C   0  0  0  0  0  0  0  0  0  0  0  0
    1.8824   -0.8228    0.2881 C   0  0  1  0  0  0  0  0  0  0  0  0
    2.6199    0.1047   -0.5938 C   0  0  0  0  0  0  0  0  0  0  0  0
    2.0223    0.7182   -1.4901 O   0  0  0  0  0  0  0  0  0  0  0  0
    4.0052    0.2899   -0.4127 N   0  0  0  0  0  0  0  0  0  0  0  0
    4.8641    1.1733   -1.2207 C   0  0  0  0  0  0  0  0  0  0  0  0
    6.2203    0.4977   -1.2470 C   0  0  0  0  0  0  0  0  0  0  0  0
    6.0747   -0.7047   -0.3430 C   0  0  0  0  0  0  0  0  0  0  0  0
    4.9273   -0.2818    0.5487 C   0  0  1  0  0  0  0  0  0  0  0  0
    5.3364    0.8031    1.4435 C   0  0  0  0  0  0  0  0  0  0  0  0
    5.6592    1.6777    2.1437 N   0  0  0  0  0  0  0  0  0  0  0  0
   -2.0322   -0.0543   -0.9285 H   0  0  0  0  0  0  0  0  0  0  0  0
   -2.4200    0.0675    2.1206 H   0  0  0  0  0  0  0  0  0  0  0  0
   -2.2412   -1.4042    1.1764 H   0  0  0  0  0  0  0  0  0  0  0  0
   -3.9523   -1.9664   -0.4896 H   0  0  0  0  0  0  0  0  0  0  0  0
   -6.4249   -2.0427   -0.9274 H   0  0  0  0  0  0  0  0  0  0  0  0
   -7.8873   -0.4402    0.1831 H   0  0  0  0  0  0  0  0  0  0  0  0
   -6.9161    1.2121    1.7043 H   0  0  0  0  0  0  0  0  0  0  0  0
   -4.5068    1.2767    2.1348 H   0  0  0  0  0  0  0  0  0  0  0  0
   -3.5826    1.8372   -1.7284 H   0  0  0  0  0  0  0  0  0  0  0  0
   -4.0350    4.3854   -1.0308 H   0  0  0  0  0  0  0  0  0  0  0  0
   -1.4354    2.6910    1.8303 H   0  0  0  0  0  0  0  0  0  0  0  0
   -0.9664   -2.0403   -0.8044 H   0  0  0  0  0  0  0  0  0  0  0  0
   -0.2231   -2.5663    0.8043 H   0  0  0  0  0  0  0  0  0  0  0  0
    1.0521   -3.8110   -0.9108 H   0  0  0  0  0  0  0  0  0  0  0  0
    1.2036   -2.2407   -1.8821 H   0  0  0  0  0  0  0  0  0  0  0  0
    3.2356   -2.3795   -0.4860 H   0  0  0  0  0  0  0  0  0  0  0  0
    2.2010   -2.8488    0.9567 H   0  0  0  0  0  0  0  0  0  0  0  0
    2.0844   -0.6294    1.3655 H   0  0  0  0  0  0  0  0  0  0  0  0
    4.5022    1.2229   -2.2650 H   0  0  0  0  0  0  0  0  0  0  0  0
    4.9243    2.1637   -0.7272 H   0  0  0  0  0  0  0  0  0  0  0  0
    6.5266    0.1970   -2.2691 H   0  0  0  0  0  0  0  0  0  0  0  0
    7.0018    1.1584   -0.7777 H   0  0  0  0  0  0  0  0  0  0  0  0
    6.9534   -0.8772    0.2942 H   0  0  0  0  0  0  0  0  0  0  0  0
    5.7653   -1.5852   -0.9267 H   0  0  0  0  0  0  0  0  0  0  0  0
    4.5675   -1.1619    1.0724 H   0  0  0  0  0  0  0  0  0  0  0  0
  1  2  2  0
  2  3  1  0
  3  4  1  0
  4  5  1  0
  5  6  2  0
  6  7  1  0
  7  8  2  0
  8  9  1  0
  9 10  2  0
  3 11  1  0
 11 12  1  0
 12 13  2  0
 13 14  1  0
 14 15  2  0
  2 16  1  0
 16 17  1  0
 17 18  1  0
 18 19  1  0
 19 20  1  0
 20 21  1  0
 21 22  2  0
 21 23  1  0
 23 24  1  0
 24 25  1  0
 25 26  1  0
 26 27  1  0
 27 28  1  0
 28 29  3  0
 10  5  1  0
 15 11  1  0
 20 16  1  0
 27 23  1  0
  3 30  1  0
  4 31  1  0
  4 32  1  0
  6 33  1  0
  7 34  1  0
  8 35  1  0
  9 36  1  0
 10 37  1  0
 12 38  1  0
 13 39  1  0
 15 40  1  0
 17 41  1  0
 17 42  1  0
 18 43  1  0
 18 44  1  0
 19 45  1  0
 19 46  1  0
 20 47  1  1
 24 48  1  0
 24 49  1  0
 25 50  1  0
 25 51  1  0
 26 52  1  0
 26 53  1  0
 27 54  1  1
M  END
$$$$
[H]OC(=O)[C@@]1([H])N(C(=O)/C([H])=C(\[H])c2c([H])c([H])c(-c3c([H])c([H])c([H])c([H])c3[H])c([H])c2[H])C([H])([H])C([H])([H])C1([H])[H]
     RDKit          3D

 43 45  0  0  0  0  0  0  0  0999 V2000
    6.7778    1.8027   -2.4081 O   0  0  0  0  0  0  0  0  0  0  0  0
    5.4995    1.3960   -2.0859 C   0  0  0  0  0  0  0  0  0  0  0  0
    4.5948    1.5332   -2.9325 O   0  0  0  0  0  0  0  0  0  0  0  0
    5.2446    0.8216   -0.7739 C   0  0  2  0  0  0  0  0  0  0  0  0
    5.9213   -0.5298   -0.5634 C   0  0  0  0  0  0  0  0  0  0  0  0
    5.0054   -1.4589   -1.3477 C   0  0  0  0  0  0  0  0  0  0  0  0
    3.6574   -0.8576   -1.0927 C   0  0  0  0  0  0  0  0  0  0  0  0
    3.8279    0.4457   -0.6004 N   0  0  0  0  0  0  0  0  0  0  0  0
    2.8614    1.3252   -0.0073 C   0  0  0  0  0  0  0  0  0  0  0  0
    3.3159    2.4782    0.4189 O   0  0  0  0  0  0  0  0  0  0  0  0
    1.4573    1.1465    0.1980 C   0  0  0  0  0  0  0  0  0  0  0  0
    0.6817    0.1465   -0.1129 C   0  0  0  0  0  0  0  0  0  0  0  0
   -0.7540    0.1027    0.1640 C   0  0  0  0  0  0  0  0  0  0  0  0
   -1.4093    1.1254    0.7846 C   0  0  0  0  0  0  0  0  0  0  0  0
   -2.7926    0.9830    1.0033 C   0  0  0  0  0  0  0  0  0  0  0  0
   -3.4921   -0.1363    0.6171 C   0  0  0  0  0  0  0  0  0  0  0  0
   -2.8332   -1.1634   -0.0064 C   0  0  0  0  0  0  0  0  0  0  0  0
   -1.4789   -1.0280   -0.2223 C   0  0  0  0  0  0  0  0  0  0  0  0
   -4.9331   -0.2569    0.8583 C   0  0  0  0  0  0  0  0  0  0  0  0
   -5.5208   -1.5042    1.0860 C   0  0  0  0  0  0  0  0  0  0  0  0
   -6.8704   -1.6382    1.3144 C   0  0  0  0  0  0  0  0  0  0  0  0
   -7.6639   -0.5065    1.3182 C   0  0  0  0  0  0  0  0  0  0  0  0
   -7.1275    0.7479    1.0979 C   0  0  0  0  0  0  0  0  0  0  0  0
   -5.7676    0.8273    0.8737 C   0  0  0  0  0  0  0  0  0  0  0  0
    7.3756    1.1889   -2.9744 H   0  0  0  0  0  0  0  0  0  0  0  0
    5.5039    1.5137    0.0367 H   0  0  0  0  0  0  0  0  0  0  0  0
    6.9420   -0.5046   -0.9439 H   0  0  0  0  0  0  0  0  0  0  0  0
    5.8246   -0.7848    0.5059 H   0  0  0  0  0  0  0  0  0  0  0  0
    5.1027   -2.5099   -1.0430 H   0  0  0  0  0  0  0  0  0  0  0  0
    5.2787   -1.4008   -2.4360 H   0  0  0  0  0  0  0  0  0  0  0  0
    2.9963   -0.9300   -1.9927 H   0  0  0  0  0  0  0  0  0  0  0  0
    3.2126   -1.4687   -0.2467 H   0  0  0  0  0  0  0  0  0  0  0  0
    0.9474    2.0140    0.7115 H   0  0  0  0  0  0  0  0  0  0  0  0
    1.1220   -0.6891   -0.6096 H   0  0  0  0  0  0  0  0  0  0  0  0
   -0.9192    2.0328    1.1137 H   0  0  0  0  0  0  0  0  0  0  0  0
   -3.2832    1.8123    1.4981 H   0  0  0  0  0  0  0  0  0  0  0  0
   -3.3616   -2.0694   -0.3268 H   0  0  0  0  0  0  0  0  0  0  0  0
   -0.9354   -1.8306   -0.7153 H   0  0  0  0  0  0  0  0  0  0  0  0
   -4.8656   -2.3512    1.0735 H   0  0  0  0  0  0  0  0  0  0  0  0
   -7.3161   -2.6200    1.4909 H   0  0  0  0  0  0  0  0  0  0  0  0
   -8.7190   -0.6391    1.4998 H   0  0  0  0  0  0  0  0  0  0  0  0
   -7.7589    1.6355    1.1024 H   0  0  0  0  0  0  0  0  0  0  0  0
   -5.3486    1.7990    0.7027 H   0  0  0  0  0  0  0  0  0  0  0  0
  1  2  1  0
  2  3  2  0
  2  4  1  0
  4  5  1  0
  5  6  1  0
  6  7  1  0
  7  8  1  0
  8  9  1  0
  9 10  2  0
  9 11  1  0
 11 12  2  0
 12 13  1  0
 13 14  2  0
 14 15  1  0
 15 16  2  0
 16 17  1  0
 17 18  2  0
 16 19  1  0
 19 20  2  0
 20 21  1  0
 21 22  2  0
 22 23  1  0
 23 24  2  0
  8  4  1  0
 18 13  1  0
 24 19  1  0
  1 25  1  0
  4 26  1  1
  5 27  1  0
  5 28  1  0
  6 29  1  0
  6 30  1  0
  7 31  1  0
  7 32  1  0
 11 33  1  0
 12 34  1  0
 14 35  1  0
 15 36  1  0
 17 37  1  0
 18 38  1  0
 20 39  1  0
 21 40  1  0
 22 41  1  0
 23 42  1  0
 24 43  1  0
M  END
$$$$
[H]c1nc(N([H])c2c([H])c([H])c(S(=O)(=O)C([H])([H])[H])c([H])c2[H])nc(O[C@]([H])(C([H])([H])[H])C(C([H])([H])[H])(C([H])([H])[H])C([H])([H])[H])c1C(F)(F)F
     RDKit          3D

 50 51  0  0  0  0  0  0  0  0999 V2000
   -3.7361    0.6020    2.5647 C   0  0  0  0  0  0  0  0  0  0  0  0
   -3.3389    0.5789    1.1160 C   0  0  1  0  0  0  0  0  0  0  0  0
   -2.9690   -0.7502    0.7986 O   0  0  0  0  0  0  0  0  0  0  0  0
   -1.6660   -1.0638    0.4316 C   0  0  0  0  0  0  0  0  0  0  0  0
   -0.7674   -0.0862    0.3838 N   0  0  0  0  0  0  0  0  0  0  0  0
    0.5254   -0.3962    0.0200 C   0  0  0  0  0  0  0  0  0  0  0  0
    1.4031    0.6964   -0.0283 N   0  0  0  0  0  0  0  0  0  0  0  0
    2.7714    0.5662   -0.3639 C   0  0  0  0  0  0  0  0  0  0  0  0
    3.4206    1.6969   -0.8995 C   0  0  0  0  0  0  0  0  0  0  0  0
    4.7473    1.6638   -1.2245 C   0  0  0  0  0  0  0  0  0  0  0  0
    5.5355    0.5449   -1.0568 C   0  0  0  0  0  0  0  0  0  0  0  0
    4.9017   -0.5540   -0.5350 C   0  0  0  0  0  0  0  0  0  0  0  0
    3.5418   -0.5499   -0.1915 C   0  0  0  0  0  0  0  0  0  0  0  0
    7.2290    0.5518   -1.4884 S   0  0  0  0  0  0  0  0  0  0  0  0
    8.2115    1.0601   -0.1002 C   0  0  0  0  0  0  0  0  0  0  0  0
    7.4026    1.4753   -2.6580 O   0  0  0  0  0  0  0  0  0  0  0  0
    7.5791   -0.8392   -1.9322 O   0  0  0  0  0  0  0  0  0  0  0  0
    0.7854   -1.6678   -0.2610 N   0  0  0  0  0  0  0  0  0  0  0  0
   -0.0927   -2.6795   -0.2241 C   0  0  0  0  0  0  0  0  0  0  0  0
   -1.3866   -2.3719    0.1396 C   0  0  0  0  0  0  0  0  0  0  0  0
   -2.4172   -3.4489    0.2020 C   0  0  0  0  0  0  0  0  0  0  0  0
   -1.8367   -4.6532   -0.1444 F   0  0  0  0  0  0  0  0  0  0  0  0
   -3.4090   -3.1962   -0.7444 F   0  0  0  0  0  0  0  0  0  0  0  0
   -2.9394   -3.5871    1.4652 F   0  0  0  0  0  0  0  0  0  0  0  0
   -4.4281    0.9880    0.1838 C   0  0  0  0  0  0  0  0  0  0  0  0
   -3.8860    0.9168   -1.2302 C   0  0  0  0  0  0  0  0  0  0  0  0
   -4.9228    2.3908    0.4109 C   0  0  0  0  0  0  0  0  0  0  0  0
   -5.5803    0.0314    0.3431 C   0  0  0  0  0  0  0  0  0  0  0  0
   -4.2098   -0.3640    2.8478 H   0  0  0  0  0  0  0  0  0  0  0  0
   -4.3653    1.4383    2.8557 H   0  0  0  0  0  0  0  0  0  0  0  0
   -2.7956    0.6559    3.1632 H   0  0  0  0  0  0  0  0  0  0  0  0
   -2.4341    1.2300    1.0107 H   0  0  0  0  0  0  0  0  0  0  0  0
    1.0431    1.6867    0.1979 H   0  0  0  0  0  0  0  0  0  0  0  0
    2.8079    2.5856   -1.0368 H   0  0  0  0  0  0  0  0  0  0  0  0
    5.2238    2.5522   -1.6369 H   0  0  0  0  0  0  0  0  0  0  0  0
    5.4691   -1.4573   -0.3820 H   0  0  0  0  0  0  0  0  0  0  0  0
    3.1099   -1.4551    0.2367 H   0  0  0  0  0  0  0  0  0  0  0  0
    8.0721    0.3117    0.6992 H   0  0  0  0  0  0  0  0  0  0  0  0
    9.2707    1.0725   -0.3859 H   0  0  0  0  0  0  0  0  0  0  0  0
    7.8318    2.0604    0.2127 H   0  0  0  0  0  0  0  0  0  0  0  0
    0.1835   -3.6926   -0.4646 H   0  0  0  0  0  0  0  0  0  0  0  0
   -4.5307    1.4931   -1.9402 H   0  0  0  0  0  0  0  0  0  0  0  0
   -3.7857   -0.1437   -1.5190 H   0  0  0  0  0  0  0  0  0  0  0  0
   -2.8729    1.3669   -1.3038 H   0  0  0  0  0  0  0  0  0  0  0  0
   -5.2630    2.5869    1.4287 H   0  0  0  0  0  0  0  0  0  0  0  0
   -5.8043    2.5397   -0.2598 H   0  0  0  0  0  0  0  0  0  0  0  0
   -4.1745    3.1521    0.0734 H   0  0  0  0  0  0  0  0  0  0  0  0
   -6.5053    0.4115   -0.1107 H   0  0  0  0  0  0  0  0  0  0  0  0
   -5.2567   -0.9421   -0.1029 H   0  0  0  0  0  0  0  0  0  0  0  0
   -5.6921   -0.1594    1.4400 H   0  0  0  0  0  0  0  0  0  0  0  0
  1  2  1  0
  2  3  1  0
  3  4  1  0
  4  5  2  0
  5  6  1  0
  6  7  1  0
  7  8  1  0
  8  9  2  0
  9 10  1  0
 10 11  2  0
 11 12  1  0
 12 13  2  0
 11 14  1  0
 14 15  1  0
 14 16  2  0
 14 17  2  0
  6 18  2  0
 18 19  1  0
 19 20  2  0
 20 21  1  0
 21 22  1  0
 21 23  1  0
 21 24  1  0
  2 25  1  0
 25 26  1  0
 25 27  1  0
 25 28  1  0
 20  4  1  0
 13  8  1  0
  1 29  1  0
  1 30  1  0
  1 31  1  0
  2 32  1  1
  7 33  1  0
  9 34  1  0
 10 35  1  0
 12 36  1  0
 13 37  1  0
 15 38  1  0
 15 39  1  0
 15 40  1  0
 19 41  1  0
 26 42  1  0
 26 43  1  0
 26 44  1  0
 27 45  1  0
 27 46  1  0
 27 47  1  0
 28 48  1  0
 28 49  1  0
 28 50  1  0
M  END
$$$$
[H]c1nc2c([H])c(C(=O)N([H])C([H])([H])C([H])([H])C([H])([H])N3C(=O)C([H])([H])C([H])([H])C3([H])[H])sc2c(Oc2c([H])c([H])c(N([H])C(=O)N([H])c3c([H])c(C([H])([H])[H])c([H])c([H])c3F)c(F)c2[H])c1[H]
     RDKit          3D

 68 72  0  0  0  0  0  0  0  0999 V2000
    9.9509    3.8228   -2.2813 C   0  0  0  0  0  0  0  0  0  0  0  0
   10.1834    2.8155   -1.2104 C   0  0  0  0  0  0  0  0  0  0  0  0
   11.4171    2.6651   -0.6496 C   0  0  0  0  0  0  0  0  0  0  0  0
   11.5678    1.7114    0.3373 C   0  0  0  0  0  0  0  0  0  0  0  0
   10.5232    0.9287    0.7548 C   0  0  0  0  0  0  0  0  0  0  0  0
   10.7591    0.0202    1.7215 F   0  0  0  0  0  0  0  0  0  0  0  0
    9.2382    1.0581    0.1959 C   0  0  0  0  0  0  0  0  0  0  0  0
    8.2131    0.2391    0.6622 N   0  0  0  0  0  0  0  0  0  0  0  0
    6.8487    0.1835    0.2210 C   0  0  0  0  0  0  0  0  0  0  0  0
    6.4253    0.9120   -0.6841 O   0  0  0  0  0  0  0  0  0  0  0  0
    5.9854   -0.7405    0.8582 N   0  0  0  0  0  0  0  0  0  0  0  0
    4.6339   -0.9391    0.5686 C   0  0  0  0  0  0  0  0  0  0  0  0
    3.9031   -0.3235   -0.4065 C   0  0  0  0  0  0  0  0  0  0  0  0
    2.5768   -0.5632   -0.6438 C   0  0  0  0  0  0  0  0  0  0  0  0
    1.8600   -1.4933    0.1297 C   0  0  0  0  0  0  0  0  0  0  0  0
    0.5636   -1.6788   -0.1538 O   0  0  0  0  0  0  0  0  0  0  0  0
   -0.3097   -2.6617   -0.1190 C   0  0  0  0  0  0  0  0  0  0  0  0
   -0.0457   -3.9630    0.2505 C   0  0  0  0  0  0  0  0  0  0  0  0
   -1.1241   -4.8211    0.2128 C   0  0  0  0  0  0  0  0  0  0  0  0
   -2.3503   -4.4818   -0.1444 N   0  0  0  0  0  0  0  0  0  0  0  0
   -2.6581   -3.1949   -0.5219 C   0  0  0  0  0  0  0  0  0  0  0  0
   -3.8620   -2.7389   -0.9072 C   0  0  0  0  0  0  0  0  0  0  0  0
   -3.9559   -1.4170   -1.2489 C   0  0  0  0  0  0  0  0  0  0  0  0
   -2.3589   -0.8577   -1.0200 S   0  0  0  0  0  0  0  0  0  0  0  0
   -1.6356   -2.3154   -0.5017 C   0  0  0  0  0  0  0  0  0  0  0  0
   -5.1503   -0.6728   -1.7168 C   0  0  0  0  0  0  0  0  0  0  0  0
   -5.0238    0.5405   -2.0126 O   0  0  0  0  0  0  0  0  0  0  0  0
   -6.3845   -1.3000   -1.8275 N   0  0  0  0  0  0  0  0  0  0  0  0
   -7.5786   -0.6535   -2.2663 C   0  0  0  0  0  0  0  0  0  0  0  0
   -7.9262    0.4619   -1.3145 C   0  0  0  0  0  0  0  0  0  0  0  0
   -8.1181   -0.1997    0.0609 C   0  0  0  0  0  0  0  0  0  0  0  0
   -8.4478    0.8738    0.9717 N   0  0  0  0  0  0  0  0  0  0  0  0
   -7.4178    1.6286    1.7031 C   0  0  0  0  0  0  0  0  0  0  0  0
   -8.0817    2.9755    1.9559 C   0  0  0  0  0  0  0  0  0  0  0  0
   -9.5242    2.6026    2.1354 C   0  0  0  0  0  0  0  0  0  0  0  0
   -9.7136    1.3961    1.3247 C   0  0  0  0  0  0  0  0  0  0  0  0
  -10.8072    0.8474    0.9580 O   0  0  0  0  0  0  0  0  0  0  0  0
    2.5922   -2.1124    1.1102 C   0  0  0  0  0  0  0  0  0  0  0  0
    3.9187   -1.8712    1.3457 C   0  0  0  0  0  0  0  0  0  0  0  0
    4.5753   -2.5175    2.3238 F   0  0  0  0  0  0  0  0  0  0  0  0
    9.1322    2.0136   -0.7760 C   0  0  0  0  0  0  0  0  0  0  0  0
   10.8552    3.9457   -2.9268 H   0  0  0  0  0  0  0  0  0  0  0  0
    9.7351    4.8242   -1.8401 H   0  0  0  0  0  0  0  0  0  0  0  0
    9.1154    3.4693   -2.9209 H   0  0  0  0  0  0  0  0  0  0  0  0
   12.2473    3.2700   -0.9661 H   0  0  0  0  0  0  0  0  0  0  0  0
   12.5592    1.6217    0.7581 H   0  0  0  0  0  0  0  0  0  0  0  0
    8.4691   -0.4343    1.4469 H   0  0  0  0  0  0  0  0  0  0  0  0
    6.4174   -1.3516    1.6445 H   0  0  0  0  0  0  0  0  0  0  0  0
    4.3853    0.4111   -1.0571 H   0  0  0  0  0  0  0  0  0  0  0  0
    2.0448   -0.0421   -1.4353 H   0  0  0  0  0  0  0  0  0  0  0  0
    0.9022   -4.3551    0.5437 H   0  0  0  0  0  0  0  0  0  0  0  0
   -0.9427   -5.8727    0.5045 H   0  0  0  0  0  0  0  0  0  0  0  0
   -4.7865   -3.3598   -0.9661 H   0  0  0  0  0  0  0  0  0  0  0  0
   -6.4558   -2.3295   -1.5701 H   0  0  0  0  0  0  0  0  0  0  0  0
   -8.4613   -1.3396   -2.2631 H   0  0  0  0  0  0  0  0  0  0  0  0
   -7.5184   -0.2956   -3.3217 H   0  0  0  0  0  0  0  0  0  0  0  0
   -8.8831    0.9507   -1.6233 H   0  0  0  0  0  0  0  0  0  0  0  0
   -7.1405    1.2201   -1.2285 H   0  0  0  0  0  0  0  0  0  0  0  0
   -8.9270   -0.9554    0.0003 H   0  0  0  0  0  0  0  0  0  0  0  0
   -7.1675   -0.6402    0.3633 H   0  0  0  0  0  0  0  0  0  0  0  0
   -6.5544    1.8223    1.0561 H   0  0  0  0  0  0  0  0  0  0  0  0
   -7.1263    1.1021    2.6141 H   0  0  0  0  0  0  0  0  0  0  0  0
   -7.6109    3.3657    2.8931 H   0  0  0  0  0  0  0  0  0  0  0  0
   -7.9127    3.6554    1.0863 H   0  0  0  0  0  0  0  0  0  0  0  0
   -9.6813    2.3477    3.2115 H   0  0  0  0  0  0  0  0  0  0  0  0
  -10.2124    3.4311    1.8466 H   0  0  0  0  0  0  0  0  0  0  0  0
    2.0621   -2.8353    1.7522 H   0  0  0  0  0  0  0  0  0  0  0  0
    8.1937    2.1951   -1.2655 H   0  0  0  0  0  0  0  0  0  0  0  0
  1  2  1  0
  2  3  2  0
  3  4  1  0
  4  5  2  0
  5  6  1  0
  5  7  1  0
  7  8  1  0
  8  9  1  0
  9 10  2  0
  9 11  1  0
 11 12  1  0
 12 13  2  0
 13 14  1  0
 14 15  2  0
 15 16  1  0
 16 17  1  0
 17 18  2  0
 18 19  1  0
 19 20  2  0
 20 21  1  0
 21 22  1  0
 22 23  2  0
 23 24  1  0
 24 25  1  0
 23 26  1  0
 26 27  2  0
 26 28  1  0
 28 29  1  0
 29 30  1  0
 30 31  1  0
 31 32  1  0
 32 33  1  0
 33 34  1  0
 34 35  1  0
 35 36  1  0
 36 37  2  0
 15 38  1  0
 38 39  2  0
 39 40  1  0
  7 41  2  0
 41  2  1  0
 39 12  1  0
 25 17  1  0
 36 32  1  0
 25 21  2  0
  1 42  1  0
  1 43  1  0
  1 44  1  0
  3 45  1  0
  4 46  1  0
  8 47  1  0
 11 48  1  0
 13 49  1  0
 14 50  1  0
 18 51  1  0
 19 52  1  0
 22 53  1  0
 28 54  1  0
 29 55  1  0
 29 56  1  0
 30 57  1  0
 30 58  1  0
 31 59  1  0
 31 60  1  0
 33 61  1  0
 33 62  1  0
 34 63  1  0
 34 64  1  0
 35 65  1  0
 35 66  1  0
 38 67  1  0
 41 68  1  0
M  END
$$$$
[H]c1c([H])c([H])c2c(c1[H])c(C([H])([H])[C@@]([H])(C(=O)N1C([H])([H])C([H])([H])C([H])([H])[C@@]1([H])C(=O)N([H])[C@]([H])(C(=O)N([H])[H])C([H])([H])C([H])(C([H])([H])[H])C([H])([H])[H])N([H])C(=O)C([H])([H])[H])c([H])n2[H]
     RDKit          3D

 66 68  0  0  0  0  0  0  0  0999 V2000
    7.1671    0.2159    1.1378 C   0  0  0  0  0  0  0  0  0  0  0  0
    5.8745    0.6597    0.4203 C   0  0  0  0  0  0  0  0  0  0  0  0
    5.7864   -0.1734   -0.8334 C   0  0  0  0  0  0  0  0  0  0  0  0
    4.7737    0.4232    1.3781 C   0  0  0  0  0  0  0  0  0  0  0  0
    3.3920    0.7743    0.9777 C   0  0  2  0  0  0  0  0  0  0  0  0
    2.8493    0.1151   -0.1662 N   0  0  0  0  0  0  0  0  0  0  0  0
    1.7914   -0.8831   -0.0595 C   0  0  0  0  0  0  0  0  0  0  0  0
    1.4251   -1.0858    1.1189 O   0  0  0  0  0  0  0  0  0  0  0  0
    1.3259   -1.4769   -1.2534 C   0  0  2  0  0  0  0  0  0  0  0  0
    1.7529   -0.8844   -2.5832 C   0  0  0  0  0  0  0  0  0  0  0  0
    1.2426   -2.0180   -3.5055 C   0  0  0  0  0  0  0  0  0  0  0  0
    0.4314   -2.9529   -2.6056 C   0  0  0  0  0  0  0  0  0  0  0  0
    0.0220   -1.8881   -1.5684 N   0  0  0  0  0  0  0  0  0  0  0  0
   -1.3283   -1.6622   -1.4094 C   0  0  0  0  0  0  0  0  0  0  0  0
   -2.0688   -2.6269   -1.9825 O   0  0  0  0  0  0  0  0  0  0  0  0
   -2.1875   -0.6711   -0.8053 C   0  0  2  0  0  0  0  0  0  0  0  0
   -1.9513   -0.2174    0.5897 C   0  0  0  0  0  0  0  0  0  0  0  0
   -2.9323    0.7696    1.0978 C   0  0  0  0  0  0  0  0  0  0  0  0
   -2.8076    2.1487    1.0236 C   0  0  0  0  0  0  0  0  0  0  0  0
   -3.9231    2.6905    1.5599 N   0  0  0  0  0  0  0  0  0  0  0  0
   -4.7490    1.7242    1.9714 C   0  0  0  0  0  0  0  0  0  0  0  0
   -5.9699    1.7718    2.5823 C   0  0  0  0  0  0  0  0  0  0  0  0
   -6.6622    0.6439    2.9513 C   0  0  0  0  0  0  0  0  0  0  0  0
   -6.0712   -0.5625    2.6791 C   0  0  0  0  0  0  0  0  0  0  0  0
   -4.8527   -0.6295    2.0689 C   0  0  0  0  0  0  0  0  0  0  0  0
   -4.1339    0.5063    1.6852 C   0  0  0  0  0  0  0  0  0  0  0  0
   -3.6006   -0.9380   -0.9916 N   0  0  0  0  0  0  0  0  0  0  0  0
   -4.4697   -0.0872   -1.7177 C   0  0  0  0  0  0  0  0  0  0  0  0
   -5.8944   -0.3239   -1.9242 C   0  0  0  0  0  0  0  0  0  0  0  0
   -3.9583    0.9512   -2.2187 O   0  0  0  0  0  0  0  0  0  0  0  0
    3.2428    2.2373    0.9393 C   0  0  0  0  0  0  0  0  0  0  0  0
    3.7295    3.0306    2.0008 N   0  0  0  0  0  0  0  0  0  0  0  0
    2.6871    2.8088   -0.0246 O   0  0  0  0  0  0  0  0  0  0  0  0
    8.0151    0.8607    0.8215 H   0  0  0  0  0  0  0  0  0  0  0  0
    7.0089    0.2487    2.2336 H   0  0  0  0  0  0  0  0  0  0  0  0
    7.3659   -0.8403    0.8628 H   0  0  0  0  0  0  0  0  0  0  0  0
    5.9808    1.7140    0.0926 H   0  0  0  0  0  0  0  0  0  0  0  0
    5.5217    0.4526   -1.7140 H   0  0  0  0  0  0  0  0  0  0  0  0
    5.1091   -1.0304   -0.6741 H   0  0  0  0  0  0  0  0  0  0  0  0
    6.7958   -0.6416   -0.9996 H   0  0  0  0  0  0  0  0  0  0  0  0
    5.0016    1.0566    2.2909 H   0  0  0  0  0  0  0  0  0  0  0  0
    4.8816   -0.6172    1.7603 H   0  0  0  0  0  0  0  0  0  0  0  0
    2.7395    0.4408    1.8548 H   0  0  0  0  0  0  0  0  0  0  0  0
    3.2380    0.3961   -1.0915 H   0  0  0  0  0  0  0  0  0  0  0  0
    1.9277   -2.5194   -1.2514 H   0  0  0  0  0  0  0  0  0  0  0  0
    2.8371   -0.8110   -2.6320 H   0  0  0  0  0  0  0  0  0  0  0  0
    1.2236    0.0527   -2.7767 H   0  0  0  0  0  0  0  0  0  0  0  0
    2.1274   -2.5821   -3.8094 H   0  0  0  0  0  0  0  0  0  0  0  0
    0.6224   -1.6301   -4.3124 H   0  0  0  0  0  0  0  0  0  0  0  0
   -0.4325   -3.3804   -3.0725 H   0  0  0  0  0  0  0  0  0  0  0  0
    1.0327   -3.6432   -2.0224 H   0  0  0  0  0  0  0  0  0  0  0  0
   -1.9914    0.2920   -1.4440 H   0  0  0  0  0  0  0  0  0  0  0  0
   -1.9078   -1.0443    1.3248 H   0  0  0  0  0  0  0  0  0  0  0  0
   -0.9236    0.2922    0.6506 H   0  0  0  0  0  0  0  0  0  0  0  0
   -1.9721    2.7129    0.6121 H   0  0  0  0  0  0  0  0  0  0  0  0
   -4.1188    3.7260    1.6442 H   0  0  0  0  0  0  0  0  0  0  0  0
   -6.4280    2.7292    2.7927 H   0  0  0  0  0  0  0  0  0  0  0  0
   -7.6285    0.7138    3.4343 H   0  0  0  0  0  0  0  0  0  0  0  0
   -6.6191   -1.4593    2.9717 H   0  0  0  0  0  0  0  0  0  0  0  0
   -4.3869   -1.5886    1.8582 H   0  0  0  0  0  0  0  0  0  0  0  0
   -3.9928   -1.8094   -0.5893 H   0  0  0  0  0  0  0  0  0  0  0  0
   -6.5571    0.0957   -1.1475 H   0  0  0  0  0  0  0  0  0  0  0  0
   -6.0755   -1.4120   -2.0954 H   0  0  0  0  0  0  0  0  0  0  0  0
   -6.2164    0.1618   -2.8913 H   0  0  0  0  0  0  0  0  0  0  0  0
    3.1769    3.3042    2.8388 H   0  0  0  0  0  0  0  0  0  0  0  0
    4.7117    3.3694    1.9470 H   0  0  0  0  0  0  0  0  0  0  0  0
  1  2  1  0
  2  3  1  0
  2  4  1  0
  4  5  1  0
  5  6  1  0
  6  7  1  0
  7  8  2  0
  7  9  1  0
  9 10  1  0
 10 11  1  0
 11 12  1  0
 12 13  1  0
 13 14  1  0
 14 15  2  0
 14 16  1  0
 16 17  1  0
 17 18  1  0
 18 19  2  0
 19 20  1  0
 20 21  1  0
 21 22  2  0
 22 23  1  0
 23 24  2  0
 24 25  1  0
 25 26  2  0
 16 27  1  0
 27 28  1  0
 28 29  1  0
 28 30  2  0
  5 31  1  0
 31 32  1  0
 31 33  2  0
 13  9  1  0
 26 18  1  0
 26 21  1  0
  1 34  1  0
  1 35  1  0
  1 36  1  0
  2 37  1  0
  3 38  1  0
  3 39  1  0
  3 40  1  0
  4 41  1  0
  4 42  1  0
  5 43  1  1
  6 44  1  0
  9 45  1  6
 10 46  1  0
 10 47  1  0
 11 48  1  0
 11 49  1  0
 12 50  1  0
 12 51  1  0
 16 52  1  6
 17 53  1  0
 17 54  1  0
 19 55  1  0
 20 56  1  0
 22 57  1  0
 23 58  1  0
 24 59  1  0
 25 60  1  0
 27 61  1  0
 29 62  1  0
 29 63  1  0
 29 64  1  0
 32 65  1  0
 32 66  1  0
M  END
$$$$
[H]C1=C([H])C([H])(F)C([H])([H])C([H])=C1N([H])C(=O)C1(C(=O)N([H])c2c([H])c([H])c(Oc3c([H])c([H])nc4c([H])c(OC([H])([H])C([H])([H])C([H])([H])N5C([H])([H])C([H])([H])C([H])([H])C([H])([H])C5([H])[H])c(OC([H])([H])[H])c([H])c34)c(F)c2[H])C([H])([H])C1([H])[H]
     RDKit          3D

 84 89  0  0  0  0  0  0  0  0999 V2000
    3.8941   -3.7132    0.1913 C   0  0  0  0  0  0  0  0  0  0  0  0
    4.6565   -2.6079   -0.2681 O   0  0  0  0  0  0  0  0  0  0  0  0
    4.0305   -1.4283   -0.6539 C   0  0  0  0  0  0  0  0  0  0  0  0
    2.6597   -1.2972   -0.6016 C   0  0  0  0  0  0  0  0  0  0  0  0
    2.0436   -0.1222   -0.9870 C   0  0  0  0  0  0  0  0  0  0  0  0
    0.6510    0.0367   -0.9451 C   0  0  0  0  0  0  0  0  0  0  0  0
   -0.0755   -1.0256   -0.4996 O   0  0  0  0  0  0  0  0  0  0  0  0
   -1.4492   -1.0402   -0.3255 C   0  0  0  0  0  0  0  0  0  0  0  0
   -2.2606   -1.8743   -1.0649 C   0  0  0  0  0  0  0  0  0  0  0  0
   -3.6423   -1.8715   -0.8692 C   0  0  0  0  0  0  0  0  0  0  0  0
   -4.2526   -1.0654    0.0403 C   0  0  0  0  0  0  0  0  0  0  0  0
   -5.6503   -1.0411    0.3103 N   0  0  0  0  0  0  0  0  0  0  0  0
   -6.4608   -2.1680    0.2347 C   0  0  0  0  0  0  0  0  0  0  0  0
   -5.8498   -3.2675   -0.0680 O   0  0  0  0  0  0  0  0  0  0  0  0
   -7.9176   -2.3168    0.4538 C   0  0  0  0  0  0  0  0  0  0  0  0
   -8.5358   -3.5604   -0.1118 C   0  0  0  0  0  0  0  0  0  0  0  0
   -8.2258   -3.5095    1.3287 C   0  0  0  0  0  0  0  0  0  0  0  0
   -8.8577   -1.1862    0.5085 C   0  0  0  0  0  0  0  0  0  0  0  0
  -10.0295   -1.5183    0.9875 O   0  0  0  0  0  0  0  0  0  0  0  0
   -8.6712    0.1344    0.1256 N   0  0  0  0  0  0  0  0  0  0  0  0
   -9.7018    1.1257    0.2594 C   0  0  0  0  0  0  0  0  0  0  0  0
  -10.1675    1.7824   -0.7844 C   0  0  0  0  0  0  0  0  0  0  0  0
  -11.2276    2.8066   -0.6621 C   0  0  0  0  0  0  0  0  0  0  0  0
  -11.7828    3.0373    0.6810 C   0  0  0  0  0  0  0  0  0  0  0  0
  -13.1708    2.8095    0.6256 F   0  0  0  0  0  0  0  0  0  0  0  0
  -11.1912    2.2557    1.7682 C   0  0  0  0  0  0  0  0  0  0  0  0
  -10.2373    1.3788    1.5761 C   0  0  0  0  0  0  0  0  0  0  0  0
   -3.4356   -0.2282    0.7824 C   0  0  0  0  0  0  0  0  0  0  0  0
   -2.0698   -0.2231    0.5976 C   0  0  0  0  0  0  0  0  0  0  0  0
   -1.3225    0.6137    1.3883 F   0  0  0  0  0  0  0  0  0  0  0  0
    0.0582    1.2154   -1.3358 C   0  0  0  0  0  0  0  0  0  0  0  0
    0.8455    2.2647   -1.7771 C   0  0  0  0  0  0  0  0  0  0  0  0
    2.1789    2.1086   -1.8152 N   0  0  0  0  0  0  0  0  0  0  0  0
    2.7728    0.9564   -1.4354 C   0  0  0  0  0  0  0  0  0  0  0  0
    4.1549    0.8104   -1.4827 C   0  0  0  0  0  0  0  0  0  0  0  0
    4.7873   -0.3669   -1.0977 C   0  0  0  0  0  0  0  0  0  0  0  0
    6.1653   -0.5173   -1.1421 O   0  0  0  0  0  0  0  0  0  0  0  0
    6.9247    0.5946   -1.5969 C   0  0  0  0  0  0  0  0  0  0  0  0
    8.3981    0.2160   -1.5674 C   0  0  0  0  0  0  0  0  0  0  0  0
    8.7652   -0.1374   -0.1628 C   0  0  0  0  0  0  0  0  0  0  0  0
    8.5410    0.9713    0.7124 N   0  0  0  0  0  0  0  0  0  0  0  0
    8.8626    0.5943    2.0908 C   0  0  0  0  0  0  0  0  0  0  0  0
   10.1341    1.2231    2.5590 C   0  0  0  0  0  0  0  0  0  0  0  0
   11.2236    1.2674    1.5088 C   0  0  0  0  0  0  0  0  0  0  0  0
   10.7617    1.8537    0.2168 C   0  0  0  0  0  0  0  0  0  0  0  0
    9.2894    2.1446    0.3223 C   0  0  0  0  0  0  0  0  0  0  0  0
    4.5297   -4.6049    0.2046 H   0  0  0  0  0  0  0  0  0  0  0  0
    3.0368   -3.9207   -0.4537 H   0  0  0  0  0  0  0  0  0  0  0  0
    3.5857   -3.4838    1.2349 H   0  0  0  0  0  0  0  0  0  0  0  0
    2.0594   -2.1200   -0.2574 H   0  0  0  0  0  0  0  0  0  0  0  0
   -1.7910   -2.5214   -1.7915 H   0  0  0  0  0  0  0  0  0  0  0  0
   -4.2011   -2.5275   -1.4890 H   0  0  0  0  0  0  0  0  0  0  0  0
   -5.9930   -0.0843    0.6053 H   0  0  0  0  0  0  0  0  0  0  0  0
   -7.8776   -4.1574   -0.7922 H   0  0  0  0  0  0  0  0  0  0  0  0
   -9.5862   -3.5314   -0.4675 H   0  0  0  0  0  0  0  0  0  0  0  0
   -9.0668   -3.4296    2.0590 H   0  0  0  0  0  0  0  0  0  0  0  0
   -7.4089   -4.1370    1.6985 H   0  0  0  0  0  0  0  0  0  0  0  0
   -7.7902    0.4562   -0.3104 H   0  0  0  0  0  0  0  0  0  0  0  0
   -9.7650    1.5684   -1.7719 H   0  0  0  0  0  0  0  0  0  0  0  0
  -10.7674    3.7837   -1.0343 H   0  0  0  0  0  0  0  0  0  0  0  0
  -12.0168    2.5426   -1.4224 H   0  0  0  0  0  0  0  0  0  0  0  0
  -11.6408    4.1294    0.9469 H   0  0  0  0  0  0  0  0  0  0  0  0
  -11.5771    2.4212    2.8054 H   0  0  0  0  0  0  0  0  0  0  0  0
   -9.8450    0.8363    2.4194 H   0  0  0  0  0  0  0  0  0  0  0  0
   -3.9079    0.4182    1.5091 H   0  0  0  0  0  0  0  0  0  0  0  0
   -0.9995    1.3667   -1.3304 H   0  0  0  0  0  0  0  0  0  0  0  0
    0.3645    3.1827   -2.0801 H   0  0  0  0  0  0  0  0  0  0  0  0
    4.7341    1.6500   -1.8317 H   0  0  0  0  0  0  0  0  0  0  0  0
    6.7902    1.4564   -0.9075 H   0  0  0  0  0  0  0  0  0  0  0  0
    6.6790    0.8981   -2.6163 H   0  0  0  0  0  0  0  0  0  0  0  0
    8.5172   -0.6510   -2.2580 H   0  0  0  0  0  0  0  0  0  0  0  0
    8.9717    1.0419   -1.9999 H   0  0  0  0  0  0  0  0  0  0  0  0
    8.1514   -1.0174    0.1504 H   0  0  0  0  0  0  0  0  0  0  0  0
    9.8226   -0.4865   -0.1718 H   0  0  0  0  0  0  0  0  0  0  0  0
    8.8820   -0.5200    2.1502 H   0  0  0  0  0  0  0  0  0  0  0  0
    8.0335    0.9450    2.7222 H   0  0  0  0  0  0  0  0  0  0  0  0
   10.5337    0.5668    3.3880 H   0  0  0  0  0  0  0  0  0  0  0  0
    9.9539    2.2035    3.0123 H   0  0  0  0  0  0  0  0  0  0  0  0
   11.7159    0.2783    1.3726 H   0  0  0  0  0  0  0  0  0  0  0  0
   12.0186    1.9324    1.9308 H   0  0  0  0  0  0  0  0  0  0  0  0
   10.9303    1.1781   -0.6500 H   0  0  0  0  0  0  0  0  0  0  0  0
   11.3098    2.7776   -0.0117 H   0  0  0  0  0  0  0  0  0  0  0  0
    9.0848    2.9287    1.0867 H   0  0  0  0  0  0  0  0  0  0  0  0
    8.9162    2.5157   -0.6375 H   0  0  0  0  0  0  0  0  0  0  0  0
  1  2  1  0
  2  3  1  0
  3  4  2  0
  4  5  1  0
  5  6  2  0
  6  7  1  0
  7  8  1  0
  8  9  2  0
  9 10  1  0
 10 11  2  0
 11 12  1  0
 12 13  1  0
 13 14  2  0
 13 15  1  0
 15 16  1  0
 16 17  1  0
 15 18  1  0
 18 19  2  0
 18 20  1  0
 20 21  1  0
 21 22  2  0
 22 23  1  0
 23 24  1  0
 24 25  1  0
 24 26  1  0
 26 27  2  0
 11 28  1  0
 28 29  2  0
 29 30  1  0
  6 31  1  0
 31 32  2  0
 32 33  1  0
 33 34  2  0
 34 35  1  0
 35 36  2  0
 36 37  1  0
 37 38  1  0
 38 39  1  0
 39 40  1  0
 40 41  1  0
 41 42  1  0
 42 43  1  0
 43 44  1  0
 44 45  1  0
 45 46  1  0
 36  3  1  0
 46 41  1  0
 34  5  1  0
 29  8  1  0
 17 15  1  0
 27 21  1  0
  1 47  1  0
  1 48  1  0
  1 49  1  0
  4 50  1  0
  9 51  1  0
 10 52  1  0
 12 53  1  0
 16 54  1  0
 16 55  1  0
 17 56  1  0
 17 57  1  0
 20 58  1  0
 22 59  1  0
 23 60  1  0
 23 61  1  0
 24 62  1  0
 26 63  1  0
 27 64  1  0
 28 65  1  0
 31 66  1  0
 32 67  1  0
 35 68  1  0
 38 69  1  0
 38 70  1  0
 39 71  1  0
 39 72  1  0
 40 73  1  0
 40 74  1  0
 42 75  1  0
 42 76  1  0
 43 77  1  0
 43 78  1  0
 44 79  1  0
 44 80  1  0
 45 81  1  0
 45 82  1  0
 46 83  1  0
 46 84  1  0
M  END
$$$$
[H]N=C(N([H])[H])N([H])C([H])([H])C([H])([H])C([H])([H])[C@@]1([H])C(=O)N([H])[C@@]([H])(C([H])([H])c2c([H])c([H])c([H])c([H])c2[H])C(=O)N2C([H])([H])C([H])([H])C([H])([H])[C@]2([H])C(=O)N([H])[C@]([H])(C([H])([H])c2c([H])c([H])c([H])c([H])c2[H])C(=O)N1[H]
     RDKit          3D

 77 80  0  0  0  0  0  0  0  0999 V2000
   -2.1207    6.4061    1.2591 N   0  0  0  0  0  0  0  0  0  0  0  0
   -1.1749    6.0664    0.2751 C   0  0  0  0  0  0  0  0  0  0  0  0
   -1.4328    6.2726   -0.9582 N   0  0  0  0  0  0  0  0  0  0  0  0
    0.0632    5.5029    0.6599 N   0  0  0  0  0  0  0  0  0  0  0  0
    0.9335    4.9244   -0.3292 C   0  0  0  0  0  0  0  0  0  0  0  0
    0.3481    3.6472   -0.9036 C   0  0  0  0  0  0  0  0  0  0  0  0
    0.1694    2.6812    0.2149 C   0  0  0  0  0  0  0  0  0  0  0  0
   -0.3888    1.3286   -0.1926 C   0  0  2  0  0  0  0  0  0  0  0  0
    0.4666    0.6881   -1.1667 N   0  0  0  0  0  0  0  0  0  0  0  0
    1.7687    0.2099   -1.0235 C   0  0  0  0  0  0  0  0  0  0  0  0
    2.5957    0.5736   -1.9520 O   0  0  0  0  0  0  0  0  0  0  0  0
    2.3268   -0.6528    0.0375 C   0  0  1  0  0  0  0  0  0  0  0  0
    3.1946    0.0932    1.0144 C   0  0  0  0  0  0  0  0  0  0  0  0
    4.3698    0.7655    0.4307 C   0  0  0  0  0  0  0  0  0  0  0  0
    4.3146    2.0815    0.0345 C   0  0  0  0  0  0  0  0  0  0  0  0
    5.3858    2.7501   -0.5137 C   0  0  0  0  0  0  0  0  0  0  0  0
    6.5721    2.1147   -0.6889 C   0  0  0  0  0  0  0  0  0  0  0  0
    6.6750    0.7893   -0.3051 C   0  0  0  0  0  0  0  0  0  0  0  0
    5.5830    0.1307    0.2467 C   0  0  0  0  0  0  0  0  0  0  0  0
    1.2960   -1.3322    0.7889 N   0  0  0  0  0  0  0  0  0  0  0  0
    0.6070   -2.4986    0.4141 C   0  0  0  0  0  0  0  0  0  0  0  0
    0.2694   -3.2844    1.3546 O   0  0  0  0  0  0  0  0  0  0  0  0
    0.2320   -2.9125   -0.9463 C   0  0  1  0  0  0  0  0  0  0  0  0
    0.9675   -4.2359   -1.1902 C   0  0  0  0  0  0  0  0  0  0  0  0
   -0.0947   -5.1390   -1.7751 C   0  0  0  0  0  0  0  0  0  0  0  0
   -1.3637   -4.6338   -1.1245 C   0  0  0  0  0  0  0  0  0  0  0  0
   -1.1757   -3.1758   -1.1274 N   0  0  0  0  0  0  0  0  0  0  0  0
   -2.1838   -2.1901   -1.2842 C   0  0  0  0  0  0  0  0  0  0  0  0
   -3.0183   -2.2764   -2.2556 O   0  0  0  0  0  0  0  0  0  0  0  0
   -2.3850   -1.0165   -0.4032 C   0  0  2  0  0  0  0  0  0  0  0  0
   -3.7361   -1.0597    0.3167 C   0  0  0  0  0  0  0  0  0  0  0  0
   -3.9300   -2.2174    1.1684 C   0  0  0  0  0  0  0  0  0  0  0  0
   -3.5219   -2.1995    2.4781 C   0  0  0  0  0  0  0  0  0  0  0  0
   -3.7164   -3.3034    3.2994 C   0  0  0  0  0  0  0  0  0  0  0  0
   -4.3283   -4.4208    2.7747 C   0  0  0  0  0  0  0  0  0  0  0  0
   -4.7469   -4.4734    1.4771 C   0  0  0  0  0  0  0  0  0  0  0  0
   -4.5363   -3.3515    0.6841 C   0  0  0  0  0  0  0  0  0  0  0  0
   -2.4229    0.2188   -1.1561 N   0  0  0  0  0  0  0  0  0  0  0  0
   -1.7713    1.3698   -0.6828 C   0  0  0  0  0  0  0  0  0  0  0  0
   -2.3757    2.4941   -0.6669 O   0  0  0  0  0  0  0  0  0  0  0  0
   -2.9735    5.8270    1.3903 H   0  0  0  0  0  0  0  0  0  0  0  0
   -1.9934    7.2512    1.8869 H   0  0  0  0  0  0  0  0  0  0  0  0
   -2.3325    6.6898   -1.2808 H   0  0  0  0  0  0  0  0  0  0  0  0
    0.3601    5.5027    1.6883 H   0  0  0  0  0  0  0  0  0  0  0  0
    1.1257    5.6553   -1.1462 H   0  0  0  0  0  0  0  0  0  0  0  0
    1.9151    4.7097    0.1397 H   0  0  0  0  0  0  0  0  0  0  0  0
    1.0856    3.3041   -1.6632 H   0  0  0  0  0  0  0  0  0  0  0  0
   -0.5874    3.8840   -1.3977 H   0  0  0  0  0  0  0  0  0  0  0  0
    1.1202    2.5015    0.7508 H   0  0  0  0  0  0  0  0  0  0  0  0
   -0.5302    3.1161    0.9633 H   0  0  0  0  0  0  0  0  0  0  0  0
   -0.4051    0.7450    0.7695 H   0  0  0  0  0  0  0  0  0  0  0  0
    0.0092    0.5774   -2.1368 H   0  0  0  0  0  0  0  0  0  0  0  0
    2.9992   -1.4459   -0.3892 H   0  0  0  0  0  0  0  0  0  0  0  0
    2.5393    0.8126    1.5827 H   0  0  0  0  0  0  0  0  0  0  0  0
    3.5198   -0.6227    1.8390 H   0  0  0  0  0  0  0  0  0  0  0  0
    3.4125    2.6266    0.1476 H   0  0  0  0  0  0  0  0  0  0  0  0
    5.2901    3.7838   -0.8084 H   0  0  0  0  0  0  0  0  0  0  0  0
    7.4236    2.6498   -1.1258 H   0  0  0  0  0  0  0  0  0  0  0  0
    7.6356    0.3157   -0.4603 H   0  0  0  0  0  0  0  0  0  0  0  0
    5.7095   -0.9013    0.5299 H   0  0  0  0  0  0  0  0  0  0  0  0
    1.0366   -0.8959    1.7245 H   0  0  0  0  0  0  0  0  0  0  0  0
    0.6321   -2.2311   -1.7305 H   0  0  0  0  0  0  0  0  0  0  0  0
    1.7750   -4.1452   -1.9181 H   0  0  0  0  0  0  0  0  0  0  0  0
    1.3263   -4.6911   -0.2513 H   0  0  0  0  0  0  0  0  0  0  0  0
    0.0344   -6.1930   -1.4717 H   0  0  0  0  0  0  0  0  0  0  0  0
   -0.1574   -5.0689   -2.8748 H   0  0  0  0  0  0  0  0  0  0  0  0
   -1.5205   -5.0457   -0.1240 H   0  0  0  0  0  0  0  0  0  0  0  0
   -2.2008   -4.9450   -1.7639 H   0  0  0  0  0  0  0  0  0  0  0  0
   -1.6414   -0.9750    0.4223 H   0  0  0  0  0  0  0  0  0  0  0  0
   -4.5575   -0.9308   -0.4345 H   0  0  0  0  0  0  0  0  0  0  0  0
   -3.7630   -0.1432    0.9504 H   0  0  0  0  0  0  0  0  0  0  0  0
   -3.0307   -1.3284    2.9367 H   0  0  0  0  0  0  0  0  0  0  0  0
   -3.3929   -3.2787    4.3217 H   0  0  0  0  0  0  0  0  0  0  0  0
   -4.4988   -5.3050    3.3839 H   0  0  0  0  0  0  0  0  0  0  0  0
   -5.2302   -5.3341    1.0338 H   0  0  0  0  0  0  0  0  0  0  0  0
   -4.8842   -3.4201   -0.3588 H   0  0  0  0  0  0  0  0  0  0  0  0
   -2.9649    0.2143   -2.0491 H   0  0  0  0  0  0  0  0  0  0  0  0
  1  2  1  0
  2  3  2  3
  2  4  1  0
  4  5  1  0
  5  6  1  0
  6  7  1  0
  7  8  1  0
  8  9  1  0
  9 10  1  0
 10 11  2  0
 10 12  1  0
 12 13  1  0
 13 14  1  0
 14 15  2  0
 15 16  1  0
 16 17  2  0
 17 18  1  0
 18 19  2  0
 12 20  1  0
 20 21  1  0
 21 22  2  0
 21 23  1  0
 23 24  1  0
 24 25  1  0
 25 26  1  0
 26 27  1  0
 27 28  1  0
 28 29  2  0
 28 30  1  0
 30 31  1  0
 31 32  1  0
 32 33  2  0
 33 34  1  0
 34 35  2  0
 35 36  1  0
 36 37  2  0
 30 38  1  0
 38 39  1  0
 39 40  2  0
 39  8  1  0
 19 14  1  0
 27 23  1  0
 37 32  1  0
  1 41  1  0
  1 42  1  0
  3 43  1  0
  4 44  1  0
  5 45  1  0
  5 46  1  0
  6 47  1  0
  6 48  1  0
  7 49  1  0
  7 50  1  0
  8 51  1  1
  9 52  1  0
 12 53  1  6
 13 54  1  0
 13 55  1  0
 15 56  1  0
 16 57  1  0
 17 58  1  0
 18 59  1  0
 19 60  1  0
 20 61  1  0
 23 62  1  6
 24 63  1  0
 24 64  1  0
 25 65  1  0
 25 66  1  0
 26 67  1  0
 26 68  1  0
 30 69  1  1
 31 70  1  0
 31 71  1  0
 33 72  1  0
 34 73  1  0
 35 74  1  0
 36 75  1  0
 37 76  1  0
 38 77  1  0
M  END
$$$$
[H]c1c([H])c(C([H])([H])[H])c2c(C3=C(c4c([H])n([H])c5c([H])c([H])c([H])c([H])c45)C(=O)N([H])C3=O)nc(N3C([H])([H])C([H])([H])N(C([H])([H])[H])C([H])([H])C3([H])[H])nc2c1[H]
     RDKit          3D

 58 63  0  0  0  0  0  0  0  0999 V2000
   -5.9923   -1.9254    0.4270 C   0  0  0  0  0  0  0  0  0  0  0  0
   -4.6957   -1.3011    0.5771 N   0  0  0  0  0  0  0  0  0  0  0  0
   -3.7025   -2.3467    0.2956 C   0  0  0  0  0  0  0  0  0  0  0  0
   -2.3088   -1.8580    0.6277 C   0  0  0  0  0  0  0  0  0  0  0  0
   -2.3113   -0.4777    1.0597 N   0  0  0  0  0  0  0  0  0  0  0  0
   -3.2471   -0.1176    2.0994 C   0  0  0  0  0  0  0  0  0  0  0  0
   -4.5188   -0.9379    1.9708 C   0  0  0  0  0  0  0  0  0  0  0  0
   -1.4528    0.5120    0.5118 C   0  0  0  0  0  0  0  0  0  0  0  0
   -0.5982    0.2657   -0.4782 N   0  0  0  0  0  0  0  0  0  0  0  0
    0.2471    1.2327   -1.0158 C   0  0  0  0  0  0  0  0  0  0  0  0
    1.0567    0.7444   -2.0852 C   0  0  0  0  0  0  0  0  0  0  0  0
    2.1636    0.0428   -1.9474 C   0  0  0  0  0  0  0  0  0  0  0  0
    2.6860   -0.2847   -3.2548 C   0  0  0  0  0  0  0  0  0  0  0  0
    3.7520   -0.9444   -3.5516 O   0  0  0  0  0  0  0  0  0  0  0  0
    1.8115    0.2555   -4.2366 N   0  0  0  0  0  0  0  0  0  0  0  0
    0.7947    0.8942   -3.4920 C   0  0  0  0  0  0  0  0  0  0  0  0
   -0.1743    1.4881   -4.0959 O   0  0  0  0  0  0  0  0  0  0  0  0
    2.8059   -0.3323   -0.6698 C   0  0  0  0  0  0  0  0  0  0  0  0
    3.1386    0.4635    0.3845 C   0  0  0  0  0  0  0  0  0  0  0  0
    3.6757   -0.2925    1.3533 N   0  0  0  0  0  0  0  0  0  0  0  0
    3.7076   -1.5863    0.9640 C   0  0  0  0  0  0  0  0  0  0  0  0
    4.1398   -2.7467    1.5646 C   0  0  0  0  0  0  0  0  0  0  0  0
    4.0591   -3.9820    0.9587 C   0  0  0  0  0  0  0  0  0  0  0  0
    3.5179   -4.0203   -0.2992 C   0  0  0  0  0  0  0  0  0  0  0  0
    3.0835   -2.8615   -0.9065 C   0  0  0  0  0  0  0  0  0  0  0  0
    3.1593   -1.6194   -0.3129 C   0  0  0  0  0  0  0  0  0  0  0  0
    0.1841    2.4739   -0.4920 C   0  0  0  0  0  0  0  0  0  0  0  0
    0.9898    3.4967   -0.9416 C   0  0  0  0  0  0  0  0  0  0  0  0
    1.9862    3.3301   -1.9825 C   0  0  0  0  0  0  0  0  0  0  0  0
    0.8302    4.7453   -0.3029 C   0  0  0  0  0  0  0  0  0  0  0  0
   -0.0594    4.9823    0.7138 C   0  0  0  0  0  0  0  0  0  0  0  0
   -0.8420    3.9469    1.1392 C   0  0  0  0  0  0  0  0  0  0  0  0
   -0.7292    2.7355    0.5632 C   0  0  0  0  0  0  0  0  0  0  0  0
   -1.5008    1.7532    1.0153 N   0  0  0  0  0  0  0  0  0  0  0  0
   -6.1830   -2.6721    1.2230 H   0  0  0  0  0  0  0  0  0  0  0  0
   -6.0116   -2.5036   -0.5383 H   0  0  0  0  0  0  0  0  0  0  0  0
   -6.8176   -1.1839    0.3791 H   0  0  0  0  0  0  0  0  0  0  0  0
   -3.9473   -3.1886    0.9770 H   0  0  0  0  0  0  0  0  0  0  0  0
   -3.8073   -2.6891   -0.7445 H   0  0  0  0  0  0  0  0  0  0  0  0
   -1.8846   -2.4380    1.4985 H   0  0  0  0  0  0  0  0  0  0  0  0
   -1.6677   -1.9847   -0.2645 H   0  0  0  0  0  0  0  0  0  0  0  0
   -2.8480   -0.3005    3.1226 H   0  0  0  0  0  0  0  0  0  0  0  0
   -3.5089    0.9691    2.0638 H   0  0  0  0  0  0  0  0  0  0  0  0
   -5.4048   -0.3730    2.3163 H   0  0  0  0  0  0  0  0  0  0  0  0
   -4.4587   -1.8715    2.5621 H   0  0  0  0  0  0  0  0  0  0  0  0
    1.9290    0.1758   -5.2797 H   0  0  0  0  0  0  0  0  0  0  0  0
    3.0082    1.5287    0.4579 H   0  0  0  0  0  0  0  0  0  0  0  0
    4.0329    0.0249    2.2906 H   0  0  0  0  0  0  0  0  0  0  0  0
    4.5659   -2.6823    2.5679 H   0  0  0  0  0  0  0  0  0  0  0  0
    4.4155   -4.8786    1.4742 H   0  0  0  0  0  0  0  0  0  0  0  0
    3.4337   -4.9676   -0.8143 H   0  0  0  0  0  0  0  0  0  0  0  0
    2.6446   -2.9188   -1.8980 H   0  0  0  0  0  0  0  0  0  0  0  0
    2.8385    2.6820   -1.8321 H   0  0  0  0  0  0  0  0  0  0  0  0
    2.6259    4.3134   -1.8625 H   0  0  0  0  0  0  0  0  0  0  0  0
    1.6814    3.5840   -3.0221 H   0  0  0  0  0  0  0  0  0  0  0  0
    1.4365    5.5726   -0.6260 H   0  0  0  0  0  0  0  0  0  0  0  0
   -0.1742    5.9422    1.1943 H   0  0  0  0  0  0  0  0  0  0  0  0
   -1.5544    4.1313    1.9528 H   0  0  0  0  0  0  0  0  0  0  0  0
  1  2  1  0
  2  3  1  0
  3  4  1  0
  4  5  1  0
  5  6  1  0
  6  7  1  0
  5  8  1  0
  8  9  2  0
  9 10  1  0
 10 11  1  0
 11 12  2  0
 12 13  1  0
 13 14  2  0
 13 15  1  0
 15 16  1  0
 16 17  2  0
 12 18  1  0
 18 19  2  0
 19 20  1  0
 20 21  1  0
 21 22  2  0
 22 23  1  0
 23 24  2  0
 24 25  1  0
 25 26  2  0
 10 27  2  0
 27 28  1  0
 28 29  1  0
 28 30  2  0
 30 31  1  0
 31 32  2  0
 32 33  1  0
 33 34  2  0
  7  2  1  0
 34  8  1  0
 16 11  1  0
 26 18  1  0
 33 27  1  0
 26 21  1  0
  1 35  1  0
  1 36  1  0
  1 37  1  0
  3 38  1  0
  3 39  1  0
  4 40  1  0
  4 41  1  0
  6 42  1  0
  6 43  1  0
  7 44  1  0
  7 45  1  0
 15 46  1  0
 19 47  1  0
 20 48  1  0
 22 49  1  0
 23 50  1  0
 24 51  1  0
 25 52  1  0
 29 53  1  0
 29 54  1  0
 29 55  1  0
 30 56  1  0
 31 57  1  0
 32 58  1  0
M  END
$$$$
[H]c1nc(N([H])c2c([H])c([H])c(N3C([H])([H])C([H])([H])C([H])(N4C([H])([H])C([H])([H])C([H])(C([H])([H])[H])C([H])([H])C4([H])[H])C([H])([H])C3([H])[H])c([H])c2OC([H])([H])[H])nc(N([H])c2c([H])c([H])c([H])c([H])c2S(=O)(=O)C([H])(C([H])([H])[H])C([H])([H])[H])c1Cl
     RDKit          3D

 83 87  0  0  0  0  0  0  0  0999 V2000
   -0.0229    3.8832   -1.1594 C   0  0  0  0  0  0  0  0  0  0  0  0
    0.6931    2.6992   -0.7852 O   0  0  0  0  0  0  0  0  0  0  0  0
   -0.0471    1.6889   -0.1703 C   0  0  0  0  0  0  0  0  0  0  0  0
   -1.3760    1.7910    0.0751 C   0  0  0  0  0  0  0  0  0  0  0  0
   -2.1322    0.8085    0.6818 C   0  0  0  0  0  0  0  0  0  0  0  0
   -1.4561   -0.3368    1.0485 C   0  0  0  0  0  0  0  0  0  0  0  0
   -0.0904   -0.4675    0.8076 C   0  0  0  0  0  0  0  0  0  0  0  0
    0.6615    0.5289    0.1948 C   0  0  0  0  0  0  0  0  0  0  0  0
    2.0158    0.4494   -0.0914 N   0  0  0  0  0  0  0  0  0  0  0  0
    2.9139   -0.5898    0.2072 C   0  0  0  0  0  0  0  0  0  0  0  0
    2.6194   -1.7271    0.8564 N   0  0  0  0  0  0  0  0  0  0  0  0
    3.5483   -2.6687    1.0789 C   0  0  0  0  0  0  0  0  0  0  0  0
    4.8372   -2.5339    0.6652 C   0  0  0  0  0  0  0  0  0  0  0  0
    6.0443   -3.7564    0.9540 Cl  0  0  0  0  0  0  0  0  0  0  0  0
    5.1977   -1.3474   -0.0265 C   0  0  0  0  0  0  0  0  0  0  0  0
    6.5211   -1.1948   -0.4663 N   0  0  0  0  0  0  0  0  0  0  0  0
    7.0640   -0.1127   -1.1591 C   0  0  0  0  0  0  0  0  0  0  0  0
    6.3372    0.9736   -1.6055 C   0  0  0  0  0  0  0  0  0  0  0  0
    6.9009    2.0275   -2.3276 C   0  0  0  0  0  0  0  0  0  0  0  0
    8.2359    1.9855   -2.6090 C   0  0  0  0  0  0  0  0  0  0  0  0
    9.0151    0.9354   -2.1948 C   0  0  0  0  0  0  0  0  0  0  0  0
    8.4364   -0.0918   -1.4829 C   0  0  0  0  0  0  0  0  0  0  0  0
    9.4602   -1.3700   -0.9451 S   0  0  0  0  0  0  0  0  0  0  0  0
    9.0234   -2.7373   -1.4494 O   0  0  0  0  0  0  0  0  0  0  0  0
   10.8372   -1.1675   -1.5726 O   0  0  0  0  0  0  0  0  0  0  0  0
    9.6499   -1.4809    0.8048 C   0  0  0  0  0  0  0  0  0  0  0  0
   10.3775   -0.2718    1.3679 C   0  0  0  0  0  0  0  0  0  0  0  0
   10.5229   -2.7039    1.0782 C   0  0  0  0  0  0  0  0  0  0  0  0
    4.2160   -0.4904   -0.1919 N   0  0  0  0  0  0  0  0  0  0  0  0
   -3.5267    0.9472    0.9022 N   0  0  0  0  0  0  0  0  0  0  0  0
   -4.1916   -0.0231    1.7397 C   0  0  0  0  0  0  0  0  0  0  0  0
   -5.6405    0.2775    1.9718 C   0  0  0  0  0  0  0  0  0  0  0  0
   -6.3466    0.9085    0.8183 C   0  0  0  0  0  0  0  0  0  0  0  0
   -5.4897    1.3435   -0.3202 C   0  0  0  0  0  0  0  0  0  0  0  0
   -4.2466    2.0172    0.2915 C   0  0  0  0  0  0  0  0  0  0  0  0
   -7.3719    0.0576    0.3049 N   0  0  0  0  0  0  0  0  0  0  0  0
   -8.4150   -0.1847    1.2618 C   0  0  0  0  0  0  0  0  0  0  0  0
   -9.0187   -1.5243    0.8639 C   0  0  0  0  0  0  0  0  0  0  0  0
   -9.5982   -1.4013   -0.4961 C   0  0  0  0  0  0  0  0  0  0  0  0
  -11.1265   -1.3386   -0.3314 C   0  0  0  0  0  0  0  0  0  0  0  0
   -9.1349   -0.3112   -1.3625 C   0  0  0  0  0  0  0  0  0  0  0  0
   -7.9416    0.4607   -0.9327 C   0  0  0  0  0  0  0  0  0  0  0  0
   -0.8282    3.6294   -1.8924 H   0  0  0  0  0  0  0  0  0  0  0  0
    0.6339    4.6204   -1.6600 H   0  0  0  0  0  0  0  0  0  0  0  0
   -0.5513    4.3076   -0.2755 H   0  0  0  0  0  0  0  0  0  0  0  0
   -1.8381    2.7341   -0.2409 H   0  0  0  0  0  0  0  0  0  0  0  0
   -1.9896   -1.1392    1.5256 H   0  0  0  0  0  0  0  0  0  0  0  0
    0.3469   -1.3892    1.1242 H   0  0  0  0  0  0  0  0  0  0  0  0
    2.4490    1.2805   -0.6069 H   0  0  0  0  0  0  0  0  0  0  0  0
    3.2356   -3.5715    1.6150 H   0  0  0  0  0  0  0  0  0  0  0  0
    7.1646   -1.9946   -0.2570 H   0  0  0  0  0  0  0  0  0  0  0  0
    5.2727    1.0891   -1.4313 H   0  0  0  0  0  0  0  0  0  0  0  0
    6.2874    2.8749   -2.6650 H   0  0  0  0  0  0  0  0  0  0  0  0
    8.6807    2.8037   -3.1724 H   0  0  0  0  0  0  0  0  0  0  0  0
   10.0826    0.9401   -2.4401 H   0  0  0  0  0  0  0  0  0  0  0  0
    8.7257   -1.6339    1.3387 H   0  0  0  0  0  0  0  0  0  0  0  0
   11.0326    0.1875    0.6051 H   0  0  0  0  0  0  0  0  0  0  0  0
    9.6314    0.4256    1.7968 H   0  0  0  0  0  0  0  0  0  0  0  0
   11.0366   -0.6365    2.1805 H   0  0  0  0  0  0  0  0  0  0  0  0
   10.6749   -2.8822    2.1586 H   0  0  0  0  0  0  0  0  0  0  0  0
   11.5457   -2.5049    0.6486 H   0  0  0  0  0  0  0  0  0  0  0  0
   10.0715   -3.6160    0.6363 H   0  0  0  0  0  0  0  0  0  0  0  0
   -3.6454   -0.0392    2.7054 H   0  0  0  0  0  0  0  0  0  0  0  0
   -4.0763   -1.0378    1.3038 H   0  0  0  0  0  0  0  0  0  0  0  0
   -6.1592   -0.6737    2.2263 H   0  0  0  0  0  0  0  0  0  0  0  0
   -5.7560    0.9357    2.8574 H   0  0  0  0  0  0  0  0  0  0  0  0
   -6.8830    1.8466    1.1635 H   0  0  0  0  0  0  0  0  0  0  0  0
   -5.9994    2.1409   -0.8876 H   0  0  0  0  0  0  0  0  0  0  0  0
   -5.2199    0.4675   -0.9273 H   0  0  0  0  0  0  0  0  0  0  0  0
   -4.6507    2.7121    1.0601 H   0  0  0  0  0  0  0  0  0  0  0  0
   -3.7672    2.5222   -0.5403 H   0  0  0  0  0  0  0  0  0  0  0  0
   -9.2517    0.5548    1.0873 H   0  0  0  0  0  0  0  0  0  0  0  0
   -8.1162   -0.1901    2.3077 H   0  0  0  0  0  0  0  0  0  0  0  0
   -8.1664   -2.2398    0.8425 H   0  0  0  0  0  0  0  0  0  0  0  0
   -9.7748   -1.8631    1.6021 H   0  0  0  0  0  0  0  0  0  0  0  0
   -9.4440   -2.4056   -0.9996 H   0  0  0  0  0  0  0  0  0  0  0  0
  -11.3763   -0.3308    0.0561 H   0  0  0  0  0  0  0  0  0  0  0  0
  -11.4960   -2.0929    0.3597 H   0  0  0  0  0  0  0  0  0  0  0  0
  -11.6298   -1.4428   -1.3113 H   0  0  0  0  0  0  0  0  0  0  0  0
   -8.9370   -0.7214   -2.3958 H   0  0  0  0  0  0  0  0  0  0  0  0
   -9.9816    0.4110   -1.5352 H   0  0  0  0  0  0  0  0  0  0  0  0
   -8.1657    1.5595   -0.8568 H   0  0  0  0  0  0  0  0  0  0  0  0
   -7.1243    0.4107   -1.7077 H   0  0  0  0  0  0  0  0  0  0  0  0
  1  2  1  0
  2  3  1  0
  3  4  2  0
  4  5  1  0
  5  6  2  0
  6  7  1  0
  7  8  2  0
  8  9  1  0
  9 10  1  0
 10 11  2  0
 11 12  1  0
 12 13  2  0
 13 14  1  0
 13 15  1  0
 15 16  1  0
 16 17  1  0
 17 18  2  0
 18 19  1  0
 19 20  2  0
 20 21  1  0
 21 22  2  0
 22 23  1  0
 23 24  2  0
 23 25  2  0
 23 26  1  0
 26 27  1  0
 26 28  1  0
 15 29  2  0
  5 30  1  0
 30 31  1  0
 31 32  1  0
 32 33  1  0
 33 34  1  0
 34 35  1  0
 33 36  1  0
 36 37  1  0
 37 38  1  0
 38 39  1  0
 39 40  1  0
 39 41  1  0
 41 42  1  0
  8  3  1  0
 29 10  1  0
 35 30  1  0
 42 36  1  0
 22 17  1  0
  1 43  1  0
  1 44  1  0
  1 45  1  0
  4 46  1  0
  6 47  1  0
  7 48  1  0
  9 49  1  0
 12 50  1  0
 16 51  1  0
 18 52  1  0
 19 53  1  0
 20 54  1  0
 21 55  1  0
 26 56  1  0
 27 57  1  0
 27 58  1  0
 27 59  1  0
 28 60  1  0
 28 61  1  0
 28 62  1  0
 31 63  1  0
 31 64  1  0
 32 65  1  0
 32 66  1  0
 33 67  1  0
 34 68  1  0
 34 69  1  0
 35 70  1  0
 35 71  1  0
 37 72  1  0
 37 73  1  0
 38 74  1  0
 38 75  1  0
 39 76  1  0
 40 77  1  0
 40 78  1  0
 40 79  1  0
 41 80  1  0
 41 81  1  0
 42 82  1  0
 42 83  1  0
M  END
$$$$
[H]Oc1c([H])c([H])c(C([H])([H])[C@@]2([H])C(=O)N([H])[C@@]([H])(C([H])([H])c3c([H])c([H])c(O[H])c([H])c3[H])C(=O)N([H])[C@]([H])(C([H])([H])c3c([H])n([H])c4c([H])c([H])c([H])c([H])c34)C(=O)N([H])[C@@]([H])(C([H])([H])C([H])([H])C([H])([H])C([H])([H])N([H])[H])C(=O)N([H])[C@@]([H])(C([H])(C([H])([H])[H])C([H])([H])[H])C(=O)N2[H])c([H])c1[H]
     RDKit          3D

103107  0  0  0  0  0  0  0  0999 V2000
   -0.1888   -4.7172    1.5050 C   0  0  0  0  0  0  0  0  0  0  0  0
    0.9657   -4.1790    0.6918 C   0  0  0  0  0  0  0  0  0  0  0  0
    2.1691   -4.1947    1.5902 C   0  0  0  0  0  0  0  0  0  0  0  0
    0.6568   -2.8038    0.1294 C   0  0  2  0  0  0  0  0  0  0  0  0
   -0.5258   -3.0151   -0.7069 N   0  0  0  0  0  0  0  0  0  0  0  0
   -1.7078   -2.2818   -0.6897 C   0  0  0  0  0  0  0  0  0  0  0  0
   -2.3612   -2.2929   -1.8026 O   0  0  0  0  0  0  0  0  0  0  0  0
   -2.3163   -1.5094    0.3871 C   0  0  2  0  0  0  0  0  0  0  0  0
   -3.7927   -1.4516    0.4529 C   0  0  0  0  0  0  0  0  0  0  0  0
   -4.7487   -2.4919    0.7073 C   0  0  0  0  0  0  0  0  0  0  0  0
   -4.9743   -3.7348    0.0109 C   0  0  0  0  0  0  0  0  0  0  0  0
   -3.9819   -4.8234    0.1511 C   0  0  0  0  0  0  0  0  0  0  0  0
   -3.9045   -5.1546    1.5953 N   0  0  0  0  0  0  0  0  0  0  0  0
   -1.7043   -0.2259    0.6539 N   0  0  0  0  0  0  0  0  0  0  0  0
   -1.7125    0.9520   -0.1290 C   0  0  0  0  0  0  0  0  0  0  0  0
   -2.0706    2.0468    0.4511 O   0  0  0  0  0  0  0  0  0  0  0  0
   -1.3527    1.0871   -1.5442 C   0  0  1  0  0  0  0  0  0  0  0  0
   -2.4180    1.3395   -2.5418 C   0  0  0  0  0  0  0  0  0  0  0  0
   -3.2373    2.5277   -2.5356 C   0  0  0  0  0  0  0  0  0  0  0  0
   -2.9217    3.6545   -3.3268 C   0  0  0  0  0  0  0  0  0  0  0  0
   -3.8553    4.5639   -3.0835 N   0  0  0  0  0  0  0  0  0  0  0  0
   -4.7493    4.1100   -2.1976 C   0  0  0  0  0  0  0  0  0  0  0  0
   -5.8877    4.7248   -1.6847 C   0  0  0  0  0  0  0  0  0  0  0  0
   -6.6700    4.0464   -0.8006 C   0  0  0  0  0  0  0  0  0  0  0  0
   -6.3117    2.7679   -0.4379 C   0  0  0  0  0  0  0  0  0  0  0  0
   -5.1959    2.1776   -0.9454 C   0  0  0  0  0  0  0  0  0  0  0  0
   -4.3788    2.8236   -1.8374 C   0  0  0  0  0  0  0  0  0  0  0  0
   -0.3078    2.1248   -1.6944 N   0  0  0  0  0  0  0  0  0  0  0  0
    1.0028    2.1151   -1.2094 C   0  0  0  0  0  0  0  0  0  0  0  0
    1.9411    2.2840   -2.0772 O   0  0  0  0  0  0  0  0  0  0  0  0
    1.4689    1.9391    0.1881 C   0  0  2  0  0  0  0  0  0  0  0  0
    1.2877    3.3511    0.7934 C   0  0  0  0  0  0  0  0  0  0  0  0
    1.6604    3.4654    2.1860 C   0  0  0  0  0  0  0  0  0  0  0  0
    0.7666    3.1528    3.1853 C   0  0  0  0  0  0  0  0  0  0  0  0
    1.1063    3.2858    4.5311 C   0  0  0  0  0  0  0  0  0  0  0  0
    2.3550    3.7370    4.8862 C   0  0  0  0  0  0  0  0  0  0  0  0
    2.6854    3.8664    6.2491 O   0  0  0  0  0  0  0  0  0  0  0  0
    3.2560    4.0524    3.9020 C   0  0  0  0  0  0  0  0  0  0  0  0
    2.9010    3.9138    2.5637 C   0  0  0  0  0  0  0  0  0  0  0  0
    2.8888    1.6528    0.2019 N   0  0  0  0  0  0  0  0  0  0  0  0
    3.5773    0.5893    0.7799 C   0  0  0  0  0  0  0  0  0  0  0  0
    4.4474    0.8266    1.7246 O   0  0  0  0  0  0  0  0  0  0  0  0
    3.4747   -0.8553    0.4771 C   0  0  2  0  0  0  0  0  0  0  0  0
    4.8079   -1.4885    0.1897 C   0  0  0  0  0  0  0  0  0  0  0  0
    5.5721   -0.9910   -0.9284 C   0  0  0  0  0  0  0  0  0  0  0  0
    6.5259   -0.0004   -0.8020 C   0  0  0  0  0  0  0  0  0  0  0  0
    7.2453    0.4664   -1.8876 C   0  0  0  0  0  0  0  0  0  0  0  0
    7.0448   -0.0331   -3.1393 C   0  0  0  0  0  0  0  0  0  0  0  0
    7.7699    0.4388   -4.2286 O   0  0  0  0  0  0  0  0  0  0  0  0
    6.0861   -1.0332   -3.2823 C   0  0  0  0  0  0  0  0  0  0  0  0
    5.3780   -1.4895   -2.2012 C   0  0  0  0  0  0  0  0  0  0  0  0
    2.5931   -1.2158   -0.5854 N   0  0  0  0  0  0  0  0  0  0  0  0
    1.7545   -2.3106   -0.7406 C   0  0  0  0  0  0  0  0  0  0  0  0
    1.9331   -3.0313   -1.8005 O   0  0  0  0  0  0  0  0  0  0  0  0
   -0.9267   -5.2562    0.8764 H   0  0  0  0  0  0  0  0  0  0  0  0
    0.2247   -5.4699    2.2344 H   0  0  0  0  0  0  0  0  0  0  0  0
   -0.6730   -3.9367    2.1333 H   0  0  0  0  0  0  0  0  0  0  0  0
    1.0957   -4.9121   -0.1533 H   0  0  0  0  0  0  0  0  0  0  0  0
    2.2738   -5.1500    2.1444 H   0  0  0  0  0  0  0  0  0  0  0  0
    2.1539   -3.3235    2.2895 H   0  0  0  0  0  0  0  0  0  0  0  0
    3.0794   -4.1065    0.9709 H   0  0  0  0  0  0  0  0  0  0  0  0
    0.3652   -2.1237    0.9367 H   0  0  0  0  0  0  0  0  0  0  0  0
   -0.3861   -3.8394   -1.3807 H   0  0  0  0  0  0  0  0  0  0  0  0
   -2.0461   -2.1392    1.3309 H   0  0  0  0  0  0  0  0  0  0  0  0
   -4.0264   -0.5142    1.1086 H   0  0  0  0  0  0  0  0  0  0  0  0
   -4.0853   -0.9632   -0.5921 H   0  0  0  0  0  0  0  0  0  0  0  0
   -4.7438   -2.7421    1.8777 H   0  0  0  0  0  0  0  0  0  0  0  0
   -5.8057   -1.9592    0.7246 H   0  0  0  0  0  0  0  0  0  0  0  0
   -5.9860   -4.1991    0.3403 H   0  0  0  0  0  0  0  0  0  0  0  0
   -5.2075   -3.5639   -1.0986 H   0  0  0  0  0  0  0  0  0  0  0  0
   -4.4388   -5.7717   -0.3118 H   0  0  0  0  0  0  0  0  0  0  0  0
   -2.9911   -4.7031   -0.2060 H   0  0  0  0  0  0  0  0  0  0  0  0
   -3.3396   -4.3861    2.0082 H   0  0  0  0  0  0  0  0  0  0  0  0
   -4.8782   -5.0556    1.9464 H   0  0  0  0  0  0  0  0  0  0  0  0
   -1.1646   -0.1180    1.5763 H   0  0  0  0  0  0  0  0  0  0  0  0
   -0.8744    0.0995   -1.8912 H   0  0  0  0  0  0  0  0  0  0  0  0
   -3.0936    0.4033   -2.4854 H   0  0  0  0  0  0  0  0  0  0  0  0
   -2.0049    1.2008   -3.6032 H   0  0  0  0  0  0  0  0  0  0  0  0
   -2.0803    3.6935   -3.9790 H   0  0  0  0  0  0  0  0  0  0  0  0
   -3.8744    5.5214   -3.5406 H   0  0  0  0  0  0  0  0  0  0  0  0
   -6.1285    5.7322   -2.0001 H   0  0  0  0  0  0  0  0  0  0  0  0
   -7.5672    4.4920   -0.3779 H   0  0  0  0  0  0  0  0  0  0  0  0
   -6.9717    2.2743    0.2686 H   0  0  0  0  0  0  0  0  0  0  0  0
   -4.9177    1.1812   -0.6620 H   0  0  0  0  0  0  0  0  0  0  0  0
   -0.6544    2.9750   -2.2603 H   0  0  0  0  0  0  0  0  0  0  0  0
    0.8868    1.2462    0.7895 H   0  0  0  0  0  0  0  0  0  0  0  0
    0.2522    3.6732    0.5724 H   0  0  0  0  0  0  0  0  0  0  0  0
    1.9197    4.0127    0.1193 H   0  0  0  0  0  0  0  0  0  0  0  0
   -0.2159    2.7974    2.9260 H   0  0  0  0  0  0  0  0  0  0  0  0
    0.3963    3.0373    5.3128 H   0  0  0  0  0  0  0  0  0  0  0  0
    2.5181    4.7275    6.7549 H   0  0  0  0  0  0  0  0  0  0  0  0
    4.2346    4.4063    4.1870 H   0  0  0  0  0  0  0  0  0  0  0  0
    3.6669    4.1825    1.8412 H   0  0  0  0  0  0  0  0  0  0  0  0
    3.4936    2.3766   -0.2994 H   0  0  0  0  0  0  0  0  0  0  0  0
    3.0784   -1.3021    1.4185 H   0  0  0  0  0  0  0  0  0  0  0  0
    4.6786   -2.5832    0.0738 H   0  0  0  0  0  0  0  0  0  0  0  0
    5.4160   -1.3748    1.1362 H   0  0  0  0  0  0  0  0  0  0  0  0
    6.7432    0.4298    0.1487 H   0  0  0  0  0  0  0  0  0  0  0  0
    7.9972    1.2531   -1.7662 H   0  0  0  0  0  0  0  0  0  0  0  0
    7.3883    1.2252   -4.7501 H   0  0  0  0  0  0  0  0  0  0  0  0
    5.9384   -1.4193   -4.2773 H   0  0  0  0  0  0  0  0  0  0  0  0
    4.6508   -2.2582   -2.3378 H   0  0  0  0  0  0  0  0  0  0  0  0
    2.5839   -0.5288   -1.4185 H   0  0  0  0  0  0  0  0  0  0  0  0
  1  2  1  0
  2  3  1  0
  2  4  1  0
  4  5  1  0
  5  6  1  0
  6  7  2  0
  6  8  1  0
  8  9  1  0
  9 10  1  0
 10 11  1  0
 11 12  1  0
 12 13  1  0
  8 14  1  0
 14 15  1  0
 15 16  2  0
 15 17  1  0
 17 18  1  0
 18 19  1  0
 19 20  2  0
 20 21  1  0
 21 22  1  0
 22 23  2  0
 23 24  1  0
 24 25  2  0
 25 26  1  0
 26 27  2  0
 17 28  1  0
 28 29  1  0
 29 30  2  0
 29 31  1  0
 31 32  1  0
 32 33  1  0
 33 34  2  0
 34 35  1  0
 35 36  2  0
 36 37  1  0
 36 38  1  0
 38 39  2  0
 31 40  1  0
 40 41  1  0
 41 42  2  0
 41 43  1  0
 43 44  1  0
 44 45  1  0
 45 46  2  0
 46 47  1  0
 47 48  2  0
 48 49  1  0
 48 50  1  0
 50 51  2  0
 43 52  1  0
 52 53  1  0
 53 54  2  0
 53  4  1  0
 27 19  1  0
 39 33  1  0
 51 45  1  0
 27 22  1  0
  1 55  1  0
  1 56  1  0
  1 57  1  0
  2 58  1  0
  3 59  1  0
  3 60  1  0
  3 61  1  0
  4 62  1  1
  5 63  1  0
  8 64  1  1
  9 65  1  0
  9 66  1  0
 10 67  1  0
 10 68  1  0
 11 69  1  0
 11 70  1  0
 12 71  1  0
 12 72  1  0
 13 73  1  0
 13 74  1  0
 14 75  1  0
 17 76  1  6
 18 77  1  0
 18 78  1  0
 20 79  1  0
 21 80  1  0
 23 81  1  0
 24 82  1  0
 25 83  1  0
 26 84  1  0
 28 85  1  0
 31 86  1  1
 32 87  1  0
 32 88  1  0
 34 89  1  0
 35 90  1  0
 37 91  1  0
 38 92  1  0
 39 93  1  0
 40 94  1  0
 43 95  1  1
 44 96  1  0
 44 97  1  0
 46 98  1  0
 47 99  1  0
 49100  1  0
 50101  1  0
 51102  1  0
 52103  1  0
M  END
$$$$
[H]/C(=C(/[H])c1c([H])c(Cl)c([H])c(Cl)c1[H])c1c([H])c([H])c(N2C([H])([H])C([H])([H])N(S(=O)(=O)C([H])(C([H])([H])[H])C([H])([H])[H])C([H])([H])C2([H])[H])c([H])c1[H]
     RDKit          3D

 52 54  0  0  0  0  0  0  0  0999 V2000
   -7.0820   -1.2488    0.7090 C   0  0  0  0  0  0  0  0  0  0  0  0
   -6.7376   -0.4532   -0.5146 C   0  0  0  0  0  0  0  0  0  0  0  0
   -8.0323    0.2230   -0.9861 C   0  0  0  0  0  0  0  0  0  0  0  0
   -5.5794    0.8445   -0.1998 S   0  0  0  0  0  0  0  0  0  0  0  0
   -6.0623    1.6058    1.0019 O   0  0  0  0  0  0  0  0  0  0  0  0
   -5.5603    1.7627   -1.3827 O   0  0  0  0  0  0  0  0  0  0  0  0
   -4.0100    0.2395    0.1713 N   0  0  0  0  0  0  0  0  0  0  0  0
   -3.4356   -0.5172   -0.8956 C   0  0  0  0  0  0  0  0  0  0  0  0
   -2.0715   -0.0248   -1.3230 C   0  0  0  0  0  0  0  0  0  0  0  0
   -1.2190    0.3108   -0.2203 N   0  0  0  0  0  0  0  0  0  0  0  0
   -1.8116    0.8112    1.0027 C   0  0  0  0  0  0  0  0  0  0  0  0
   -3.2051    1.3298    0.6220 C   0  0  0  0  0  0  0  0  0  0  0  0
    0.1956    0.1714   -0.2920 C   0  0  0  0  0  0  0  0  0  0  0  0
    0.9897    0.4016    0.8121 C   0  0  0  0  0  0  0  0  0  0  0  0
    2.3740    0.2798    0.7798 C   0  0  0  0  0  0  0  0  0  0  0  0
    3.0121   -0.0814   -0.3757 C   0  0  0  0  0  0  0  0  0  0  0  0
    4.4653   -0.2282   -0.4813 C   0  0  0  0  0  0  0  0  0  0  0  0
    5.3024   -0.0345    0.4985 C   0  0  0  0  0  0  0  0  0  0  0  0
    6.7393   -0.1858    0.3713 C   0  0  0  0  0  0  0  0  0  0  0  0
    7.5586    0.0449    1.4828 C   0  0  0  0  0  0  0  0  0  0  0  0
    8.9285   -0.0776    1.4420 C   0  0  0  0  0  0  0  0  0  0  0  0
    9.9283    0.2174    2.8492 Cl  0  0  0  0  0  0  0  0  0  0  0  0
    9.5612   -0.4418    0.2733 C   0  0  0  0  0  0  0  0  0  0  0  0
    8.7921   -0.6777   -0.8423 C   0  0  0  0  0  0  0  0  0  0  0  0
    9.5748   -1.1439   -2.3469 Cl  0  0  0  0  0  0  0  0  0  0  0  0
    7.3994   -0.5479   -0.7809 C   0  0  0  0  0  0  0  0  0  0  0  0
    2.2265   -0.3141   -1.4861 C   0  0  0  0  0  0  0  0  0  0  0  0
    0.8539   -0.1915   -1.4477 C   0  0  0  0  0  0  0  0  0  0  0  0
   -6.8469   -2.3417    0.5681 H   0  0  0  0  0  0  0  0  0  0  0  0
   -6.5040   -0.8953    1.5803 H   0  0  0  0  0  0  0  0  0  0  0  0
   -8.1726   -1.1907    0.9736 H   0  0  0  0  0  0  0  0  0  0  0  0
   -6.4244   -1.0918   -1.3787 H   0  0  0  0  0  0  0  0  0  0  0  0
   -8.4874    0.8200   -0.1768 H   0  0  0  0  0  0  0  0  0  0  0  0
   -7.6993    0.9266   -1.8028 H   0  0  0  0  0  0  0  0  0  0  0  0
   -8.7304   -0.4858   -1.4366 H   0  0  0  0  0  0  0  0  0  0  0  0
   -3.3104   -1.5703   -0.5207 H   0  0  0  0  0  0  0  0  0  0  0  0
   -4.0799   -0.5766   -1.7783 H   0  0  0  0  0  0  0  0  0  0  0  0
   -1.6023   -0.9154   -1.8385 H   0  0  0  0  0  0  0  0  0  0  0  0
   -2.1254    0.7598   -2.1023 H   0  0  0  0  0  0  0  0  0  0  0  0
   -1.9254    0.0073    1.7383 H   0  0  0  0  0  0  0  0  0  0  0  0
   -1.2213    1.6872    1.3996 H   0  0  0  0  0  0  0  0  0  0  0  0
   -3.6441    1.7168    1.5625 H   0  0  0  0  0  0  0  0  0  0  0  0
   -3.0564    2.1221   -0.1251 H   0  0  0  0  0  0  0  0  0  0  0  0
    0.5034    0.6911    1.7525 H   0  0  0  0  0  0  0  0  0  0  0  0
    2.9253    0.4775    1.6875 H   0  0  0  0  0  0  0  0  0  0  0  0
    4.8772   -0.5189   -1.4424 H   0  0  0  0  0  0  0  0  0  0  0  0
    4.9065    0.2546    1.4593 H   0  0  0  0  0  0  0  0  0  0  0  0
    7.0719    0.3352    2.4198 H   0  0  0  0  0  0  0  0  0  0  0  0
   10.6314   -0.5546    0.1776 H   0  0  0  0  0  0  0  0  0  0  0  0
    6.8339   -0.7400   -1.6708 H   0  0  0  0  0  0  0  0  0  0  0  0
    2.7043   -0.6059   -2.4309 H   0  0  0  0  0  0  0  0  0  0  0  0
    0.2812   -0.3850   -2.3514 H   0  0  0  0  0  0  0  0  0  0  0  0
  1  2  1  0
  2  3  1  0
  2  4  1  0
  4  5  2  0
  4  6  2  0
  4  7  1  0
  7  8  1  0
  8  9  1  0
  9 10  1  0
 10 11  1  0
 11 12  1  0
 10 13  1  0
 13 14  2  0
 14 15  1  0
 15 16  2  0
 16 17  1  0
 17 18  2  0
 18 19  1  0
 19 20  2  0
 20 21  1  0
 21 22  1  0
 21 23  2  0
 23 24  1  0
 24 25  1  0
 24 26  2  0
 16 27  1  0
 27 28  2  0
 12  7  1  0
 28 13  1  0
 26 19  1  0
  1 29  1  0
  1 30  1  0
  1 31  1  0
  2 32  1  0
  3 33  1  0
  3 34  1  0
  3 35  1  0
  8 36  1  0
  8 37  1  0
  9 38  1  0
  9 39  1  0
 11 40  1  0
 11 41  1  0
 12 42  1  0
 12 43  1  0
 14 44  1  0
 15 45  1  0
 17 46  1  0
 18 47  1  0
 20 48  1  0
 23 49  1  0
 26 50  1  0
 27 51  1  0
 28 52  1  0
M  END
$$$$
[H]ON([H])C(=O)C([H])([H])N(C([H])([H])c1c([H])c([H])c([N+](=O)[O-])c([H])c1[H])S(=O)(=O)c1c([H])c([H])c(N([H])C(=O)N([H])S(=O)(=O)c2c([H])c([H])c([H])c([H])c2[H])c([H])c1[H]
     RDKit          3D

 59 61  0  0  0  0  0  0  0  0999 V2000
   -4.8800    3.2393   -3.9328 O   0  0  0  0  0  0  0  0  0  0  0  0
   -4.1991    3.0403   -2.7998 N   0  0  0  0  0  0  0  0  0  0  0  0
   -4.2594    1.8273   -2.0698 C   0  0  0  0  0  0  0  0  0  0  0  0
   -4.9793    0.8914   -2.4940 O   0  0  0  0  0  0  0  0  0  0  0  0
   -3.4837    1.6620   -0.8209 C   0  0  0  0  0  0  0  0  0  0  0  0
   -3.7157    0.3609   -0.2858 N   0  0  0  0  0  0  0  0  0  0  0  0
   -4.0789    0.3136    1.0900 C   0  0  0  0  0  0  0  0  0  0  0  0
   -5.2848   -0.5392    1.2344 C   0  0  0  0  0  0  0  0  0  0  0  0
   -5.2346   -1.7756    1.8402 C   0  0  0  0  0  0  0  0  0  0  0  0
   -6.3360   -2.5855    1.9803 C   0  0  0  0  0  0  0  0  0  0  0  0
   -7.5626   -2.1497    1.4934 C   0  0  0  0  0  0  0  0  0  0  0  0
   -7.6247   -0.9264    0.8914 C   0  0  0  0  0  0  0  0  0  0  0  0
   -6.5211   -0.1166    0.7517 C   0  0  0  0  0  0  0  0  0  0  0  0
   -8.7345   -2.9591    1.6165 N   0  0  0  0  0  0  0  0  0  0  0  0
   -8.7073   -4.1841    2.2162 O   0  0  0  0  0  0  0  0  0  0  0  0
   -9.7927   -2.5249    1.1630 O   0  0  0  0  0  0  0  0  0  0  0  0
   -2.6207   -0.8264   -0.8120 S   0  0  0  0  0  0  0  0  0  0  0  0
   -2.7108   -0.8871   -2.3325 O   0  0  0  0  0  0  0  0  0  0  0  0
   -2.9707   -2.1863   -0.3269 O   0  0  0  0  0  0  0  0  0  0  0  0
   -0.9620   -0.4628   -0.3444 C   0  0  0  0  0  0  0  0  0  0  0  0
   -0.1299    0.2669   -1.1564 C   0  0  0  0  0  0  0  0  0  0  0  0
    1.1885    0.5451   -0.7661 C   0  0  0  0  0  0  0  0  0  0  0  0
    1.7163    0.1138    0.4257 C   0  0  0  0  0  0  0  0  0  0  0  0
    3.0287    0.3357    0.8803 N   0  0  0  0  0  0  0  0  0  0  0  0
    4.1188    0.8651    0.1735 C   0  0  0  0  0  0  0  0  0  0  0  0
    4.0578    1.2228   -1.0136 O   0  0  0  0  0  0  0  0  0  0  0  0
    5.4069    1.0288    0.8012 N   0  0  0  0  0  0  0  0  0  0  0  0
    6.7568    1.6749   -0.0440 S   0  0  0  0  0  0  0  0  0  0  0  0
    6.3507    2.0460   -1.4597 O   0  0  0  0  0  0  0  0  0  0  0  0
    7.2606    2.9547    0.5878 O   0  0  0  0  0  0  0  0  0  0  0  0
    8.1043    0.5608   -0.0973 C   0  0  0  0  0  0  0  0  0  0  0  0
    8.2278   -0.3442   -1.1292 C   0  0  0  0  0  0  0  0  0  0  0  0
    9.2984   -1.2227   -1.1658 C   0  0  0  0  0  0  0  0  0  0  0  0
   10.2726   -1.2350   -0.1926 C   0  0  0  0  0  0  0  0  0  0  0  0
   10.1453   -0.3250    0.8417 C   0  0  0  0  0  0  0  0  0  0  0  0
    9.0766    0.5522    0.8787 C   0  0  0  0  0  0  0  0  0  0  0  0
    0.8363   -0.6299    1.2312 C   0  0  0  0  0  0  0  0  0  0  0  0
   -0.4570   -0.9071    0.8569 C   0  0  0  0  0  0  0  0  0  0  0  0
   -5.6314    2.5850   -4.0168 H   0  0  0  0  0  0  0  0  0  0  0  0
   -3.6013    3.8393   -2.4623 H   0  0  0  0  0  0  0  0  0  0  0  0
   -2.4018    1.7189   -1.1255 H   0  0  0  0  0  0  0  0  0  0  0  0
   -3.6683    2.4767   -0.0908 H   0  0  0  0  0  0  0  0  0  0  0  0
   -4.3843    1.3448    1.4182 H   0  0  0  0  0  0  0  0  0  0  0  0
   -3.2640   -0.0615    1.7415 H   0  0  0  0  0  0  0  0  0  0  0  0
   -4.2943   -2.1510    2.2370 H   0  0  0  0  0  0  0  0  0  0  0  0
   -6.3126   -3.5530    2.4506 H   0  0  0  0  0  0  0  0  0  0  0  0
   -8.5590   -0.5177    0.4832 H   0  0  0  0  0  0  0  0  0  0  0  0
   -6.5347    0.8501    0.2838 H   0  0  0  0  0  0  0  0  0  0  0  0
   -0.4982    0.6227   -2.0926 H   0  0  0  0  0  0  0  0  0  0  0  0
    1.8133    1.1340   -1.4367 H   0  0  0  0  0  0  0  0  0  0  0  0
    3.2179    0.0672    1.9039 H   0  0  0  0  0  0  0  0  0  0  0  0
    5.5339    0.7505    1.7955 H   0  0  0  0  0  0  0  0  0  0  0  0
    7.5108   -0.4074   -1.9367 H   0  0  0  0  0  0  0  0  0  0  0  0
    9.3793   -1.9306   -1.9890 H   0  0  0  0  0  0  0  0  0  0  0  0
   11.1201   -1.9205   -0.2094 H   0  0  0  0  0  0  0  0  0  0  0  0
   10.9165   -0.3418    1.6036 H   0  0  0  0  0  0  0  0  0  0  0  0
    8.9801    1.2550    1.6796 H   0  0  0  0  0  0  0  0  0  0  0  0
    1.2082   -0.9901    2.1763 H   0  0  0  0  0  0  0  0  0  0  0  0
   -1.1312   -1.4842    1.4882 H   0  0  0  0  0  0  0  0  0  0  0  0
  1  2  1  0
  2  3  1  0
  3  4  2  0
  3  5  1  0
  5  6  1  0
  6  7  1  0
  7  8  1  0
  8  9  2  0
  9 10  1  0
 10 11  2  0
 11 12  1  0
 12 13  2  0
 11 14  1  0
 14 15  1  0
 14 16  2  0
  6 17  1  0
 17 18  2  0
 17 19  2  0
 17 20  1  0
 20 21  2  0
 21 22  1  0
 22 23  2  0
 23 24  1  0
 24 25  1  0
 25 26  2  0
 25 27  1  0
 27 28  1  0
 28 29  2  0
 28 30  2  0
 28 31  1  0
 31 32  2  0
 32 33  1  0
 33 34  2  0
 34 35  1  0
 35 36  2  0
 23 37  1  0
 37 38  2  0
 13  8  1  0
 38 20  1  0
 36 31  1  0
  1 39  1  0
  2 40  1  0
  5 41  1  0
  5 42  1  0
  7 43  1  0
  7 44  1  0
  9 45  1  0
 10 46  1  0
 12 47  1  0
 13 48  1  0
 21 49  1  0
 22 50  1  0
 24 51  1  0
 27 52  1  0
 32 53  1  0
 33 54  1  0
 34 55  1  0
 35 56  1  0
 36 57  1  0
 37 58  1  0
 38 59  1  0
M  CHG  2  14   1  15  -1
M  END
$$$$
[H]c1nc2c([H])c(OC([H])([H])C([H])([H])C([H])([H])N3C([H])([H])C([H])([H])N(C([H])([H])[H])C([H])([H])C3([H])[H])c(OC([H])([H])[H])c([H])c2c(N([H])c2c([H])c(OC([H])([H])[H])c(Cl)c([H])c2Cl)c1C#N
     RDKit          3D

 65 68  0  0  0  0  0  0  0  0999 V2000
   -5.2946    0.1799   -2.9709 C   0  0  0  0  0  0  0  0  0  0  0  0
   -6.0951   -0.9158   -2.5530 O   0  0  0  0  0  0  0  0  0  0  0  0
   -6.1608   -1.1576   -1.1778 C   0  0  0  0  0  0  0  0  0  0  0  0
   -5.4971   -0.3938   -0.2509 C   0  0  0  0  0  0  0  0  0  0  0  0
   -5.5371   -0.6002    1.1107 C   0  0  0  0  0  0  0  0  0  0  0  0
   -4.8166    0.2382    2.0340 N   0  0  0  0  0  0  0  0  0  0  0  0
   -4.0248    1.3195    1.6049 C   0  0  0  0  0  0  0  0  0  0  0  0
   -4.6352    2.5531    1.4917 C   0  0  0  0  0  0  0  0  0  0  0  0
   -3.8290    3.6094    1.0643 C   0  0  0  0  0  0  0  0  0  0  0  0
   -2.5270    3.4300    0.7791 N   0  0  0  0  0  0  0  0  0  0  0  0
   -1.9535    2.2186    0.8968 C   0  0  0  0  0  0  0  0  0  0  0  0
   -0.6053    1.9975    0.6091 C   0  0  0  0  0  0  0  0  0  0  0  0
   -0.0254    0.7512    0.7328 C   0  0  0  0  0  0  0  0  0  0  0  0
    1.3282    0.5594    0.4376 O   0  0  0  0  0  0  0  0  0  0  0  0
    2.1607    1.6065    0.0051 C   0  0  0  0  0  0  0  0  0  0  0  0
    3.5417    1.0243   -0.2125 C   0  0  0  0  0  0  0  0  0  0  0  0
    3.4226   -0.0554   -1.2622 C   0  0  0  0  0  0  0  0  0  0  0  0
    4.6627   -0.6900   -1.5641 N   0  0  0  0  0  0  0  0  0  0  0  0
    5.1982   -1.4923   -0.4904 C   0  0  0  0  0  0  0  0  0  0  0  0
    6.5388   -0.9813   -0.0123 C   0  0  0  0  0  0  0  0  0  0  0  0
    7.5161   -0.9508   -1.0794 N   0  0  0  0  0  0  0  0  0  0  0  0
    8.4297    0.1509   -0.7994 C   0  0  0  0  0  0  0  0  0  0  0  0
    6.9128   -0.6710   -2.3660 C   0  0  0  0  0  0  0  0  0  0  0  0
    5.6339    0.1418   -2.1961 C   0  0  0  0  0  0  0  0  0  0  0  0
   -0.7837   -0.3247    1.1524 C   0  0  0  0  0  0  0  0  0  0  0  0
   -0.1660   -1.5451    1.2609 O   0  0  0  0  0  0  0  0  0  0  0  0
   -0.8182   -2.7273    1.6769 C   0  0  0  0  0  0  0  0  0  0  0  0
   -2.1295   -0.1321    1.4455 C   0  0  0  0  0  0  0  0  0  0  0  0
   -2.6832    1.1246    1.3132 C   0  0  0  0  0  0  0  0  0  0  0  0
   -6.0331    2.7467    1.7978 C   0  0  0  0  0  0  0  0  0  0  0  0
   -7.1560    2.8867    2.0549 N   0  0  0  0  0  0  0  0  0  0  0  0
   -6.3055   -1.6561    1.5519 C   0  0  0  0  0  0  0  0  0  0  0  0
   -6.4410   -2.0259    3.2478 Cl  0  0  0  0  0  0  0  0  0  0  0  0
   -7.0004   -2.4646    0.6587 C   0  0  0  0  0  0  0  0  0  0  0  0
   -6.9278   -2.2166   -0.6919 C   0  0  0  0  0  0  0  0  0  0  0  0
   -7.7733   -3.1886   -1.8765 Cl  0  0  0  0  0  0  0  0  0  0  0  0
   -5.4136    0.3597   -4.0746 H   0  0  0  0  0  0  0  0  0  0  0  0
   -4.2180   -0.0377   -2.8166 H   0  0  0  0  0  0  0  0  0  0  0  0
   -5.5182    1.1093   -2.4102 H   0  0  0  0  0  0  0  0  0  0  0  0
   -4.8824    0.4495   -0.5886 H   0  0  0  0  0  0  0  0  0  0  0  0
   -4.9019    0.0142    3.0487 H   0  0  0  0  0  0  0  0  0  0  0  0
   -4.3295    4.5717    0.9823 H   0  0  0  0  0  0  0  0  0  0  0  0
   -0.0170    2.8280    0.2846 H   0  0  0  0  0  0  0  0  0  0  0  0
    1.7778    1.9385   -1.0008 H   0  0  0  0  0  0  0  0  0  0  0  0
    2.1821    2.4558    0.7154 H   0  0  0  0  0  0  0  0  0  0  0  0
    4.2210    1.8377   -0.5139 H   0  0  0  0  0  0  0  0  0  0  0  0
    3.9285    0.6049    0.7361 H   0  0  0  0  0  0  0  0  0  0  0  0
    2.9821    0.3266   -2.1992 H   0  0  0  0  0  0  0  0  0  0  0  0
    2.7315   -0.8214   -0.8541 H   0  0  0  0  0  0  0  0  0  0  0  0
    5.2338   -2.5366   -0.8312 H   0  0  0  0  0  0  0  0  0  0  0  0
    4.5037   -1.4099    0.3697 H   0  0  0  0  0  0  0  0  0  0  0  0
    6.3881   -0.0055    0.4627 H   0  0  0  0  0  0  0  0  0  0  0  0
    6.9097   -1.6815    0.7631 H   0  0  0  0  0  0  0  0  0  0  0  0
    7.9186    0.8915   -0.1786 H   0  0  0  0  0  0  0  0  0  0  0  0
    9.2446   -0.2873   -0.1540 H   0  0  0  0  0  0  0  0  0  0  0  0
    8.8635    0.5756   -1.7319 H   0  0  0  0  0  0  0  0  0  0  0  0
    7.6268   -0.0558   -2.9818 H   0  0  0  0  0  0  0  0  0  0  0  0
    6.6852   -1.5665   -2.9435 H   0  0  0  0  0  0  0  0  0  0  0  0
    5.9066    1.0433   -1.6186 H   0  0  0  0  0  0  0  0  0  0  0  0
    5.2600    0.4179   -3.1952 H   0  0  0  0  0  0  0  0  0  0  0  0
   -1.6281   -3.0342    0.9852 H   0  0  0  0  0  0  0  0  0  0  0  0
   -0.0534   -3.5288    1.7326 H   0  0  0  0  0  0  0  0  0  0  0  0
   -1.1857   -2.5572    2.7031 H   0  0  0  0  0  0  0  0  0  0  0  0
   -2.7370   -0.9576    1.7739 H   0  0  0  0  0  0  0  0  0  0  0  0
   -7.6050   -3.2933    0.9881 H   0  0  0  0  0  0  0  0  0  0  0  0
  1  2  1  0
  2  3  1  0
  3  4  2  0
  4  5  1  0
  5  6  1  0
  6  7  1  0
  7  8  2  0
  8  9  1  0
  9 10  2  0
 10 11  1  0
 11 12  2  0
 12 13  1  0
 13 14  1  0
 14 15  1  0
 15 16  1  0
 16 17  1  0
 17 18  1  0
 18 19  1  0
 19 20  1  0
 20 21  1  0
 21 22  1  0
 21 23  1  0
 23 24  1  0
 13 25  2  0
 25 26  1  0
 26 27  1  0
 25 28  1  0
 28 29  2  0
  8 30  1  0
 30 31  3  0
  5 32  2  0
 32 33  1  0
 32 34  1  0
 34 35  2  0
 35 36  1  0
 35  3  1  0
 29  7  1  0
 29 11  1  0
 24 18  1  0
  1 37  1  0
  1 38  1  0
  1 39  1  0
  4 40  1  0
  6 41  1  0
  9 42  1  0
 12 43  1  0
 15 44  1  0
 15 45  1  0
 16 46  1  0
 16 47  1  0
 17 48  1  0
 17 49  1  0
 19 50  1  0
 19 51  1  0
 20 52  1  0
 20 53  1  0
 22 54  1  0
 22 55  1  0
 22 56  1  0
 23 57  1  0
 23 58  1  0
 24 59  1  0
 24 60  1  0
 27 61  1  0
 27 62  1  0
 27 63  1  0
 28 64  1  0
 34 65  1  0
M  END
$$$$
[H]c1c([H])c([H])c2c(C3=C(c4c([H])n([H])c5c(C([H])([H])[H])c([H])c([H])c([H])c45)C(=O)N([H])C3=O)nc(N3C([H])([H])C([H])([H])N(C([H])([H])[H])C([H])([H])C3([H])[H])nc2c1[H]
     RDKit          3D

 58 63  0  0  0  0  0  0  0  0999 V2000
   -5.8869   -2.8033   -2.2106 C   0  0  0  0  0  0  0  0  0  0  0  0
   -4.5120   -2.5821   -1.8096 N   0  0  0  0  0  0  0  0  0  0  0  0
   -3.8260   -1.6508   -2.6472 C   0  0  0  0  0  0  0  0  0  0  0  0
   -2.5226   -1.2456   -1.9766 C   0  0  0  0  0  0  0  0  0  0  0  0
   -2.8890   -0.5223   -0.7827 N   0  0  0  0  0  0  0  0  0  0  0  0
   -4.1124   -0.8853   -0.1114 C   0  0  0  0  0  0  0  0  0  0  0  0
   -4.3734   -2.3620   -0.3994 C   0  0  0  0  0  0  0  0  0  0  0  0
   -2.0472    0.5038   -0.3148 C   0  0  0  0  0  0  0  0  0  0  0  0
   -0.8862    0.8412   -0.8935 N   0  0  0  0  0  0  0  0  0  0  0  0
   -0.0680    1.7983   -0.4880 C   0  0  0  0  0  0  0  0  0  0  0  0
    1.1965    2.1268   -1.1419 C   0  0  0  0  0  0  0  0  0  0  0  0
    2.2684    1.3713   -1.2003 C   0  0  0  0  0  0  0  0  0  0  0  0
    3.2760    2.1388   -1.9704 C   0  0  0  0  0  0  0  0  0  0  0  0
    4.4481    1.7388   -2.2394 O   0  0  0  0  0  0  0  0  0  0  0  0
    2.7455    3.3818   -2.3655 N   0  0  0  0  0  0  0  0  0  0  0  0
    1.4279    3.3978   -1.8535 C   0  0  0  0  0  0  0  0  0  0  0  0
    0.6030    4.3662   -2.0024 O   0  0  0  0  0  0  0  0  0  0  0  0
    2.4955    0.0188   -0.6725 C   0  0  0  0  0  0  0  0  0  0  0  0
    1.8357   -1.1621   -0.8408 C   0  0  0  0  0  0  0  0  0  0  0  0
    2.4022   -2.1439   -0.1129 N   0  0  0  0  0  0  0  0  0  0  0  0
    3.4473   -1.6203    0.5470 C   0  0  0  0  0  0  0  0  0  0  0  0
    4.3271   -2.2204    1.4128 C   0  0  0  0  0  0  0  0  0  0  0  0
    4.2464   -3.6715    1.7724 C   0  0  0  0  0  0  0  0  0  0  0  0
    5.3458   -1.5011    2.0024 C   0  0  0  0  0  0  0  0  0  0  0  0
    5.4291   -0.1640    1.6777 C   0  0  0  0  0  0  0  0  0  0  0  0
    4.5409    0.4415    0.8036 C   0  0  0  0  0  0  0  0  0  0  0  0
    3.5307   -0.2822    0.2211 C   0  0  0  0  0  0  0  0  0  0  0  0
   -0.4212    2.5382    0.6444 C   0  0  0  0  0  0  0  0  0  0  0  0
    0.3825    3.5431    1.1495 C   0  0  0  0  0  0  0  0  0  0  0  0
   -0.0364    4.2154    2.2828 C   0  0  0  0  0  0  0  0  0  0  0  0
   -1.2235    3.8895    2.8905 C   0  0  0  0  0  0  0  0  0  0  0  0
   -2.0446    2.8919    2.4118 C   0  0  0  0  0  0  0  0  0  0  0  0
   -1.6218    2.2199    1.2763 C   0  0  0  0  0  0  0  0  0  0  0  0
   -2.3812    1.2296    0.7824 N   0  0  0  0  0  0  0  0  0  0  0  0
   -6.5743   -2.7726   -1.3163 H   0  0  0  0  0  0  0  0  0  0  0  0
   -5.9652   -3.8263   -2.6160 H   0  0  0  0  0  0  0  0  0  0  0  0
   -6.2069   -2.1033   -2.9861 H   0  0  0  0  0  0  0  0  0  0  0  0
   -3.5855   -2.1121   -3.6079 H   0  0  0  0  0  0  0  0  0  0  0  0
   -4.4098   -0.7298   -2.8560 H   0  0  0  0  0  0  0  0  0  0  0  0
   -1.9893   -2.1737   -1.6992 H   0  0  0  0  0  0  0  0  0  0  0  0
   -1.8816   -0.6476   -2.6625 H   0  0  0  0  0  0  0  0  0  0  0  0
   -4.0076   -0.7358    0.9758 H   0  0  0  0  0  0  0  0  0  0  0  0
   -4.9965   -0.3421   -0.4639 H   0  0  0  0  0  0  0  0  0  0  0  0
   -5.2448   -2.7365    0.1515 H   0  0  0  0  0  0  0  0  0  0  0  0
   -3.4732   -2.8957   -0.0023 H   0  0  0  0  0  0  0  0  0  0  0  0
    3.1925    4.1555   -2.9181 H   0  0  0  0  0  0  0  0  0  0  0  0
    0.9817   -1.3484   -1.4681 H   0  0  0  0  0  0  0  0  0  0  0  0
    2.0691   -3.1540   -0.0761 H   0  0  0  0  0  0  0  0  0  0  0  0
    4.8279   -4.3032    1.0807 H   0  0  0  0  0  0  0  0  0  0  0  0
    3.2000   -4.0250    1.7691 H   0  0  0  0  0  0  0  0  0  0  0  0
    4.6345   -3.8206    2.8007 H   0  0  0  0  0  0  0  0  0  0  0  0
    6.0524   -1.9659    2.6928 H   0  0  0  0  0  0  0  0  0  0  0  0
    6.2377    0.3973    2.1487 H   0  0  0  0  0  0  0  0  0  0  0  0
    4.6330    1.4822    0.5828 H   0  0  0  0  0  0  0  0  0  0  0  0
    1.3342    3.7877    0.6778 H   0  0  0  0  0  0  0  0  0  0  0  0
    0.5981    4.9968    2.6663 H   0  0  0  0  0  0  0  0  0  0  0  0
   -1.5448    4.4218    3.7782 H   0  0  0  0  0  0  0  0  0  0  0  0
   -2.9774    2.6157    2.8658 H   0  0  0  0  0  0  0  0  0  0  0  0
  1  2  1  0
  2  3  1  0
  3  4  1  0
  4  5  1  0
  5  6  1  0
  6  7  1  0
  5  8  1  0
  8  9  2  0
  9 10  1  0
 10 11  1  0
 11 12  2  0
 12 13  1  0
 13 14  2  0
 13 15  1  0
 15 16  1  0
 16 17  2  0
 12 18  1  0
 18 19  2  0
 19 20  1  0
 20 21  1  0
 21 22  2  0
 22 23  1  0
 22 24  1  0
 24 25  2  0
 25 26  1  0
 26 27  2  0
 10 28  2  0
 28 29  1  0
 29 30  2  0
 30 31  1  0
 31 32  2  0
 32 33  1  0
 33 34  2  0
  7  2  1  0
 34  8  1  0
 16 11  1  0
 27 18  1  0
 33 28  1  0
 27 21  1  0
  1 35  1  0
  1 36  1  0
  1 37  1  0
  3 38  1  0
  3 39  1  0
  4 40  1  0
  4 41  1  0
  6 42  1  0
  6 43  1  0
  7 44  1  0
  7 45  1  0
 15 46  1  0
 19 47  1  0
 20 48  1  0
 23 49  1  0
 23 50  1  0
 23 51  1  0
 24 52  1  0
 25 53  1  0
 26 54  1  0
 29 55  1  0
 30 56  1  0
 31 57  1  0
 32 58  1  0
M  END
$$$$
[H]c1c([H])c(N([H])C(=O)c2c(C([H])([H])[H])c(C(=O)C(=O)N([H])C3(c4nnn([H])c4[H])C([H])([H])C3([H])[H])c3n2C([H])([H])C([H])([H])C3([H])[H])c([H])c(C(F)(F)F)c1F
     RDKit          3D

 56 60  0  0  0  0  0  0  0  0999 V2000
   -0.0880    1.4856    0.2557 C   0  0  0  0  0  0  0  0  0  0  0  0
   -0.1760    0.0285   -0.0215 C   0  0  0  0  0  0  0  0  0  0  0  0
    0.8708   -0.8452   -0.0800 C   0  0  0  0  0  0  0  0  0  0  0  0
    2.2824   -0.7248   -0.1156 C   0  0  0  0  0  0  0  0  0  0  0  0
    2.9381   -1.8649   -0.0878 O   0  0  0  0  0  0  0  0  0  0  0  0
    3.1557    0.4178   -0.1851 C   0  0  0  0  0  0  0  0  0  0  0  0
    2.8182    1.6142   -0.2366 O   0  0  0  0  0  0  0  0  0  0  0  0
    4.5915    0.1652   -0.1989 N   0  0  0  0  0  0  0  0  0  0  0  0
    5.5612    1.1825   -0.2674 C   0  0  0  0  0  0  0  0  0  0  0  0
    5.6025    2.2366    0.7841 C   0  0  0  0  0  0  0  0  0  0  0  0
    5.3400    2.5752   -0.7174 C   0  0  0  0  0  0  0  0  0  0  0  0
    6.9270    0.6418   -0.6454 C   0  0  0  0  0  0  0  0  0  0  0  0
    7.6093   -0.3205    0.0264 C   0  0  0  0  0  0  0  0  0  0  0  0
    8.7836   -0.5220   -0.6235 N   0  0  0  0  0  0  0  0  0  0  0  0
    8.7962    0.3001   -1.6548 N   0  0  0  0  0  0  0  0  0  0  0  0
    7.6636    1.0251   -1.6867 N   0  0  0  0  0  0  0  0  0  0  0  0
    0.2292   -2.1042   -0.2384 C   0  0  0  0  0  0  0  0  0  0  0  0
    0.5271   -3.5541   -0.3850 C   0  0  0  0  0  0  0  0  0  0  0  0
   -0.7170   -4.1664    0.2047 C   0  0  0  0  0  0  0  0  0  0  0  0
   -1.7529   -3.2356   -0.4489 C   0  0  0  0  0  0  0  0  0  0  0  0
   -1.1026   -1.9276   -0.2702 N   0  0  0  0  0  0  0  0  0  0  0  0
   -1.4097   -0.6521   -0.1463 C   0  0  0  0  0  0  0  0  0  0  0  0
   -2.6875    0.0499   -0.2454 C   0  0  0  0  0  0  0  0  0  0  0  0
   -2.6903    1.1928   -0.8269 O   0  0  0  0  0  0  0  0  0  0  0  0
   -3.8434   -0.5307    0.2876 N   0  0  0  0  0  0  0  0  0  0  0  0
   -5.1113    0.0666    0.2398 C   0  0  0  0  0  0  0  0  0  0  0  0
   -6.2312   -0.7163    0.5716 C   0  0  0  0  0  0  0  0  0  0  0  0
   -7.5132   -0.2264    0.5720 C   0  0  0  0  0  0  0  0  0  0  0  0
   -7.7831    1.0790    0.2423 C   0  0  0  0  0  0  0  0  0  0  0  0
   -9.0486    1.5736    0.2425 F   0  0  0  0  0  0  0  0  0  0  0  0
   -6.7060    1.8614   -0.0847 C   0  0  0  0  0  0  0  0  0  0  0  0
   -5.3852    1.3618   -0.0855 C   0  0  0  0  0  0  0  0  0  0  0  0
   -6.9200    3.2908   -0.4531 C   0  0  0  0  0  0  0  0  0  0  0  0
   -7.7585    3.2716   -1.5734 F   0  0  0  0  0  0  0  0  0  0  0  0
   -7.4521    3.9596    0.6047 F   0  0  0  0  0  0  0  0  0  0  0  0
   -5.7146    3.8575   -0.8385 F   0  0  0  0  0  0  0  0  0  0  0  0
    0.5992    1.6408    1.1373 H   0  0  0  0  0  0  0  0  0  0  0  0
    0.1524    2.1104   -0.5928 H   0  0  0  0  0  0  0  0  0  0  0  0
   -1.0903    1.8296    0.6602 H   0  0  0  0  0  0  0  0  0  0  0  0
    4.8481   -0.8631   -0.1561 H   0  0  0  0  0  0  0  0  0  0  0  0
    4.7653    2.4036    1.4832 H   0  0  0  0  0  0  0  0  0  0  0  0
    6.5648    2.5898    1.1674 H   0  0  0  0  0  0  0  0  0  0  0  0
    4.3810    3.0664   -0.8790 H   0  0  0  0  0  0  0  0  0  0  0  0
    6.2306    3.1001   -1.2138 H   0  0  0  0  0  0  0  0  0  0  0  0
    7.3251   -0.8754    0.9299 H   0  0  0  0  0  0  0  0  0  0  0  0
    9.5330   -1.2114   -0.3454 H   0  0  0  0  0  0  0  0  0  0  0  0
    1.4445   -3.8601    0.1239 H   0  0  0  0  0  0  0  0  0  0  0  0
    0.5073   -3.7788   -1.4692 H   0  0  0  0  0  0  0  0  0  0  0  0
   -0.8574   -5.2167   -0.1038 H   0  0  0  0  0  0  0  0  0  0  0  0
   -0.7365   -3.9856    1.2848 H   0  0  0  0  0  0  0  0  0  0  0  0
   -1.7558   -3.4352   -1.5452 H   0  0  0  0  0  0  0  0  0  0  0  0
   -2.7135   -3.3275    0.0362 H   0  0  0  0  0  0  0  0  0  0  0  0
   -3.7881   -1.4790    0.7839 H   0  0  0  0  0  0  0  0  0  0  0  0
   -6.0592   -1.7448    0.8349 H   0  0  0  0  0  0  0  0  0  0  0  0
   -8.3583   -0.8660    0.8344 H   0  0  0  0  0  0  0  0  0  0  0  0
   -4.5975    2.0565   -0.3382 H   0  0  0  0  0  0  0  0  0  0  0  0
  1  2  1  0
  2  3  1  0
  3  4  1  0
  4  5  2  0
  4  6  1  0
  6  7  2  0
  6  8  1  0
  8  9  1  0
  9 10  1  0
 10 11  1  0
  9 12  1  0
 12 13  2  0
 13 14  1  0
 14 15  1  0
 15 16  2  0
  3 17  2  0
 17 18  1  0
 18 19  1  0
 19 20  1  0
 20 21  1  0
 21 22  1  0
 22 23  1  0
 23 24  2  0
 23 25  1  0
 25 26  1  0
 26 27  2  0
 27 28  1  0
 28 29  2  0
 29 30  1  0
 29 31  1  0
 31 32  2  0
 31 33  1  0
 33 34  1  0
 33 35  1  0
 33 36  1  0
 22  2  2  0
 32 26  1  0
 11  9  1  0
 16 12  1  0
 21 17  1  0
  1 37  1  0
  1 38  1  0
  1 39  1  0
  8 40  1  0
 10 41  1  0
 10 42  1  0
 11 43  1  0
 11 44  1  0
 13 45  1  0
 14 46  1  0
 18 47  1  0
 18 48  1  0
 19 49  1  0
 19 50  1  0
 20 51  1  0
 20 52  1  0
 25 53  1  0
 27 54  1  0
 28 55  1  0
 32 56  1  0
M  END
$$$$
[H]c1nn2c(C#Cc3c([H])c(C(=O)N([H])c4c([H])c([H])c(C([H])([H])N5C([H])([H])C([H])([H])N(C([H])([H])[H])C([H])([H])C5([H])[H])c(C(F)(F)F)c4[H])c([H])c([H])c3C([H])([H])[H])c([H])nc2c([H])c1[H]
     RDKit          3D

 66 70  0  0  0  0  0  0  0  0999 V2000
   -9.0141    0.5418    1.2184 C   0  0  0  0  0  0  0  0  0  0  0  0
   -8.8477   -0.5373    0.2497 N   0  0  0  0  0  0  0  0  0  0  0  0
   -8.5827    0.0899   -1.0334 C   0  0  0  0  0  0  0  0  0  0  0  0
   -7.2552    0.7645   -0.9438 C   0  0  0  0  0  0  0  0  0  0  0  0
   -6.2118   -0.1531   -0.5341 N   0  0  0  0  0  0  0  0  0  0  0  0
   -5.0784    0.5515   -0.2211 C   0  0  0  0  0  0  0  0  0  0  0  0
   -3.8319    0.0140    0.2644 C   0  0  0  0  0  0  0  0  0  0  0  0
   -3.5518   -0.6040    1.4571 C   0  0  0  0  0  0  0  0  0  0  0  0
   -2.2394   -0.9318    1.8952 C   0  0  0  0  0  0  0  0  0  0  0  0
   -1.2224   -0.6514    1.1434 C   0  0  0  0  0  0  0  0  0  0  0  0
    0.1776   -0.9147    1.0432 N   0  0  0  0  0  0  0  0  0  0  0  0
    0.9252    0.3673    0.9712 C   0  0  0  0  0  0  0  0  0  0  0  0
    0.3900    1.4501    1.2745 O   0  0  0  0  0  0  0  0  0  0  0  0
    2.2559    0.2272    0.4429 C   0  0  0  0  0  0  0  0  0  0  0  0
    2.2723    0.7699   -0.8934 C   0  0  0  0  0  0  0  0  0  0  0  0
    3.3216    0.5540   -1.7049 C   0  0  0  0  0  0  0  0  0  0  0  0
    4.3564   -0.1799   -1.2160 C   0  0  0  0  0  0  0  0  0  0  0  0
    5.4628   -0.6335   -2.1215 C   0  0  0  0  0  0  0  0  0  0  0  0
    4.3807   -0.7203    0.0965 C   0  0  0  0  0  0  0  0  0  0  0  0
    3.2907   -0.4872    0.8836 C   0  0  0  0  0  0  0  0  0  0  0  0
    5.6656   -1.1744    0.4682 C   0  0  0  0  0  0  0  0  0  0  0  0
    6.8054   -1.3674    0.6644 C   0  0  0  0  0  0  0  0  0  0  0  0
    8.2411   -1.2901    0.7197 C   0  0  0  0  0  0  0  0  0  0  0  0
    9.2492   -2.1485    0.6677 C   0  0  0  0  0  0  0  0  0  0  0  0
   10.4396   -1.4267    0.6587 N   0  0  0  0  0  0  0  0  0  0  0  0
   10.1682   -0.1244    0.7099 C   0  0  0  0  0  0  0  0  0  0  0  0
   10.9607    1.0611    0.7342 C   0  0  0  0  0  0  0  0  0  0  0  0
   10.3443    2.2758    0.7914 C   0  0  0  0  0  0  0  0  0  0  0  0
    8.9568    2.3238    0.8309 C   0  0  0  0  0  0  0  0  0  0  0  0
    8.2433    1.1733    0.8123 N   0  0  0  0  0  0  0  0  0  0  0  0
    8.8461   -0.0136    0.7488 N   0  0  0  0  0  0  0  0  0  0  0  0
   -1.4856    0.0127   -0.1275 C   0  0  0  0  0  0  0  0  0  0  0  0
   -2.7267    0.3329   -0.5464 C   0  0  0  0  0  0  0  0  0  0  0  0
   -2.8951    0.8514   -1.9142 C   0  0  0  0  0  0  0  0  0  0  0  0
   -3.4853    1.9980   -2.1589 F   0  0  0  0  0  0  0  0  0  0  0  0
   -1.5739    0.9910   -2.4785 F   0  0  0  0  0  0  0  0  0  0  0  0
   -3.4174   -0.1983   -2.7307 F   0  0  0  0  0  0  0  0  0  0  0  0
   -6.5996   -1.4045   -0.2114 C   0  0  0  0  0  0  0  0  0  0  0  0
   -7.8275   -1.3914    0.7322 C   0  0  0  0  0  0  0  0  0  0  0  0
   -8.9944    1.5421    0.7561 H   0  0  0  0  0  0  0  0  0  0  0  0
   -9.9404    0.4070    1.7763 H   0  0  0  0  0  0  0  0  0  0  0  0
   -8.1456    0.5266    1.9416 H   0  0  0  0  0  0  0  0  0  0  0  0
   -9.3429    0.9146   -1.1504 H   0  0  0  0  0  0  0  0  0  0  0  0
   -8.5824   -0.5940   -1.8738 H   0  0  0  0  0  0  0  0  0  0  0  0
   -6.9842    1.2855   -1.8653 H   0  0  0  0  0  0  0  0  0  0  0  0
   -7.3084    1.6045   -0.1677 H   0  0  0  0  0  0  0  0  0  0  0  0
   -5.0019    1.5750   -0.6965 H   0  0  0  0  0  0  0  0  0  0  0  0
   -5.4877    1.0414    0.8917 H   0  0  0  0  0  0  0  0  0  0  0  0
   -4.3664   -0.8563    2.1240 H   0  0  0  0  0  0  0  0  0  0  0  0
   -2.1533   -1.4176    2.8772 H   0  0  0  0  0  0  0  0  0  0  0  0
    0.5883   -1.7873    1.0131 H   0  0  0  0  0  0  0  0  0  0  0  0
    1.4249    1.3704   -1.1553 H   0  0  0  0  0  0  0  0  0  0  0  0
    3.3639    1.0029   -2.6930 H   0  0  0  0  0  0  0  0  0  0  0  0
    5.7303   -1.7156   -1.7572 H   0  0  0  0  0  0  0  0  0  0  0  0
    6.3688   -0.0484   -1.9681 H   0  0  0  0  0  0  0  0  0  0  0  0
    5.1536   -0.7782   -3.1765 H   0  0  0  0  0  0  0  0  0  0  0  0
    3.3252   -0.8897    1.9055 H   0  0  0  0  0  0  0  0  0  0  0  0
    9.0998   -3.2243    0.6154 H   0  0  0  0  0  0  0  0  0  0  0  0
   12.0368    1.0199    0.6456 H   0  0  0  0  0  0  0  0  0  0  0  0
   10.9167    3.2214    0.8053 H   0  0  0  0  0  0  0  0  0  0  0  0
    8.3858    3.2423    0.8728 H   0  0  0  0  0  0  0  0  0  0  0  0
   -0.6206    0.2114   -0.7285 H   0  0  0  0  0  0  0  0  0  0  0  0
   -5.8347   -2.0618    0.3018 H   0  0  0  0  0  0  0  0  0  0  0  0
   -6.9602   -2.0806   -1.0664 H   0  0  0  0  0  0  0  0  0  0  0  0
   -8.1424   -2.4295    0.8356 H   0  0  0  0  0  0  0  0  0  0  0  0
   -7.4357   -1.0792    1.7405 H   0  0  0  0  0  0  0  0  0  0  0  0
  1  2  1  0
  2  3  1  0
  3  4  1  0
  4  5  1  0
  5  6  1  0
  6  7  1  0
  7  8  2  0
  8  9  1  0
  9 10  2  0
 10 11  1  0
 11 12  1  0
 12 13  2  0
 12 14  1  0
 14 15  2  0
 15 16  1  0
 16 17  2  0
 17 18  1  0
 17 19  1  0
 19 20  2  0
 19 21  1  0
 21 22  3  0
 22 23  1  0
 23 24  2  0
 24 25  1  0
 25 26  2  0
 26 27  1  0
 27 28  2  0
 28 29  1  0
 29 30  2  0
 30 31  1  0
 10 32  1  0
 32 33  2  0
 33 34  1  0
 34 35  1  0
 34 36  1  0
 34 37  1  0
  5 38  1  0
 38 39  1  0
 39  2  1  0
 33  7  1  0
 20 14  1  0
 31 23  1  0
 31 26  1  0
  1 40  1  0
  1 41  1  0
  1 42  1  0
  3 43  1  0
  3 44  1  0
  4 45  1  0
  4 46  1  0
  6 47  1  0
  6 48  1  0
  8 49  1  0
  9 50  1  0
 11 51  1  0
 15 52  1  0
 16 53  1  0
 18 54  1  0
 18 55  1  0
 18 56  1  0
 20 57  1  0
 24 58  1  0
 27 59  1  0
 28 60  1  0
 29 61  1  0
 32 62  1  0
 38 63  1  0
 38 64  1  0
 39 65  1  0
 39 66  1  0
M  END
$$$$
[H]c1nc(OC([H])([H])[H])c(N([H])S(=O)(=O)C([H])([H])[H])c([H])c1-c1c([H])c(OC([H])([H])[H])c2nc(-c3c(C([H])([H])[H])nn(C([H])([H])[H])c3C([H])([H])[H])n([H])c2c1[H]
     RDKit          3D

 56 59  0  0  0  0  0  0  0  0999 V2000
    6.5515   -3.5850    1.6902 C   0  0  0  0  0  0  0  0  0  0  0  0
    6.3392   -2.2493    1.2577 O   0  0  0  0  0  0  0  0  0  0  0  0
    5.0532   -1.7884    0.9370 C   0  0  0  0  0  0  0  0  0  0  0  0
    3.9845   -2.5986    1.0302 N   0  0  0  0  0  0  0  0  0  0  0  0
    2.7568   -2.1523    0.7222 C   0  0  0  0  0  0  0  0  0  0  0  0
    2.5516   -0.8543    0.3019 C   0  0  0  0  0  0  0  0  0  0  0  0
    3.6558   -0.0331    0.2104 C   0  0  0  0  0  0  0  0  0  0  0  0
    4.9307   -0.4789    0.5250 C   0  0  0  0  0  0  0  0  0  0  0  0
    6.0641    0.3502    0.4348 N   0  0  0  0  0  0  0  0  0  0  0  0
    5.9289    2.0032   -0.0447 S   0  0  0  0  0  0  0  0  0  0  0  0
    4.9205    2.8997    1.1094 C   0  0  0  0  0  0  0  0  0  0  0  0
    5.3128    2.0642   -1.4124 O   0  0  0  0  0  0  0  0  0  0  0  0
    7.2893    2.6308   -0.1526 O   0  0  0  0  0  0  0  0  0  0  0  0
    1.1959   -0.4358   -0.0158 C   0  0  0  0  0  0  0  0  0  0  0  0
    0.9732    0.5290   -0.9934 C   0  0  0  0  0  0  0  0  0  0  0  0
   -0.3095    0.9218   -1.2910 C   0  0  0  0  0  0  0  0  0  0  0  0
   -0.5114    1.8781   -2.2616 O   0  0  0  0  0  0  0  0  0  0  0  0
    0.6034    2.4306   -2.9261 C   0  0  0  0  0  0  0  0  0  0  0  0
   -1.4112    0.3892   -0.6481 C   0  0  0  0  0  0  0  0  0  0  0  0
   -2.7355    0.5624   -0.7157 N   0  0  0  0  0  0  0  0  0  0  0  0
   -3.3896   -0.2426    0.1706 C   0  0  0  0  0  0  0  0  0  0  0  0
   -2.4074   -0.9180    0.7855 N   0  0  0  0  0  0  0  0  0  0  0  0
   -1.1899   -0.5581    0.3115 C   0  0  0  0  0  0  0  0  0  0  0  0
    0.0986   -0.9588    0.6167 C   0  0  0  0  0  0  0  0  0  0  0  0
   -4.8342   -0.2946    0.3456 C   0  0  0  0  0  0  0  0  0  0  0  0
   -5.5245   -1.0905    1.2251 C   0  0  0  0  0  0  0  0  0  0  0  0
   -5.0113   -2.0804    2.2042 C   0  0  0  0  0  0  0  0  0  0  0  0
   -6.8438   -0.7847    1.0198 N   0  0  0  0  0  0  0  0  0  0  0  0
   -6.9653    0.1258    0.0900 N   0  0  0  0  0  0  0  0  0  0  0  0
   -8.2056    0.7206   -0.4205 C   0  0  0  0  0  0  0  0  0  0  0  0
   -5.7526    0.4744   -0.3715 C   0  0  0  0  0  0  0  0  0  0  0  0
   -5.3767    1.4478   -1.4078 C   0  0  0  0  0  0  0  0  0  0  0  0
    7.4113   -3.6167    2.4026 H   0  0  0  0  0  0  0  0  0  0  0  0
    5.6212   -3.9304    2.1981 H   0  0  0  0  0  0  0  0  0  0  0  0
    6.7519   -4.2163    0.7938 H   0  0  0  0  0  0  0  0  0  0  0  0
    1.8864   -2.8170    0.7996 H   0  0  0  0  0  0  0  0  0  0  0  0
    3.5185    0.9815   -0.1154 H   0  0  0  0  0  0  0  0  0  0  0  0
    6.9988   -0.0248    0.6567 H   0  0  0  0  0  0  0  0  0  0  0  0
    4.6818    2.2656    1.9919 H   0  0  0  0  0  0  0  0  0  0  0  0
    5.4885    3.7780    1.4656 H   0  0  0  0  0  0  0  0  0  0  0  0
    4.0124    3.2423    0.6050 H   0  0  0  0  0  0  0  0  0  0  0  0
    1.8408    0.9392   -1.4902 H   0  0  0  0  0  0  0  0  0  0  0  0
    1.1249    1.6210   -3.4721 H   0  0  0  0  0  0  0  0  0  0  0  0
    1.2431    2.9072   -2.1555 H   0  0  0  0  0  0  0  0  0  0  0  0
    0.2833    3.1784   -3.6911 H   0  0  0  0  0  0  0  0  0  0  0  0
   -2.5223   -1.6293    1.5298 H   0  0  0  0  0  0  0  0  0  0  0  0
    0.2460   -1.7139    1.3840 H   0  0  0  0  0  0  0  0  0  0  0  0
   -4.4084   -1.5908    2.9989 H   0  0  0  0  0  0  0  0  0  0  0  0
   -5.8974   -2.5018    2.7582 H   0  0  0  0  0  0  0  0  0  0  0  0
   -4.5090   -2.9456    1.7294 H   0  0  0  0  0  0  0  0  0  0  0  0
   -9.0504    0.0207   -0.2281 H   0  0  0  0  0  0  0  0  0  0  0  0
   -8.0731    0.8218   -1.5167 H   0  0  0  0  0  0  0  0  0  0  0  0
   -8.3605    1.7033    0.0347 H   0  0  0  0  0  0  0  0  0  0  0  0
   -4.6962    2.2321   -1.0130 H   0  0  0  0  0  0  0  0  0  0  0  0
   -6.3209    1.9932   -1.6960 H   0  0  0  0  0  0  0  0  0  0  0  0
   -5.0118    0.9779   -2.3360 H   0  0  0  0  0  0  0  0  0  0  0  0
  1  2  1  0
  2  3  1  0
  3  4  2  0
  4  5  1  0
  5  6  2  0
  6  7  1  0
  7  8  2  0
  8  9  1  0
  9 10  1  0
 10 11  1  0
 10 12  2  0
 10 13  2  0
  6 14  1  0
 14 15  2  0
 15 16  1  0
 16 17  1  0
 17 18  1  0
 16 19  2  0
 19 20  1  0
 20 21  2  0
 21 22  1  0
 22 23  1  0
 23 24  2  0
 21 25  1  0
 25 26  1  0
 26 27  1  0
 26 28  2  0
 28 29  1  0
 29 30  1  0
 29 31  1  0
 31 32  1  0
  8  3  1  0
 24 14  1  0
 31 25  2  0
 23 19  1  0
  1 33  1  0
  1 34  1  0
  1 35  1  0
  5 36  1  0
  7 37  1  0
  9 38  1  0
 11 39  1  0
 11 40  1  0
 11 41  1  0
 15 42  1  0
 18 43  1  0
 18 44  1  0
 18 45  1  0
 22 46  1  0
 24 47  1  0
 27 48  1  0
 27 49  1  0
 27 50  1  0
 30 51  1  0
 30 52  1  0
 30 53  1  0
 32 54  1  0
 32 55  1  0
 32 56  1  0
M  END
$$$$
[H]c1c([H])c([H])c(C2=NC([H])([H])c3nnc(C([H])([H])[H])n3-c3c([H])c([H])c(Cl)c([H])c32)c(Cl)c1[H]
     RDKit          3D

 35 38  0  0  0  0  0  0  0  0999 V2000
    4.0307   -0.4201   -1.0699 C   0  0  0  0  0  0  0  0  0  0  0  0
    3.3908   -0.6986    0.2265 C   0  0  0  0  0  0  0  0  0  0  0  0
    3.8234   -1.5595    1.2051 N   0  0  0  0  0  0  0  0  0  0  0  0
    2.9220   -1.5902    2.2053 N   0  0  0  0  0  0  0  0  0  0  0  0
    1.9207   -0.7864    1.9220 C   0  0  0  0  0  0  0  0  0  0  0  0
    0.6545   -0.5063    2.7022 C   0  0  0  0  0  0  0  0  0  0  0  0
   -0.5327   -0.7346    1.8842 N   0  0  0  0  0  0  0  0  0  0  0  0
   -0.8154   -0.2721    0.6850 C   0  0  0  0  0  0  0  0  0  0  0  0
   -2.0557   -0.6352    0.0515 C   0  0  0  0  0  0  0  0  0  0  0  0
   -2.4940   -0.4144   -1.2021 C   0  0  0  0  0  0  0  0  0  0  0  0
   -3.7527   -0.7521   -1.6290 C   0  0  0  0  0  0  0  0  0  0  0  0
   -4.6570   -1.3579   -0.7604 C   0  0  0  0  0  0  0  0  0  0  0  0
   -4.2220   -1.5944    0.5302 C   0  0  0  0  0  0  0  0  0  0  0  0
   -2.9726   -1.2503    0.9298 C   0  0  0  0  0  0  0  0  0  0  0  0
   -2.5165   -1.5994    2.6099 Cl  0  0  0  0  0  0  0  0  0  0  0  0
    0.0468    0.6933    0.0256 C   0  0  0  0  0  0  0  0  0  0  0  0
   -0.6131    1.6975   -0.6222 C   0  0  0  0  0  0  0  0  0  0  0  0
    0.0995    2.6784   -1.2750 C   0  0  0  0  0  0  0  0  0  0  0  0
   -0.8060    3.9409   -2.1091 Cl  0  0  0  0  0  0  0  0  0  0  0  0
    1.4992    2.6628   -1.2785 C   0  0  0  0  0  0  0  0  0  0  0  0
    2.2088    1.6488   -0.6171 C   0  0  0  0  0  0  0  0  0  0  0  0
    1.4424    0.7122    0.0016 C   0  0  0  0  0  0  0  0  0  0  0  0
    2.2412   -0.2436    0.6879 N   0  0  0  0  0  0  0  0  0  0  0  0
    4.9499    0.1755   -1.0577 H   0  0  0  0  0  0  0  0  0  0  0  0
    3.3460   -0.2503   -1.9241 H   0  0  0  0  0  0  0  0  0  0  0  0
    4.4545   -1.4385   -1.3788 H   0  0  0  0  0  0  0  0  0  0  0  0
    0.6141   -1.1647    3.5610 H   0  0  0  0  0  0  0  0  0  0  0  0
    0.6815    0.5736    2.9336 H   0  0  0  0  0  0  0  0  0  0  0  0
   -1.8259   -0.0091   -1.9274 H   0  0  0  0  0  0  0  0  0  0  0  0
   -4.1133   -0.5775   -2.6295 H   0  0  0  0  0  0  0  0  0  0  0  0
   -5.6518   -1.6428   -1.0394 H   0  0  0  0  0  0  0  0  0  0  0  0
   -4.9071   -2.0718    1.2437 H   0  0  0  0  0  0  0  0  0  0  0  0
   -1.6955    1.7158   -0.5471 H   0  0  0  0  0  0  0  0  0  0  0  0
    2.0489    3.4174   -1.7815 H   0  0  0  0  0  0  0  0  0  0  0  0
    3.2565    1.6536   -0.5560 H   0  0  0  0  0  0  0  0  0  0  0  0
  1  2  1  0
  2  3  2  0
  3  4  1  0
  4  5  2  0
  5  6  1  0
  6  7  1  0
  7  8  2  0
  8  9  1  0
  9 10  2  0
 10 11  1  0
 11 12  2  0
 12 13  1  0
 13 14  2  0
 14 15  1  0
  8 16  1  0
 16 17  2  0
 17 18  1  0
 18 19  1  0
 18 20  2  0
 20 21  1  0
 21 22  2  0
 22 23  1  0
 23  2  1  0
 23  5  1  0
 14  9  1  0
 22 16  1  0
  1 24  1  0
  1 25  1  0
  1 26  1  0
  6 27  1  0
  6 28  1  0
 10 29  1  0
 11 30  1  0
 12 31  1  0
 13 32  1  0
 17 33  1  0
 20 34  1  0
 21 35  1  0
M  END
$$$$
[H]OC(=O)[C@@]([H])(N([H])C(=O)/C([H])=C(\[H])c1c([H])c([H])c(-c2c([H])c([H])c([H])c(OC([H])([H])[H])c2[H])c([H])c1[H])C([H])([H])c1c([H])c([H])c([H])c([H])c1[H]
     RDKit          3D

 53 55  0  0  0  0  0  0  0  0999 V2000
    9.8900    1.6288   -0.6213 C   0  0  0  0  0  0  0  0  0  0  0  0
    8.4824    1.7283   -0.5607 O   0  0  0  0  0  0  0  0  0  0  0  0
    7.7585    0.6014   -0.2037 C   0  0  0  0  0  0  0  0  0  0  0  0
    8.4035   -0.5830    0.0833 C   0  0  0  0  0  0  0  0  0  0  0  0
    7.6721   -1.6979    0.4375 C   0  0  0  0  0  0  0  0  0  0  0  0
    6.2784   -1.6211    0.5039 C   0  0  0  0  0  0  0  0  0  0  0  0
    5.6083   -0.4502    0.2221 C   0  0  0  0  0  0  0  0  0  0  0  0
    6.3617    0.6497   -0.1294 C   0  0  0  0  0  0  0  0  0  0  0  0
    4.1596   -0.3141    0.2764 C   0  0  0  0  0  0  0  0  0  0  0  0
    3.3602   -1.3919   -0.0296 C   0  0  0  0  0  0  0  0  0  0  0  0
    1.9865   -1.3062    0.0093 C   0  0  0  0  0  0  0  0  0  0  0  0
    1.3367   -0.1339    0.3576 C   0  0  0  0  0  0  0  0  0  0  0  0
   -0.1081   -0.1106    0.3799 C   0  0  0  0  0  0  0  0  0  0  0  0
   -0.7638    0.9773    0.7032 C   0  0  0  0  0  0  0  0  0  0  0  0
   -2.1966    1.0119    0.7287 C   0  0  0  0  0  0  0  0  0  0  0  0
   -2.7725    2.1059    1.0529 O   0  0  0  0  0  0  0  0  0  0  0  0
   -3.0112   -0.0814    0.4198 N   0  0  0  0  0  0  0  0  0  0  0  0
   -4.4813    0.0508    0.4746 C   0  0  1  0  0  0  0  0  0  0  0  0
   -5.0442   -0.1247   -0.9075 C   0  0  0  0  0  0  0  0  0  0  0  0
   -6.5044   -0.0214   -1.0240 C   0  0  0  0  0  0  0  0  0  0  0  0
   -7.0881    1.2338   -1.1809 C   0  0  0  0  0  0  0  0  0  0  0  0
   -8.4481    1.4042   -1.3260 C   0  0  0  0  0  0  0  0  0  0  0  0
   -9.2953    0.3170   -1.3210 C   0  0  0  0  0  0  0  0  0  0  0  0
   -8.7413   -0.9393   -1.1668 C   0  0  0  0  0  0  0  0  0  0  0  0
   -7.3777   -1.0893   -1.0229 C   0  0  0  0  0  0  0  0  0  0  0  0
   -5.0363   -0.8272    1.5070 C   0  0  0  0  0  0  0  0  0  0  0  0
   -6.3882   -0.8046    1.7882 O   0  0  0  0  0  0  0  0  0  0  0  0
   -4.3224   -1.6308    2.1817 O   0  0  0  0  0  0  0  0  0  0  0  0
    2.1054    0.9458    0.6644 C   0  0  0  0  0  0  0  0  0  0  0  0
    3.5100    0.8458    0.6211 C   0  0  0  0  0  0  0  0  0  0  0  0
   10.3620    2.5831   -0.9372 H   0  0  0  0  0  0  0  0  0  0  0  0
   10.2493    1.3454    0.3902 H   0  0  0  0  0  0  0  0  0  0  0  0
   10.1360    0.7945   -1.2995 H   0  0  0  0  0  0  0  0  0  0  0  0
    9.4968   -0.6184    0.0245 H   0  0  0  0  0  0  0  0  0  0  0  0
    8.1931   -2.6241    0.6608 H   0  0  0  0  0  0  0  0  0  0  0  0
    5.6970   -2.4810    0.7783 H   0  0  0  0  0  0  0  0  0  0  0  0
    5.8857    1.6058   -0.3640 H   0  0  0  0  0  0  0  0  0  0  0  0
    3.8510   -2.3308   -0.3083 H   0  0  0  0  0  0  0  0  0  0  0  0
    1.3714   -2.1591   -0.2328 H   0  0  0  0  0  0  0  0  0  0  0  0
   -0.6603   -1.0412    0.1153 H   0  0  0  0  0  0  0  0  0  0  0  0
   -0.2085    1.8926    0.9632 H   0  0  0  0  0  0  0  0  0  0  0  0
   -2.5939   -0.9907    0.1510 H   0  0  0  0  0  0  0  0  0  0  0  0
   -4.6889    1.0934    0.7878 H   0  0  0  0  0  0  0  0  0  0  0  0
   -4.6330    0.6808   -1.5902 H   0  0  0  0  0  0  0  0  0  0  0  0
   -4.6802   -1.0949   -1.3406 H   0  0  0  0  0  0  0  0  0  0  0  0
   -6.4004    2.0878   -1.1821 H   0  0  0  0  0  0  0  0  0  0  0  0
   -8.8913    2.3806   -1.4469 H   0  0  0  0  0  0  0  0  0  0  0  0
  -10.3734    0.4325   -1.4346 H   0  0  0  0  0  0  0  0  0  0  0  0
   -9.4282   -1.7853   -1.1656 H   0  0  0  0  0  0  0  0  0  0  0  0
   -6.9589   -2.0842   -0.9027 H   0  0  0  0  0  0  0  0  0  0  0  0
   -6.8388   -1.6790    2.0218 H   0  0  0  0  0  0  0  0  0  0  0  0
    1.6681    1.9022    0.9478 H   0  0  0  0  0  0  0  0  0  0  0  0
    4.1114    1.7166    0.8688 H   0  0  0  0  0  0  0  0  0  0  0  0
  1  2  1  0
  2  3  1  0
  3  4  2  0
  4  5  1  0
  5  6  2  0
  6  7  1  0
  7  8  2  0
  7  9  1  0
  9 10  2  0
 10 11  1  0
 11 12  2  0
 12 13  1  0
 13 14  2  0
 14 15  1  0
 15 16  2  0
 15 17  1  0
 17 18  1  0
 18 19  1  0
 19 20  1  0
 20 21  2  0
 21 22  1  0
 22 23  2  0
 23 24  1  0
 24 25  2  0
 18 26  1  0
 26 27  1  0
 26 28  2  0
 12 29  1  0
 29 30  2  0
  8  3  1  0
 30  9  1  0
 25 20  1  0
  1 31  1  0
  1 32  1  0
  1 33  1  0
  4 34  1  0
  5 35  1  0
  6 36  1  0
  8 37  1  0
 10 38  1  0
 11 39  1  0
 13 40  1  0
 14 41  1  0
 17 42  1  0
 18 43  1  1
 19 44  1  0
 19 45  1  0
 21 46  1  0
 22 47  1  0
 23 48  1  0
 24 49  1  0
 25 50  1  0
 27 51  1  0
 29 52  1  0
 30 53  1  0
M  END
$$$$
[H]Oc1c([H])c([H])c(C([H])([H])[C@@]([H])(C(=O)N([H])[H])N([H])C(=O)[C@@]([H])(N([H])C(=O)[C@@]([H])(N([H])C(=O)c2c([H])c([H])c([H])c(-c3c([H])c([H])c([H])c([H])c3[H])c2[H])[C@]([H])(O[H])C([H])([H])[H])C([H])([H])c2c([H])c([H])c([H])c([H])c2[H])c([H])c1[H]
     RDKit          3D

 81 84  0  0  0  0  0  0  0  0999 V2000
    2.6116   -2.9006   -1.3591 C   0  0  0  0  0  0  0  0  0  0  0  0
    2.0240   -1.5264   -1.7044 C   0  0  1  0  0  0  0  0  0  0  0  0
    1.0516   -1.6342   -2.6371 O   0  0  0  0  0  0  0  0  0  0  0  0
    1.7252   -0.7263   -0.4597 C   0  0  2  0  0  0  0  0  0  0  0  0
    2.7984   -0.6669    0.4204 N   0  0  0  0  0  0  0  0  0  0  0  0
    3.8460   -0.6109    1.2799 C   0  0  0  0  0  0  0  0  0  0  0  0
    4.3237   -1.5748    1.9634 O   0  0  0  0  0  0  0  0  0  0  0  0
    4.6112    0.6430    1.5405 C   0  0  0  0  0  0  0  0  0  0  0  0
    4.0987    1.7091    2.2132 C   0  0  0  0  0  0  0  0  0  0  0  0
    4.8759    2.8176    2.4305 C   0  0  0  0  0  0  0  0  0  0  0  0
    6.1965    2.8748    1.9694 C   0  0  0  0  0  0  0  0  0  0  0  0
    6.7325    1.7900    1.2766 C   0  0  0  0  0  0  0  0  0  0  0  0
    5.9176    0.7025    1.0843 C   0  0  0  0  0  0  0  0  0  0  0  0
    8.1192    1.8798    0.8163 C   0  0  0  0  0  0  0  0  0  0  0  0
    9.0889    2.5862    1.5174 C   0  0  0  0  0  0  0  0  0  0  0  0
   10.3946    2.6653    1.0604 C   0  0  0  0  0  0  0  0  0  0  0  0
   10.7938    2.0530   -0.1030 C   0  0  0  0  0  0  0  0  0  0  0  0
    9.8267    1.3474   -0.8069 C   0  0  0  0  0  0  0  0  0  0  0  0
    8.5332    1.2668   -0.3563 C   0  0  0  0  0  0  0  0  0  0  0  0
    0.4251   -1.1051    0.2029 C   0  0  0  0  0  0  0  0  0  0  0  0
    0.5659   -1.3455    1.4525 O   0  0  0  0  0  0  0  0  0  0  0  0
   -0.7933   -1.1834   -0.4741 N   0  0  0  0  0  0  0  0  0  0  0  0
   -2.0765   -1.5299   -0.0445 C   0  0  1  0  0  0  0  0  0  0  0  0
   -2.2404   -2.6592    0.9532 C   0  0  0  0  0  0  0  0  0  0  0  0
   -1.8099   -3.9626    0.4320 C   0  0  0  0  0  0  0  0  0  0  0  0
   -0.6142   -4.5844    0.6183 C   0  0  0  0  0  0  0  0  0  0  0  0
   -0.2794   -5.8294    0.0899 C   0  0  0  0  0  0  0  0  0  0  0  0
   -1.1859   -6.5171   -0.6814 C   0  0  0  0  0  0  0  0  0  0  0  0
   -2.4182   -5.9037   -0.8885 C   0  0  0  0  0  0  0  0  0  0  0  0
   -2.7319   -4.6754   -0.3588 C   0  0  0  0  0  0  0  0  0  0  0  0
   -2.9878   -0.3899    0.3017 C   0  0  0  0  0  0  0  0  0  0  0  0
   -2.5923    0.5902    0.9670 O   0  0  0  0  0  0  0  0  0  0  0  0
   -4.3325   -0.4014   -0.1338 N   0  0  0  0  0  0  0  0  0  0  0  0
   -5.3374    0.5938    0.1090 C   0  0  1  0  0  0  0  0  0  0  0  0
   -5.1182    1.7857   -0.8032 C   0  0  0  0  0  0  0  0  0  0  0  0
   -6.0794    2.8731   -0.6839 C   0  0  0  0  0  0  0  0  0  0  0  0
   -7.1371    3.0361   -1.5865 C   0  0  0  0  0  0  0  0  0  0  0  0
   -8.0592    4.0476   -1.4663 C   0  0  0  0  0  0  0  0  0  0  0  0
   -7.9779    4.9560   -0.4323 C   0  0  0  0  0  0  0  0  0  0  0  0
   -8.9295    5.9949   -0.3099 O   0  0  0  0  0  0  0  0  0  0  0  0
   -6.9417    4.8089    0.4651 C   0  0  0  0  0  0  0  0  0  0  0  0
   -6.0172    3.8017    0.3488 C   0  0  0  0  0  0  0  0  0  0  0  0
   -6.6531    0.0047    0.1355 C   0  0  0  0  0  0  0  0  0  0  0  0
   -7.8755    0.7002    0.3392 N   0  0  0  0  0  0  0  0  0  0  0  0
   -6.8083   -1.2631   -0.0340 O   0  0  0  0  0  0  0  0  0  0  0  0
    3.6523   -2.8032   -0.9866 H   0  0  0  0  0  0  0  0  0  0  0  0
    2.6622   -3.5151   -2.2882 H   0  0  0  0  0  0  0  0  0  0  0  0
    2.0472   -3.4458   -0.6146 H   0  0  0  0  0  0  0  0  0  0  0  0
    2.9030   -1.0109   -2.2272 H   0  0  0  0  0  0  0  0  0  0  0  0
    1.1991   -1.1358   -3.4939 H   0  0  0  0  0  0  0  0  0  0  0  0
    1.5166    0.3286   -0.8281 H   0  0  0  0  0  0  0  0  0  0  0  0
    2.6404   -1.9927    0.6439 H   0  0  0  0  0  0  0  0  0  0  0  0
    3.1000    1.7020    2.5776 H   0  0  0  0  0  0  0  0  0  0  0  0
    4.5173    3.6932    2.9600 H   0  0  0  0  0  0  0  0  0  0  0  0
    6.8384    3.7298    2.1185 H   0  0  0  0  0  0  0  0  0  0  0  0
    6.3466   -0.1558    0.5357 H   0  0  0  0  0  0  0  0  0  0  0  0
    8.7971    3.0708    2.4275 H   0  0  0  0  0  0  0  0  0  0  0  0
   11.1785    3.2182    1.6030 H   0  0  0  0  0  0  0  0  0  0  0  0
   11.8134    2.1004   -0.4820 H   0  0  0  0  0  0  0  0  0  0  0  0
   10.1644    0.8788   -1.7099 H   0  0  0  0  0  0  0  0  0  0  0  0
    7.8085    0.7130   -0.9285 H   0  0  0  0  0  0  0  0  0  0  0  0
   -0.7372   -0.8925   -1.5233 H   0  0  0  0  0  0  0  0  0  0  0  0
   -2.6013   -2.0127   -0.9758 H   0  0  0  0  0  0  0  0  0  0  0  0
   -3.3130   -2.7766    1.2427 H   0  0  0  0  0  0  0  0  0  0  0  0
   -1.6815   -2.4829    1.8945 H   0  0  0  0  0  0  0  0  0  0  0  0
    0.1268   -4.0795    1.2338 H   0  0  0  0  0  0  0  0  0  0  0  0
    0.7093   -6.2742    0.2821 H   0  0  0  0  0  0  0  0  0  0  0  0
   -0.9721   -7.4831   -1.1099 H   0  0  0  0  0  0  0  0  0  0  0  0
   -3.1309   -6.4672   -1.5099 H   0  0  0  0  0  0  0  0  0  0  0  0
   -3.6920   -4.2189   -0.5354 H   0  0  0  0  0  0  0  0  0  0  0  0
   -4.6436   -1.2438   -0.7096 H   0  0  0  0  0  0  0  0  0  0  0  0
   -5.0866    1.0275    1.1416 H   0  0  0  0  0  0  0  0  0  0  0  0
   -4.1029    2.2304   -0.5539 H   0  0  0  0  0  0  0  0  0  0  0  0
   -5.0197    1.4211   -1.8263 H   0  0  0  0  0  0  0  0  0  0  0  0
   -7.2003    2.3050   -2.4120 H   0  0  0  0  0  0  0  0  0  0  0  0
   -8.8615    4.1438   -2.1777 H   0  0  0  0  0  0  0  0  0  0  0  0
   -9.7389    5.7312    0.2644 H   0  0  0  0  0  0  0  0  0  0  0  0
   -6.8962    5.5353    1.2716 H   0  0  0  0  0  0  0  0  0  0  0  0
   -5.1937    3.6948    1.0731 H   0  0  0  0  0  0  0  0  0  0  0  0
   -8.0111    1.3578    1.1287 H   0  0  0  0  0  0  0  0  0  0  0  0
   -8.7023    0.5712   -0.3119 H   0  0  0  0  0  0  0  0  0  0  0  0
  1  2  1  0
  2  3  1  0
  2  4  1  0
  4  5  1  0
  5  6  1  0
  6  7  2  0
  6  8  1  0
  8  9  2  0
  9 10  1  0
 10 11  2  0
 11 12  1  0
 12 13  2  0
 12 14  1  0
 14 15  2  0
 15 16  1  0
 16 17  2  0
 17 18  1  0
 18 19  2  0
  4 20  1  0
 20 21  2  0
 20 22  1  0
 22 23  1  0
 23 24  1  0
 24 25  1  0
 25 26  2  0
 26 27  1  0
 27 28  2  0
 28 29  1  0
 29 30  2  0
 23 31  1  0
 31 32  2  0
 31 33  1  0
 33 34  1  0
 34 35  1  0
 35 36  1  0
 36 37  2  0
 37 38  1  0
 38 39  2  0
 39 40  1  0
 39 41  1  0
 41 42  2  0
 34 43  1  0
 43 44  1  0
 43 45  2  0
 13  8  1  0
 19 14  1  0
 30 25  1  0
 42 36  1  0
  1 46  1  0
  1 47  1  0
  1 48  1  0
  2 49  1  6
  3 50  1  0
  4 51  1  6
  5 52  1  0
  9 53  1  0
 10 54  1  0
 11 55  1  0
 13 56  1  0
 15 57  1  0
 16 58  1  0
 17 59  1  0
 18 60  1  0
 19 61  1  0
 22 62  1  0
 23 63  1  6
 24 64  1  0
 24 65  1  0
 26 66  1  0
 27 67  1  0
 28 68  1  0
 29 69  1  0
 30 70  1  0
 33 71  1  0
 34 72  1  1
 35 73  1  0
 35 74  1  0
 37 75  1  0
 38 76  1  0
 40 77  1  0
 41 78  1  0
 42 79  1  0
 44 80  1  0
 44 81  1  0
M  END
$$$$
[H]N=C(N([H])[H])N([H])C([H])([H])C([H])([H])C([H])([H])[C@@]([H])(C(=O)O[H])N([H])C(=O)[C@@]1([H])N(C(=O)[C@@]([H])(N([H])C(=O)OC([H])([H])c2c([H])c([H])c([H])c([H])c2[H])C([H])(c2c([H])c([H])c([H])c([H])c2[H])c2c([H])c([H])c([H])c([H])c2[H])C([H])([H])C([H])([H])C1([H])[H]
     RDKit          3D

 86 89  0  0  0  0  0  0  0  0999 V2000
   10.3597    1.1610   -0.8245 N   0  0  0  0  0  0  0  0  0  0  0  0
    9.7073    2.3917   -1.0053 C   0  0  0  0  0  0  0  0  0  0  0  0
    9.9013    3.0834   -2.0689 N   0  0  0  0  0  0  0  0  0  0  0  0
    8.8254    2.8766   -0.0058 N   0  0  0  0  0  0  0  0  0  0  0  0
    7.8368    2.0119    0.5817 C   0  0  0  0  0  0  0  0  0  0  0  0
    6.7561    1.6246   -0.4424 C   0  0  0  0  0  0  0  0  0  0  0  0
    5.7797    0.7369    0.2441 C   0  0  0  0  0  0  0  0  0  0  0  0
    4.6374    0.2729   -0.6155 C   0  0  2  0  0  0  0  0  0  0  0  0
    3.7704   -0.5842    0.2301 N   0  0  0  0  0  0  0  0  0  0  0  0
    2.3764   -0.3158    0.3346 C   0  0  0  0  0  0  0  0  0  0  0  0
    1.9492    0.6482   -0.3133 O   0  0  0  0  0  0  0  0  0  0  0  0
    1.5807   -1.1543    1.1576 C   0  0  2  0  0  0  0  0  0  0  0  0
    1.8796   -2.6446    1.1446 C   0  0  0  0  0  0  0  0  0  0  0  0
    0.8362   -3.0841    2.1904 C   0  0  0  0  0  0  0  0  0  0  0  0
   -0.1336   -1.9326    2.3342 C   0  0  0  0  0  0  0  0  0  0  0  0
    0.1619   -1.1785    1.0988 N   0  0  0  0  0  0  0  0  0  0  0  0
   -0.8487   -0.7142    0.2455 C   0  0  0  0  0  0  0  0  0  0  0  0
   -0.6260   -0.0723   -0.8403 O   0  0  0  0  0  0  0  0  0  0  0  0
   -2.3297   -0.8879    0.4658 C   0  0  1  0  0  0  0  0  0  0  0  0
   -2.9293    0.3831    0.0827 N   0  0  0  0  0  0  0  0  0  0  0  0
   -3.6754    1.2004    0.9503 C   0  0  0  0  0  0  0  0  0  0  0  0
   -3.9004    0.9091    2.1726 O   0  0  0  0  0  0  0  0  0  0  0  0
   -4.2284    2.4005    0.5260 O   0  0  0  0  0  0  0  0  0  0  0  0
   -4.9812    3.2144    1.4050 C   0  0  0  0  0  0  0  0  0  0  0  0
   -5.4760    4.4351    0.7565 C   0  0  0  0  0  0  0  0  0  0  0  0
   -6.3027    5.2680    1.4826 C   0  0  0  0  0  0  0  0  0  0  0  0
   -6.8190    6.4278    0.9809 C   0  0  0  0  0  0  0  0  0  0  0  0
   -6.4990    6.7872   -0.3180 C   0  0  0  0  0  0  0  0  0  0  0  0
   -5.6814    5.9760   -1.0553 C   0  0  0  0  0  0  0  0  0  0  0  0
   -5.1666    4.8065   -0.5356 C   0  0  0  0  0  0  0  0  0  0  0  0
   -2.8363   -1.8830   -0.5566 C   0  0  0  0  0  0  0  0  0  0  0  0
   -2.2383   -3.2309   -0.4629 C   0  0  0  0  0  0  0  0  0  0  0  0
   -2.6660   -4.1483    0.4748 C   0  0  0  0  0  0  0  0  0  0  0  0
   -2.1210   -5.4269    0.5672 C   0  0  0  0  0  0  0  0  0  0  0  0
   -1.1162   -5.7938   -0.3082 C   0  0  0  0  0  0  0  0  0  0  0  0
   -0.6778   -4.9033   -1.2427 C   0  0  0  0  0  0  0  0  0  0  0  0
   -1.2364   -3.6338   -1.3159 C   0  0  0  0  0  0  0  0  0  0  0  0
   -4.2895   -1.9373   -0.7030 C   0  0  0  0  0  0  0  0  0  0  0  0
   -5.1902   -1.9189    0.3325 C   0  0  0  0  0  0  0  0  0  0  0  0
   -6.5463   -1.9797    0.0982 C   0  0  0  0  0  0  0  0  0  0  0  0
   -7.0718   -2.0611   -1.1648 C   0  0  0  0  0  0  0  0  0  0  0  0
   -6.1778   -2.0810   -2.2275 C   0  0  0  0  0  0  0  0  0  0  0  0
   -4.8357   -2.0204   -1.9837 C   0  0  0  0  0  0  0  0  0  0  0  0
    5.0646   -0.4920   -1.8064 C   0  0  0  0  0  0  0  0  0  0  0  0
    5.8312    0.0988   -2.7857 O   0  0  0  0  0  0  0  0  0  0  0  0
    4.7563   -1.7079   -1.9952 O   0  0  0  0  0  0  0  0  0  0  0  0
   11.0146    0.9939   -0.0432 H   0  0  0  0  0  0  0  0  0  0  0  0
   10.1815    0.3852   -1.4978 H   0  0  0  0  0  0  0  0  0  0  0  0
    9.4766    3.9892   -2.2970 H   0  0  0  0  0  0  0  0  0  0  0  0
    8.8752    3.8792    0.3277 H   0  0  0  0  0  0  0  0  0  0  0  0
    8.2832    1.0525    0.9497 H   0  0  0  0  0  0  0  0  0  0  0  0
    7.3551    2.5079    1.4320 H   0  0  0  0  0  0  0  0  0  0  0  0
    7.3131    1.1646   -1.2821 H   0  0  0  0  0  0  0  0  0  0  0  0
    6.3059    2.5844   -0.7615 H   0  0  0  0  0  0  0  0  0  0  0  0
    5.3069    1.3312    1.0815 H   0  0  0  0  0  0  0  0  0  0  0  0
    6.2649   -0.1563    0.7109 H   0  0  0  0  0  0  0  0  0  0  0  0
    4.0843    1.1575   -0.9700 H   0  0  0  0  0  0  0  0  0  0  0  0
    4.2410   -1.3709    0.7242 H   0  0  0  0  0  0  0  0  0  0  0  0
    1.8088   -0.8800    2.2683 H   0  0  0  0  0  0  0  0  0  0  0  0
    1.6730   -3.0633    0.1534 H   0  0  0  0  0  0  0  0  0  0  0  0
    2.9032   -2.8292    1.4908 H   0  0  0  0  0  0  0  0  0  0  0  0
    1.3677   -3.2922    3.1447 H   0  0  0  0  0  0  0  0  0  0  0  0
    0.3523   -3.9990    1.8205 H   0  0  0  0  0  0  0  0  0  0  0  0
   -1.1640   -2.2292    2.4383 H   0  0  0  0  0  0  0  0  0  0  0  0
    0.2078   -1.3027    3.1978 H   0  0  0  0  0  0  0  0  0  0  0  0
   -2.5930   -1.2230    1.4545 H   0  0  0  0  0  0  0  0  0  0  0  0
   -2.7904    0.6976   -0.8999 H   0  0  0  0  0  0  0  0  0  0  0  0
   -4.3176    3.5548    2.2509 H   0  0  0  0  0  0  0  0  0  0  0  0
   -5.8070    2.5782    1.8026 H   0  0  0  0  0  0  0  0  0  0  0  0
   -6.5737    5.0078    2.5161 H   0  0  0  0  0  0  0  0  0  0  0  0
   -7.4648    7.0501    1.5913 H   0  0  0  0  0  0  0  0  0  0  0  0
   -6.8983    7.7021   -0.7348 H   0  0  0  0  0  0  0  0  0  0  0  0
   -5.4011    6.2132   -2.0755 H   0  0  0  0  0  0  0  0  0  0  0  0
   -4.5255    4.1869   -1.1350 H   0  0  0  0  0  0  0  0  0  0  0  0
   -2.4692   -1.4101   -1.5502 H   0  0  0  0  0  0  0  0  0  0  0  0
   -3.4450   -3.8869    1.1669 H   0  0  0  0  0  0  0  0  0  0  0  0
   -2.4459   -6.1521    1.2939 H   0  0  0  0  0  0  0  0  0  0  0  0
   -0.6550   -6.7753   -0.2810 H   0  0  0  0  0  0  0  0  0  0  0  0
    0.1102   -5.1542   -1.9491 H   0  0  0  0  0  0  0  0  0  0  0  0
   -0.8803   -2.9438   -2.0581 H   0  0  0  0  0  0  0  0  0  0  0  0
   -4.8341   -1.8564    1.3292 H   0  0  0  0  0  0  0  0  0  0  0  0
   -7.2219   -1.9610    0.9512 H   0  0  0  0  0  0  0  0  0  0  0  0
   -8.1493   -2.1096   -1.3565 H   0  0  0  0  0  0  0  0  0  0  0  0
   -6.5686   -2.1446   -3.2314 H   0  0  0  0  0  0  0  0  0  0  0  0
   -4.1540   -2.0392   -2.8430 H   0  0  0  0  0  0  0  0  0  0  0  0
    5.8242   -0.1847   -3.7581 H   0  0  0  0  0  0  0  0  0  0  0  0
  1  2  1  0
  2  3  2  3
  2  4  1  0
  4  5  1  0
  5  6  1  0
  6  7  1  0
  7  8  1  0
  8  9  1  0
  9 10  1  0
 10 11  2  0
 10 12  1  0
 12 13  1  0
 13 14  1  0
 14 15  1  0
 15 16  1  0
 16 17  1  0
 17 18  2  0
 17 19  1  0
 19 20  1  0
 20 21  1  0
 21 22  2  0
 21 23  1  0
 23 24  1  0
 24 25  1  0
 25 26  2  0
 26 27  1  0
 27 28  2  0
 28 29  1  0
 29 30  2  0
 19 31  1  0
 31 32  1  0
 32 33  2  0
 33 34  1  0
 34 35  2  0
 35 36  1  0
 36 37  2  0
 31 38  1  0
 38 39  2  0
 39 40  1  0
 40 41  2  0
 41 42  1  0
 42 43  2  0
  8 44  1  0
 44 45  1  0
 44 46  2  0
 16 12  1  0
 30 25  1  0
 37 32  1  0
 43 38  1  0
  1 47  1  0
  1 48  1  0
  3 49  1  0
  4 50  1  0
  5 51  1  0
  5 52  1  0
  6 53  1  0
  6 54  1  0
  7 55  1  0
  7 56  1  0
  8 57  1  6
  9 58  1  0
 12 59  1  1
 13 60  1  0
 13 61  1  0
 14 62  1  0
 14 63  1  0
 15 64  1  0
 15 65  1  0
 19 66  1  1
 20 67  1  0
 24 68  1  0
 24 69  1  0
 26 70  1  0
 27 71  1  0
 28 72  1  0
 29 73  1  0
 30 74  1  0
 31 75  1  0
 33 76  1  0
 34 77  1  0
 35 78  1  0
 36 79  1  0
 37 80  1  0
 39 81  1  0
 40 82  1  0
 41 83  1  0
 42 84  1  0
 43 85  1  0
 45 86  1  0
M  END
$$$$
[H]c1c([H])c([H])c(N2C([H])([H])C([H])([H])N(C([H])([H])C([H])([H])C([H])([H])C([H])([H])N([H])C(=O)c3c([H])c4c([H])c([H])c([H])c([H])c4n3[H])C([H])([H])C2([H])[H])c(OC([H])([H])[H])c1[H]
     RDKit          3D

 60 63  0  0  0  0  0  0  0  0999 V2000
   -6.1720    3.1936    1.0723 C   0  0  0  0  0  0  0  0  0  0  0  0
   -5.5793    1.9421    0.8146 O   0  0  0  0  0  0  0  0  0  0  0  0
   -6.3706    0.8192    0.7423 C   0  0  0  0  0  0  0  0  0  0  0  0
   -7.7269    0.9418    0.9230 C   0  0  0  0  0  0  0  0  0  0  0  0
   -8.5006   -0.2180    0.8433 C   0  0  0  0  0  0  0  0  0  0  0  0
   -7.9256   -1.4341    0.5937 C   0  0  0  0  0  0  0  0  0  0  0  0
   -6.5419   -1.5258    0.4144 C   0  0  0  0  0  0  0  0  0  0  0  0
   -5.7761   -0.3935    0.4909 C   0  0  0  0  0  0  0  0  0  0  0  0
   -4.3782   -0.4532    0.3109 N   0  0  0  0  0  0  0  0  0  0  0  0
   -3.6501    0.2315   -0.7383 C   0  0  0  0  0  0  0  0  0  0  0  0
   -2.7174   -0.7315   -1.4438 C   0  0  0  0  0  0  0  0  0  0  0  0
   -1.9737   -1.5927   -0.6342 N   0  0  0  0  0  0  0  0  0  0  0  0
   -0.6165   -1.3319   -0.3691 C   0  0  0  0  0  0  0  0  0  0  0  0
    0.2955   -1.4749   -1.5556 C   0  0  0  0  0  0  0  0  0  0  0  0
    1.7219   -1.1805   -1.1766 C   0  0  0  0  0  0  0  0  0  0  0  0
    1.9584    0.1778   -0.6513 C   0  0  0  0  0  0  0  0  0  0  0  0
    3.3498    0.3726   -0.3099 N   0  0  0  0  0  0  0  0  0  0  0  0
    4.3897    0.2919   -1.2411 C   0  0  0  0  0  0  0  0  0  0  0  0
    4.2057    0.0465   -2.4656 O   0  0  0  0  0  0  0  0  0  0  0  0
    5.7689    0.5005   -0.7859 C   0  0  0  0  0  0  0  0  0  0  0  0
    6.1902    0.7853    0.4947 C   0  0  0  0  0  0  0  0  0  0  0  0
    7.5778    0.9073    0.5150 C   0  0  0  0  0  0  0  0  0  0  0  0
    8.4871    1.1781    1.5150 C   0  0  0  0  0  0  0  0  0  0  0  0
    9.8346    1.2376    1.2355 C   0  0  0  0  0  0  0  0  0  0  0  0
   10.2433    1.0198   -0.0641 C   0  0  0  0  0  0  0  0  0  0  0  0
    9.3329    0.7493   -1.0621 C   0  0  0  0  0  0  0  0  0  0  0  0
    7.9709    0.6883   -0.7839 C   0  0  0  0  0  0  0  0  0  0  0  0
    6.8875    0.4501   -1.5359 N   0  0  0  0  0  0  0  0  0  0  0  0
   -2.6494   -2.1755    0.4544 C   0  0  0  0  0  0  0  0  0  0  0  0
   -3.5786   -1.2500    1.2198 C   0  0  0  0  0  0  0  0  0  0  0  0
   -6.7584    3.1555    2.0204 H   0  0  0  0  0  0  0  0  0  0  0  0
   -5.4487    4.0159    1.1083 H   0  0  0  0  0  0  0  0  0  0  0  0
   -6.9013    3.4123    0.2448 H   0  0  0  0  0  0  0  0  0  0  0  0
   -8.2129    1.8892    1.1227 H   0  0  0  0  0  0  0  0  0  0  0  0
   -9.5650   -0.1374    0.9827 H   0  0  0  0  0  0  0  0  0  0  0  0
   -8.5129   -2.3302    0.5305 H   0  0  0  0  0  0  0  0  0  0  0  0
   -6.0866   -2.4711    0.2194 H   0  0  0  0  0  0  0  0  0  0  0  0
   -4.3827    0.5731   -1.4983 H   0  0  0  0  0  0  0  0  0  0  0  0
   -3.0996    1.1132   -0.3771 H   0  0  0  0  0  0  0  0  0  0  0  0
   -2.1109   -0.1287   -2.1485 H   0  0  0  0  0  0  0  0  0  0  0  0
   -3.3859   -1.3558   -2.1099 H   0  0  0  0  0  0  0  0  0  0  0  0
   -0.5196   -0.2835   -0.0160 H   0  0  0  0  0  0  0  0  0  0  0  0
   -0.2635   -2.0613    0.3997 H   0  0  0  0  0  0  0  0  0  0  0  0
    0.2679   -2.5431   -1.8785 H   0  0  0  0  0  0  0  0  0  0  0  0
   -0.0161   -0.8816   -2.4274 H   0  0  0  0  0  0  0  0  0  0  0  0
    2.3294   -1.3676   -2.0790 H   0  0  0  0  0  0  0  0  0  0  0  0
    2.1058   -1.9117   -0.4153 H   0  0  0  0  0  0  0  0  0  0  0  0
    1.3591    0.4471    0.2372 H   0  0  0  0  0  0  0  0  0  0  0  0
    1.7056    0.9904   -1.3998 H   0  0  0  0  0  0  0  0  0  0  0  0
    3.6028    0.5899    0.7080 H   0  0  0  0  0  0  0  0  0  0  0  0
    5.5527    0.9007    1.3681 H   0  0  0  0  0  0  0  0  0  0  0  0
    8.1193    1.3449    2.5329 H   0  0  0  0  0  0  0  0  0  0  0  0
   10.5736    1.4492    2.0052 H   0  0  0  0  0  0  0  0  0  0  0  0
   11.3156    1.0647   -0.2978 H   0  0  0  0  0  0  0  0  0  0  0  0
    9.6747    0.5787   -2.0886 H   0  0  0  0  0  0  0  0  0  0  0  0
    6.9071    0.2512   -2.5682 H   0  0  0  0  0  0  0  0  0  0  0  0
   -3.2112   -3.1040    0.2020 H   0  0  0  0  0  0  0  0  0  0  0  0
   -1.8705   -2.4810    1.2168 H   0  0  0  0  0  0  0  0  0  0  0  0
   -3.0145   -0.5900    1.9170 H   0  0  0  0  0  0  0  0  0  0  0  0
   -4.2105   -1.9007    1.8653 H   0  0  0  0  0  0  0  0  0  0  0  0
  1  2  1  0
  2  3  1  0
  3  4  2  0
  4  5  1  0
  5  6  2  0
  6  7  1  0
  7  8  2  0
  8  9  1  0
  9 10  1  0
 10 11  1  0
 11 12  1  0
 12 13  1  0
 13 14  1  0
 14 15  1  0
 15 16  1  0
 16 17  1  0
 17 18  1  0
 18 19  2  0
 18 20  1  0
 20 21  2  0
 21 22  1  0
 22 23  2  0
 23 24  1  0
 24 25  2  0
 25 26  1  0
 26 27  2  0
 27 28  1  0
 12 29  1  0
 29 30  1  0
  8  3  1  0
 30  9  1  0
 28 20  1  0
 27 22  1  0
  1 31  1  0
  1 32  1  0
  1 33  1  0
  4 34  1  0
  5 35  1  0
  6 36  1  0
  7 37  1  0
 10 38  1  0
 10 39  1  0
 11 40  1  0
 11 41  1  0
 13 42  1  0
 13 43  1  0
 14 44  1  0
 14 45  1  0
 15 46  1  0
 15 47  1  0
 16 48  1  0
 16 49  1  0
 17 50  1  0
 21 51  1  0
 23 52  1  0
 24 53  1  0
 25 54  1  0
 26 55  1  0
 28 56  1  0
 29 57  1  0
 29 58  1  0
 30 59  1  0
 30 60  1  0
M  END
$$$$
[H]Oc1c([H])c([H])c([C@@]2([H])Sc3c([H])c(O[H])c([H])c([H])c3O[C@@]2([H])c2c([H])c([H])c(OC([H])([H])C([H])([H])N3C([H])([H])C([H])([H])C([H])([H])C([H])([H])C([H])([H])C3([H])[H])c([H])c2[H])c([H])c1[H]
     RDKit          3D

 65 69  0  0  0  0  0  0  0  0999 V2000
   -2.5297    4.6558   -1.0905 O   0  0  0  0  0  0  0  0  0  0  0  0
   -2.8963    3.4022   -0.5740 C   0  0  0  0  0  0  0  0  0  0  0  0
   -3.2687    2.4350   -1.4682 C   0  0  0  0  0  0  0  0  0  0  0  0
   -3.6347    1.1884   -0.9730 C   0  0  0  0  0  0  0  0  0  0  0  0
   -3.6483    0.8607    0.3485 C   0  0  0  0  0  0  0  0  0  0  0  0
   -3.2597    1.8817    1.2217 C   0  0  0  0  0  0  0  0  0  0  0  0
   -2.8939    3.1210    0.7596 C   0  0  0  0  0  0  0  0  0  0  0  0
   -4.0285   -0.4356    0.8870 C   0  0  1  0  0  0  0  0  0  0  0  0
   -5.7307   -0.8020    0.3905 S   0  0  0  0  0  0  0  0  0  0  0  0
   -5.6973   -2.0720   -0.8549 C   0  0  0  0  0  0  0  0  0  0  0  0
   -6.8793   -2.6011   -1.3827 C   0  0  0  0  0  0  0  0  0  0  0  0
   -6.9009   -3.5788   -2.3510 C   0  0  0  0  0  0  0  0  0  0  0  0
   -8.1270   -4.0533   -2.8253 O   0  0  0  0  0  0  0  0  0  0  0  0
   -5.6904   -4.0495   -2.8130 C   0  0  0  0  0  0  0  0  0  0  0  0
   -4.5233   -3.5303   -2.2948 C   0  0  0  0  0  0  0  0  0  0  0  0
   -4.4780   -2.5514   -1.3251 C   0  0  0  0  0  0  0  0  0  0  0  0
   -3.2909   -2.0272   -0.8021 O   0  0  0  0  0  0  0  0  0  0  0  0
   -3.2054   -1.6131    0.5260 C   0  0  1  0  0  0  0  0  0  0  0  0
   -1.7988   -1.5378    0.9786 C   0  0  0  0  0  0  0  0  0  0  0  0
   -1.3816   -1.9530    2.1963 C   0  0  0  0  0  0  0  0  0  0  0  0
   -0.0608   -1.8679    2.5723 C   0  0  0  0  0  0  0  0  0  0  0  0
    0.9310   -1.3461    1.7165 C   0  0  0  0  0  0  0  0  0  0  0  0
    2.2209   -1.3016    2.1741 O   0  0  0  0  0  0  0  0  0  0  0  0
    3.3519   -0.8287    1.5750 C   0  0  0  0  0  0  0  0  0  0  0  0
    3.3213    0.6501    1.3126 C   0  0  0  0  0  0  0  0  0  0  0  0
    4.5713    1.0164    0.6651 N   0  0  0  0  0  0  0  0  0  0  0  0
    4.5975    2.4392    0.3886 C   0  0  0  0  0  0  0  0  0  0  0  0
    5.9700    3.0110    0.4536 C   0  0  0  0  0  0  0  0  0  0  0  0
    7.0691    2.0010    0.2412 C   0  0  0  0  0  0  0  0  0  0  0  0
    7.0467    1.3513   -1.1014 C   0  0  0  0  0  0  0  0  0  0  0  0
    5.6705    0.9044   -1.5438 C   0  0  0  0  0  0  0  0  0  0  0  0
    4.8898    0.2158   -0.4724 C   0  0  0  0  0  0  0  0  0  0  0  0
    0.4942   -0.9291    0.4822 C   0  0  0  0  0  0  0  0  0  0  0  0
   -0.8602   -1.0238    0.1162 C   0  0  0  0  0  0  0  0  0  0  0  0
   -1.5422    4.7488   -1.3070 H   0  0  0  0  0  0  0  0  0  0  0  0
   -3.2791    2.6345   -2.5441 H   0  0  0  0  0  0  0  0  0  0  0  0
   -3.9157    0.4729   -1.7018 H   0  0  0  0  0  0  0  0  0  0  0  0
   -3.2400    1.7136    2.2855 H   0  0  0  0  0  0  0  0  0  0  0  0
   -2.5875    3.9310    1.4388 H   0  0  0  0  0  0  0  0  0  0  0  0
   -4.0376   -0.3881    2.0254 H   0  0  0  0  0  0  0  0  0  0  0  0
   -7.8307   -2.2257   -1.0139 H   0  0  0  0  0  0  0  0  0  0  0  0
   -8.6091   -4.8379   -2.4069 H   0  0  0  0  0  0  0  0  0  0  0  0
   -5.7092   -4.8170   -3.5741 H   0  0  0  0  0  0  0  0  0  0  0  0
   -3.5624   -3.9047   -2.6632 H   0  0  0  0  0  0  0  0  0  0  0  0
   -3.6330   -2.4619    1.1578 H   0  0  0  0  0  0  0  0  0  0  0  0
   -2.1296   -2.3640    2.8855 H   0  0  0  0  0  0  0  0  0  0  0  0
    0.2550   -2.2043    3.5507 H   0  0  0  0  0  0  0  0  0  0  0  0
    3.6184   -1.3684    0.6244 H   0  0  0  0  0  0  0  0  0  0  0  0
    4.2239   -1.0905    2.2553 H   0  0  0  0  0  0  0  0  0  0  0  0
    3.3528    1.1876    2.3218 H   0  0  0  0  0  0  0  0  0  0  0  0
    2.4378    1.0414    0.8235 H   0  0  0  0  0  0  0  0  0  0  0  0
    3.9842    2.9166    1.2039 H   0  0  0  0  0  0  0  0  0  0  0  0
    4.0416    2.6756   -0.5447 H   0  0  0  0  0  0  0  0  0  0  0  0
    6.0394    3.7868   -0.3624 H   0  0  0  0  0  0  0  0  0  0  0  0
    6.1208    3.5418    1.3949 H   0  0  0  0  0  0  0  0  0  0  0  0
    7.0676    1.2304    1.0115 H   0  0  0  0  0  0  0  0  0  0  0  0
    8.0416    2.5543    0.3169 H   0  0  0  0  0  0  0  0  0  0  0  0
    7.6602    0.4077   -1.0026 H   0  0  0  0  0  0  0  0  0  0  0  0
    7.5289    1.9297   -1.8989 H   0  0  0  0  0  0  0  0  0  0  0  0
    5.1372    1.7462   -1.9890 H   0  0  0  0  0  0  0  0  0  0  0  0
    5.7961    0.1523   -2.3720 H   0  0  0  0  0  0  0  0  0  0  0  0
    5.4110   -0.7084   -0.1501 H   0  0  0  0  0  0  0  0  0  0  0  0
    3.9294   -0.1085   -0.9381 H   0  0  0  0  0  0  0  0  0  0  0  0
    1.2152   -0.5409   -0.2208 H   0  0  0  0  0  0  0  0  0  0  0  0
   -1.1347   -0.6826   -0.8639 H   0  0  0  0  0  0  0  0  0  0  0  0
  1  2  1  0
  2  3  2  0
  3  4  1  0
  4  5  2  0
  5  6  1  0
  6  7  2  0
  5  8  1  0
  8  9  1  0
  9 10  1  0
 10 11  2  0
 11 12  1  0
 12 13  1  0
 12 14  2  0
 14 15  1  0
 15 16  2  0
 16 17  1  0
 17 18  1  0
 18 19  1  0
 19 20  2  0
 20 21  1  0
 21 22  2  0
 22 23  1  0
 23 24  1  0
 24 25  1  0
 25 26  1  0
 26 27  1  0
 27 28  1  0
 28 29  1  0
 29 30  1  0
 30 31  1  0
 31 32  1  0
 22 33  1  0
 33 34  2  0
  7  2  1  0
 18  8  1  0
 34 19  1  0
 16 10  1  0
 32 26  1  0
  1 35  1  0
  3 36  1  0
  4 37  1  0
  6 38  1  0
  7 39  1  0
  8 40  1  1
 11 41  1  0
 13 42  1  0
 14 43  1  0
 15 44  1  0
 18 45  1  1
 20 46  1  0
 21 47  1  0
 24 48  1  0
 24 49  1  0
 25 50  1  0
 25 51  1  0
 27 52  1  0
 27 53  1  0
 28 54  1  0
 28 55  1  0
 29 56  1  0
 29 57  1  0
 30 58  1  0
 30 59  1  0
 31 60  1  0
 31 61  1  0
 32 62  1  0
 32 63  1  0
 33 64  1  0
 34 65  1  0
M  END
$$$$
[H]OC(=O)[C@]([H])(N([H])[C@]1([H])C([H])([H])C([H])([H])[C@@]([H])(n2c([H])c(-c3c([H])c([H])c(Oc4c([H])c([H])c([H])c([H])c4[H])c([H])c3[H])c3c(N([H])[H])nc([H])nc32)C([H])([H])C1([H])[H])C([H])([H])c1c([H])c([H])c([H])c([H])c1[H]
     RDKit          3D

 74 79  0  0  0  0  0  0  0  0999 V2000
    4.1807   -2.7464    2.2574 N   0  0  0  0  0  0  0  0  0  0  0  0
    2.8041   -2.4171    2.4499 C   0  0  0  0  0  0  0  0  0  0  0  0
    2.1019   -2.9913    3.4537 N   0  0  0  0  0  0  0  0  0  0  0  0
    0.8130   -2.6651    3.6228 C   0  0  0  0  0  0  0  0  0  0  0  0
    0.2656   -1.7886    2.7998 N   0  0  0  0  0  0  0  0  0  0  0  0
    0.9025   -1.1699    1.7702 C   0  0  0  0  0  0  0  0  0  0  0  0
    0.5264   -0.2675    0.8515 N   0  0  0  0  0  0  0  0  0  0  0  0
    1.5908   -0.0097    0.0821 C   0  0  0  0  0  0  0  0  0  0  0  0
    2.6754   -0.7592    0.5092 C   0  0  0  0  0  0  0  0  0  0  0  0
    4.0160   -0.8111   -0.0623 C   0  0  0  0  0  0  0  0  0  0  0  0
    4.4404   -1.8370   -0.8878 C   0  0  0  0  0  0  0  0  0  0  0  0
    5.7337   -1.8442   -1.3946 C   0  0  0  0  0  0  0  0  0  0  0  0
    6.6313   -0.8411   -1.0960 C   0  0  0  0  0  0  0  0  0  0  0  0
    7.9313   -0.8334   -1.5955 O   0  0  0  0  0  0  0  0  0  0  0  0
    8.7703    0.2054   -1.2174 C   0  0  0  0  0  0  0  0  0  0  0  0
    8.8795    1.3840   -1.9233 C   0  0  0  0  0  0  0  0  0  0  0  0
    9.7191    2.4082   -1.5333 C   0  0  0  0  0  0  0  0  0  0  0  0
   10.4643    2.2106   -0.3878 C   0  0  0  0  0  0  0  0  0  0  0  0
   10.3640    1.0427    0.3212 C   0  0  0  0  0  0  0  0  0  0  0  0
    9.5158    0.0061   -0.0701 C   0  0  0  0  0  0  0  0  0  0  0  0
    6.1875    0.1678   -0.2732 C   0  0  0  0  0  0  0  0  0  0  0  0
    4.9151    0.1899    0.2344 C   0  0  0  0  0  0  0  0  0  0  0  0
    2.2478   -1.4972    1.5782 C   0  0  0  0  0  0  0  0  0  0  0  0
   -0.8156    0.2699    0.7667 C   0  0  1  0  0  0  0  0  0  0  0  0
   -0.9583    1.1516   -0.4256 C   0  0  0  0  0  0  0  0  0  0  0  0
   -2.3565    1.4431   -0.8896 C   0  0  0  0  0  0  0  0  0  0  0  0
   -3.3865    0.4230   -0.4953 C   0  0  1  0  0  0  0  0  0  0  0  0
   -2.6907   -0.8958   -0.3884 C   0  0  0  0  0  0  0  0  0  0  0  0
   -1.7543   -0.9083    0.7607 C   0  0  0  0  0  0  0  0  0  0  0  0
   -4.1329    0.8574    0.6157 N   0  0  0  0  0  0  0  0  0  0  0  0
   -5.5519    1.1068    0.4299 C   0  0  2  0  0  0  0  0  0  0  0  0
   -6.2824   -0.1290    0.0448 C   0  0  0  0  0  0  0  0  0  0  0  0
   -7.7349   -0.0551   -0.1393 C   0  0  0  0  0  0  0  0  0  0  0  0
   -8.4015    0.1174   -1.3261 C   0  0  0  0  0  0  0  0  0  0  0  0
   -9.7720    0.1694   -1.4186 C   0  0  0  0  0  0  0  0  0  0  0  0
  -10.5533    0.0477   -0.2952 C   0  0  0  0  0  0  0  0  0  0  0  0
   -9.9269   -0.1267    0.9187 C   0  0  0  0  0  0  0  0  0  0  0  0
   -8.5615   -0.1764    0.9963 C   0  0  0  0  0  0  0  0  0  0  0  0
   -5.9264    2.3692   -0.1661 C   0  0  0  0  0  0  0  0  0  0  0  0
   -7.0717    2.6898   -0.8786 O   0  0  0  0  0  0  0  0  0  0  0  0
   -5.1379    3.3895   -0.0681 O   0  0  0  0  0  0  0  0  0  0  0  0
    4.4912   -3.5758    1.7333 H   0  0  0  0  0  0  0  0  0  0  0  0
    4.8619   -2.0825    2.6898 H   0  0  0  0  0  0  0  0  0  0  0  0
    0.1869   -3.0953    4.4193 H   0  0  0  0  0  0  0  0  0  0  0  0
    1.6575    0.6701   -0.7598 H   0  0  0  0  0  0  0  0  0  0  0  0
    3.7382   -2.6378   -1.1315 H   0  0  0  0  0  0  0  0  0  0  0  0
    6.0221   -2.6706   -2.0427 H   0  0  0  0  0  0  0  0  0  0  0  0
    8.2536    1.4637   -2.8250 H   0  0  0  0  0  0  0  0  0  0  0  0
    9.7843    3.3197   -2.1037 H   0  0  0  0  0  0  0  0  0  0  0  0
   11.1437    2.9726   -0.0192 H   0  0  0  0  0  0  0  0  0  0  0  0
   10.9411    0.8599    1.2304 H   0  0  0  0  0  0  0  0  0  0  0  0
    9.4549   -0.9044    0.5017 H   0  0  0  0  0  0  0  0  0  0  0  0
    6.9050    0.9604   -0.0365 H   0  0  0  0  0  0  0  0  0  0  0  0
    4.6161    1.0206    0.8921 H   0  0  0  0  0  0  0  0  0  0  0  0
   -0.9692    0.8598    1.7028 H   0  0  0  0  0  0  0  0  0  0  0  0
   -0.3128    0.8032   -1.2568 H   0  0  0  0  0  0  0  0  0  0  0  0
   -0.5011    2.1427   -0.1234 H   0  0  0  0  0  0  0  0  0  0  0  0
   -2.6294    2.4852   -0.6646 H   0  0  0  0  0  0  0  0  0  0  0  0
   -2.3079    1.4249   -2.0264 H   0  0  0  0  0  0  0  0  0  0  0  0
   -4.0650    0.2781   -1.4117 H   0  0  0  0  0  0  0  0  0  0  0  0
   -2.0879   -1.0137   -1.3355 H   0  0  0  0  0  0  0  0  0  0  0  0
   -3.3557   -1.7673   -0.3668 H   0  0  0  0  0  0  0  0  0  0  0  0
   -2.3426   -0.9293    1.7091 H   0  0  0  0  0  0  0  0  0  0  0  0
   -1.2099   -1.8871    0.7204 H   0  0  0  0  0  0  0  0  0  0  0  0
   -3.7751    1.7635    1.0506 H   0  0  0  0  0  0  0  0  0  0  0  0
   -5.8666    1.2479    1.5468 H   0  0  0  0  0  0  0  0  0  0  0  0
   -5.8653   -0.6099   -0.8770 H   0  0  0  0  0  0  0  0  0  0  0  0
   -6.1315   -0.9559    0.8174 H   0  0  0  0  0  0  0  0  0  0  0  0
   -7.7840    0.2158   -2.2268 H   0  0  0  0  0  0  0  0  0  0  0  0
  -10.2510    0.3080   -2.3860 H   0  0  0  0  0  0  0  0  0  0  0  0
  -11.6507    0.0881   -0.3691 H   0  0  0  0  0  0  0  0  0  0  0  0
  -10.4950   -0.2278    1.8410 H   0  0  0  0  0  0  0  0  0  0  0  0
   -8.0477   -0.3163    1.9594 H   0  0  0  0  0  0  0  0  0  0  0  0
   -7.0692    2.9099   -1.8812 H   0  0  0  0  0  0  0  0  0  0  0  0
  1  2  1  0
  2  3  2  0
  3  4  1  0
  4  5  2  0
  5  6  1  0
  6  7  1  0
  7  8  1  0
  8  9  2  0
  9 10  1  0
 10 11  2  0
 11 12  1  0
 12 13  2  0
 13 14  1  0
 14 15  1  0
 15 16  2  0
 16 17  1  0
 17 18  2  0
 18 19  1  0
 19 20  2  0
 13 21  1  0
 21 22  2  0
  9 23  1  0
  7 24  1  0
 24 25  1  0
 25 26  1  0
 26 27  1  0
 27 28  1  0
 28 29  1  0
 27 30  1  0
 30 31  1  0
 31 32  1  0
 32 33  1  0
 33 34  2  0
 34 35  1  0
 35 36  2  0
 36 37  1  0
 37 38  2  0
 31 39  1  0
 39 40  1  0
 39 41  2  0
 23  2  1  0
 29 24  1  0
 38 33  1  0
 23  6  2  0
 22 10  1  0
 20 15  1  0
  1 42  1  0
  1 43  1  0
  4 44  1  0
  8 45  1  0
 11 46  1  0
 12 47  1  0
 16 48  1  0
 17 49  1  0
 18 50  1  0
 19 51  1  0
 20 52  1  0
 21 53  1  0
 22 54  1  0
 24 55  1  1
 25 56  1  0
 25 57  1  0
 26 58  1  0
 26 59  1  0
 27 60  1  6
 28 61  1  0
 28 62  1  0
 29 63  1  0
 29 64  1  0
 30 65  1  0
 31 66  1  1
 32 67  1  0
 32 68  1  0
 34 69  1  0
 35 70  1  0
 36 71  1  0
 37 72  1  0
 38 73  1  0
 40 74  1  0
M  END
$$$$
[H]c1nn(C([H])([H])C([H])([H])Oc2c([H])c(Cl)c([H])c(Cl)c2-c2nc(N([H])[H])nc3c2C([H])([H])N(C(=O)N([H])C2([H])C([H])([H])C([H])([H])C([H])([H])C([H])([H])C2([H])[H])C3([H])[H])c([H])c1[H]
     RDKit          3D

 62 66  0  0  0  0  0  0  0  0999 V2000
    1.9853    4.4033   -2.1856 N   0  0  0  0  0  0  0  0  0  0  0  0
    1.4938    3.2065   -1.6101 C   0  0  0  0  0  0  0  0  0  0  0  0
    0.2633    3.1677   -1.0469 N   0  0  0  0  0  0  0  0  0  0  0  0
   -0.2451    2.0378   -0.4817 C   0  0  0  0  0  0  0  0  0  0  0  0
   -1.5205    1.7138    0.1936 C   0  0  0  0  0  0  0  0  0  0  0  0
   -1.6012    0.2765    0.0616 N   0  0  0  0  0  0  0  0  0  0  0  0
   -0.2427   -0.2123    0.1846 C   0  0  0  0  0  0  0  0  0  0  0  0
    0.5122    0.8907   -0.4788 C   0  0  0  0  0  0  0  0  0  0  0  0
    1.7667    0.9160   -1.0483 C   0  0  0  0  0  0  0  0  0  0  0  0
    2.2153    2.0623   -1.5917 N   0  0  0  0  0  0  0  0  0  0  0  0
    2.5490   -0.3078   -1.0310 C   0  0  0  0  0  0  0  0  0  0  0  0
    2.4969   -1.2413   -2.0114 C   0  0  0  0  0  0  0  0  0  0  0  0
    1.4301   -1.0119   -3.4123 Cl  0  0  0  0  0  0  0  0  0  0  0  0
    3.2339   -2.4037   -2.0117 C   0  0  0  0  0  0  0  0  0  0  0  0
    4.0701   -2.6216   -0.9483 C   0  0  0  0  0  0  0  0  0  0  0  0
    5.0606   -4.0789   -0.8465 Cl  0  0  0  0  0  0  0  0  0  0  0  0
    4.1536   -1.7071    0.0627 C   0  0  0  0  0  0  0  0  0  0  0  0
    3.4145   -0.5224    0.0802 C   0  0  0  0  0  0  0  0  0  0  0  0
    3.4829    0.3653    1.0518 O   0  0  0  0  0  0  0  0  0  0  0  0
    3.9555    0.8191    2.1906 C   0  0  0  0  0  0  0  0  0  0  0  0
    5.3653    1.2303    2.4113 C   0  0  0  0  0  0  0  0  0  0  0  0
    6.4090    0.2805    2.2257 N   0  0  0  0  0  0  0  0  0  0  0  0
    6.9183   -0.6062    3.1260 C   0  0  0  0  0  0  0  0  0  0  0  0
    7.9518   -1.3070    2.5576 C   0  0  0  0  0  0  0  0  0  0  0  0
    8.0679   -0.8288    1.2802 C   0  0  0  0  0  0  0  0  0  0  0  0
    7.1315    0.1142    1.1228 N   0  0  0  0  0  0  0  0  0  0  0  0
   -2.7962   -0.4582   -0.1431 C   0  0  0  0  0  0  0  0  0  0  0  0
   -2.7594   -1.7057   -0.2453 O   0  0  0  0  0  0  0  0  0  0  0  0
   -4.0553    0.1843   -0.2373 N   0  0  0  0  0  0  0  0  0  0  0  0
   -5.2964   -0.4980   -0.4415 C   0  0  0  0  0  0  0  0  0  0  0  0
   -6.2082   -0.1678    0.7257 C   0  0  0  0  0  0  0  0  0  0  0  0
   -7.6581   -0.1069    0.3419 C   0  0  0  0  0  0  0  0  0  0  0  0
   -8.0507   -1.0993   -0.7153 C   0  0  0  0  0  0  0  0  0  0  0  0
   -7.1761   -0.9995   -1.9465 C   0  0  0  0  0  0  0  0  0  0  0  0
   -5.9952   -0.0769   -1.6982 C   0  0  0  0  0  0  0  0  0  0  0  0
    1.6340    4.7684   -3.0883 H   0  0  0  0  0  0  0  0  0  0  0  0
    2.7230    4.9348   -1.6882 H   0  0  0  0  0  0  0  0  0  0  0  0
   -2.3214    2.2290   -0.3776 H   0  0  0  0  0  0  0  0  0  0  0  0
   -1.5034    2.0170    1.2574 H   0  0  0  0  0  0  0  0  0  0  0  0
   -0.1647   -1.1655   -0.3374 H   0  0  0  0  0  0  0  0  0  0  0  0
    0.0589   -0.3491    1.2356 H   0  0  0  0  0  0  0  0  0  0  0  0
    3.1702   -3.1273   -2.8078 H   0  0  0  0  0  0  0  0  0  0  0  0
    4.8174   -1.8752    0.9295 H   0  0  0  0  0  0  0  0  0  0  0  0
    3.7661    0.0529    3.0550 H   0  0  0  0  0  0  0  0  0  0  0  0
    3.3027    1.6974    2.6146 H   0  0  0  0  0  0  0  0  0  0  0  0
    5.5799    2.1940    1.8370 H   0  0  0  0  0  0  0  0  0  0  0  0
    5.4576    1.5898    3.4864 H   0  0  0  0  0  0  0  0  0  0  0  0
    6.5576   -0.7327    4.1327 H   0  0  0  0  0  0  0  0  0  0  0  0
    8.5827   -2.0814    2.9672 H   0  0  0  0  0  0  0  0  0  0  0  0
    8.7883   -1.1543    0.5289 H   0  0  0  0  0  0  0  0  0  0  0  0
   -4.0865    1.2237   -0.1534 H   0  0  0  0  0  0  0  0  0  0  0  0
   -5.1443   -1.6038   -0.5182 H   0  0  0  0  0  0  0  0  0  0  0  0
   -5.8982    0.8254    1.1109 H   0  0  0  0  0  0  0  0  0  0  0  0
   -6.0120   -0.9573    1.4946 H   0  0  0  0  0  0  0  0  0  0  0  0
   -8.2530   -0.3467    1.2555 H   0  0  0  0  0  0  0  0  0  0  0  0
   -7.9140    0.9392    0.0131 H   0  0  0  0  0  0  0  0  0  0  0  0
   -9.0857   -0.8369   -1.0314 H   0  0  0  0  0  0  0  0  0  0  0  0
   -8.0966   -2.1016   -0.2812 H   0  0  0  0  0  0  0  0  0  0  0  0
   -7.7383   -0.6722   -2.8302 H   0  0  0  0  0  0  0  0  0  0  0  0
   -6.7709   -2.0078   -2.1589 H   0  0  0  0  0  0  0  0  0  0  0  0
   -6.4131    0.9351   -1.5261 H   0  0  0  0  0  0  0  0  0  0  0  0
   -5.3584   -0.1232   -2.6046 H   0  0  0  0  0  0  0  0  0  0  0  0
  1  2  1  0
  2  3  2  0
  3  4  1  0
  4  5  1  0
  5  6  1  0
  6  7  1  0
  7  8  1  0
  8  9  1  0
  9 10  2  0
  9 11  1  0
 11 12  2  0
 12 13  1  0
 12 14  1  0
 14 15  2  0
 15 16  1  0
 15 17  1  0
 17 18  2  0
 18 19  1  0
 19 20  1  0
 20 21  1  0
 21 22  1  0
 22 23  1  0
 23 24  2  0
 24 25  1  0
 25 26  2  0
  6 27  1  0
 27 28  2  0
 27 29  1  0
 29 30  1  0
 30 31  1  0
 31 32  1  0
 32 33  1  0
 33 34  1  0
 34 35  1  0
 10  2  1  0
 18 11  1  0
 26 22  1  0
 35 30  1  0
  8  4  2  0
  1 36  1  0
  1 37  1  0
  5 38  1  0
  5 39  1  0
  7 40  1  0
  7 41  1  0
 14 42  1  0
 17 43  1  0
 20 44  1  0
 20 45  1  0
 21 46  1  0
 21 47  1  0
 23 48  1  0
 24 49  1  0
 25 50  1  0
 29 51  1  0
 30 52  1  0
 31 53  1  0
 31 54  1  0
 32 55  1  0
 32 56  1  0
 33 57  1  0
 33 58  1  0
 34 59  1  0
 34 60  1  0
 35 61  1  0
 35 62  1  0
M  END
$$$$
[H]Oc1c([H])c([H])c(C([H])([H])[C@@]2([H])C(=O)N([H])[C@@]([H])(C([H])([H])C([H])([H])C([H])([H])N=C(N([H])[H])N([H])[H])C(=O)N3C([H])([H])C([H])([H])C([H])([H])[C@@]3([H])C(=O)N([H])[C@@]([H])(C([H])(C([H])([H])[H])C([H])([H])[H])C(=O)N([H])[C@@]([H])(C([H])([H])C([H])([H])C([H])([H])C([H])([H])N([H])[H])C(=O)N([H])[C@@]([H])(C([H])([H])[H])C(=O)N2[H])c([H])c1[H]
     RDKit          3D

105107  0  0  0  0  0  0  0  0999 V2000
    2.3961    3.1418    0.0206 C   0  0  0  0  0  0  0  0  0  0  0  0
    2.0811    2.6370    1.3893 C   0  0  2  0  0  0  0  0  0  0  0  0
    3.1231    1.7228    1.7840 N   0  0  0  0  0  0  0  0  0  0  0  0
    3.2492    0.3390    1.8401 C   0  0  0  0  0  0  0  0  0  0  0  0
    3.2800   -0.2278    3.0259 O   0  0  0  0  0  0  0  0  0  0  0  0
    3.3668   -0.6943    0.7991 C   0  0  2  0  0  0  0  0  0  0  0  0
    4.7734   -0.7361    0.2111 C   0  0  0  0  0  0  0  0  0  0  0  0
    5.2148    0.5284   -0.4235 C   0  0  0  0  0  0  0  0  0  0  0  0
    6.6114    0.3514   -0.9723 C   0  0  0  0  0  0  0  0  0  0  0  0
    7.6314   -0.0038    0.0558 C   0  0  0  0  0  0  0  0  0  0  0  0
    7.7675    0.9908    1.0947 N   0  0  0  0  0  0  0  0  0  0  0  0
    2.4037   -0.7077   -0.2396 N   0  0  0  0  0  0  0  0  0  0  0  0
    2.1911   -1.8630   -1.0325 C   0  0  0  0  0  0  0  0  0  0  0  0
    2.0624   -1.6699   -2.2979 O   0  0  0  0  0  0  0  0  0  0  0  0
    2.0967   -3.2550   -0.5913 C   0  0  1  0  0  0  0  0  0  0  0  0
    0.8324   -3.8718   -0.9226 N   0  0  0  0  0  0  0  0  0  0  0  0
   -0.4439   -3.3173   -0.6801 C   0  0  0  0  0  0  0  0  0  0  0  0
   -1.3011   -3.4500   -1.5947 O   0  0  0  0  0  0  0  0  0  0  0  0
   -0.8224   -2.6023    0.5666 C   0  0  2  0  0  0  0  0  0  0  0  0
   -0.4179   -3.4385    1.7860 C   0  0  0  0  0  0  0  0  0  0  0  0
   -1.6485   -4.2156    2.2003 C   0  0  0  0  0  0  0  0  0  0  0  0
   -2.6014   -3.9307    1.0501 C   0  0  0  0  0  0  0  0  0  0  0  0
   -2.2409   -2.5233    0.7638 N   0  0  0  0  0  0  0  0  0  0  0  0
   -3.0908   -1.4125    0.7370 C   0  0  0  0  0  0  0  0  0  0  0  0
   -4.3068   -1.5538    1.2231 O   0  0  0  0  0  0  0  0  0  0  0  0
   -2.8683   -0.0501    0.2446 C   0  0  2  0  0  0  0  0  0  0  0  0
   -4.1956    0.3965   -0.4195 C   0  0  0  0  0  0  0  0  0  0  0  0
   -4.5106   -0.5828   -1.5601 C   0  0  0  0  0  0  0  0  0  0  0  0
   -5.8016   -0.1601   -2.2155 C   0  0  0  0  0  0  0  0  0  0  0  0
   -6.8827   -0.1744   -1.2492 N   0  0  0  0  0  0  0  0  0  0  0  0
   -7.5842   -1.2098   -1.0128 C   0  0  0  0  0  0  0  0  0  0  0  0
   -8.6233   -1.1357   -0.0505 N   0  0  0  0  0  0  0  0  0  0  0  0
   -7.4014   -2.4710   -1.6561 N   0  0  0  0  0  0  0  0  0  0  0  0
   -1.8663    0.1705   -0.7253 N   0  0  0  0  0  0  0  0  0  0  0  0
   -1.1680    1.4182   -0.8186 C   0  0  0  0  0  0  0  0  0  0  0  0
   -0.3398    1.5207   -1.7517 O   0  0  0  0  0  0  0  0  0  0  0  0
   -1.3520    2.5732    0.0887 C   0  0  2  0  0  0  0  0  0  0  0  0
   -1.4705    3.7855   -0.7746 C   0  0  0  0  0  0  0  0  0  0  0  0
   -1.7013    5.0625   -0.0527 C   0  0  0  0  0  0  0  0  0  0  0  0
   -3.0216    5.4253    0.2515 C   0  0  0  0  0  0  0  0  0  0  0  0
   -3.3456    6.5919    0.8989 C   0  0  0  0  0  0  0  0  0  0  0  0
   -2.3270    7.4436    1.2654 C   0  0  0  0  0  0  0  0  0  0  0  0
   -2.6205    8.6521    1.9314 O   0  0  0  0  0  0  0  0  0  0  0  0
   -1.0148    7.1218    0.9837 C   0  0  0  0  0  0  0  0  0  0  0  0
   -0.7419    5.9441    0.3349 C   0  0  0  0  0  0  0  0  0  0  0  0
   -0.5613    2.6117    1.2579 N   0  0  0  0  0  0  0  0  0  0  0  0
    0.7024    2.1956    1.6500 C   0  0  0  0  0  0  0  0  0  0  0  0
    0.7519    1.1605    2.4543 O   0  0  0  0  0  0  0  0  0  0  0  0
    3.1810   -4.1360   -1.2146 C   0  0  0  0  0  0  0  0  0  0  0  0
    3.0987   -4.1498   -2.7260 C   0  0  0  0  0  0  0  0  0  0  0  0
    2.9361   -5.5665   -0.7667 C   0  0  0  0  0  0  0  0  0  0  0  0
    3.5050    3.3055   -0.0455 H   0  0  0  0  0  0  0  0  0  0  0  0
    1.9588    4.1434   -0.1180 H   0  0  0  0  0  0  0  0  0  0  0  0
    2.1530    2.4497   -0.7941 H   0  0  0  0  0  0  0  0  0  0  0  0
    2.2551    3.6327    1.9975 H   0  0  0  0  0  0  0  0  0  0  0  0
    4.0047    2.2445    2.1330 H   0  0  0  0  0  0  0  0  0  0  0  0
    3.2382   -1.7004    1.3193 H   0  0  0  0  0  0  0  0  0  0  0  0
    5.4643   -0.9495    1.0722 H   0  0  0  0  0  0  0  0  0  0  0  0
    4.8628   -1.6002   -0.4682 H   0  0  0  0  0  0  0  0  0  0  0  0
    5.3058    1.3553    0.3349 H   0  0  0  0  0  0  0  0  0  0  0  0
    4.5642    0.8343   -1.2658 H   0  0  0  0  0  0  0  0  0  0  0  0
    6.6466   -0.4461   -1.7539 H   0  0  0  0  0  0  0  0  0  0  0  0
    6.9721    1.2761   -1.4884 H   0  0  0  0  0  0  0  0  0  0  0  0
    8.6039   -0.1168   -0.4654 H   0  0  0  0  0  0  0  0  0  0  0  0
    7.4341   -0.9790    0.5439 H   0  0  0  0  0  0  0  0  0  0  0  0
    8.6426    0.9228    1.6271 H   0  0  0  0  0  0  0  0  0  0  0  0
    7.4725    1.9372    0.8370 H   0  0  0  0  0  0  0  0  0  0  0  0
    1.8299    0.1546   -0.4219 H   0  0  0  0  0  0  0  0  0  0  0  0
    2.3014   -3.2807    0.5014 H   0  0  0  0  0  0  0  0  0  0  0  0
    0.8335   -4.8104   -1.3830 H   0  0  0  0  0  0  0  0  0  0  0  0
   -0.3022   -1.6561    0.6138 H   0  0  0  0  0  0  0  0  0  0  0  0
    0.0200   -2.8399    2.5855 H   0  0  0  0  0  0  0  0  0  0  0  0
    0.3085   -4.1955    1.4291 H   0  0  0  0  0  0  0  0  0  0  0  0
   -1.4939   -5.3019    2.2243 H   0  0  0  0  0  0  0  0  0  0  0  0
   -2.1025   -3.8207    3.1249 H   0  0  0  0  0  0  0  0  0  0  0  0
   -2.4782   -4.5913    0.1995 H   0  0  0  0  0  0  0  0  0  0  0  0
   -3.6129   -4.0406    1.4488 H   0  0  0  0  0  0  0  0  0  0  0  0
   -2.7734    0.6355    1.1263 H   0  0  0  0  0  0  0  0  0  0  0  0
   -5.0043    0.2690    0.3246 H   0  0  0  0  0  0  0  0  0  0  0  0
   -4.1416    1.3928   -0.8416 H   0  0  0  0  0  0  0  0  0  0  0  0
   -4.6045   -1.6114   -1.2110 H   0  0  0  0  0  0  0  0  0  0  0  0
   -3.6931   -0.5187   -2.3114 H   0  0  0  0  0  0  0  0  0  0  0  0
   -5.6890    0.9123   -2.5243 H   0  0  0  0  0  0  0  0  0  0  0  0
   -6.0227   -0.7658   -3.1060 H   0  0  0  0  0  0  0  0  0  0  0  0
   -8.6995   -1.7230    0.7901 H   0  0  0  0  0  0  0  0  0  0  0  0
   -9.3674   -0.4296   -0.2099 H   0  0  0  0  0  0  0  0  0  0  0  0
   -7.9636   -2.6364   -2.5201 H   0  0  0  0  0  0  0  0  0  0  0  0
   -6.7587   -3.1930   -1.3095 H   0  0  0  0  0  0  0  0  0  0  0  0
   -1.6555   -0.6113   -1.3945 H   0  0  0  0  0  0  0  0  0  0  0  0
   -2.4476    2.4589    0.4246 H   0  0  0  0  0  0  0  0  0  0  0  0
   -0.6656    3.8729   -1.5339 H   0  0  0  0  0  0  0  0  0  0  0  0
   -2.3766    3.6443   -1.4020 H   0  0  0  0  0  0  0  0  0  0  0  0
   -3.8431    4.7622   -0.0314 H   0  0  0  0  0  0  0  0  0  0  0  0
   -4.3821    6.8505    1.1240 H   0  0  0  0  0  0  0  0  0  0  0  0
   -2.7874    9.4800    1.3741 H   0  0  0  0  0  0  0  0  0  0  0  0
   -0.2041    7.7979    1.2741 H   0  0  0  0  0  0  0  0  0  0  0  0
    0.2943    5.7185    0.1178 H   0  0  0  0  0  0  0  0  0  0  0  0
   -1.1108    3.0864    2.0831 H   0  0  0  0  0  0  0  0  0  0  0  0
    4.1823   -3.8607   -0.8466 H   0  0  0  0  0  0  0  0  0  0  0  0
    3.7035   -3.3101   -3.1697 H   0  0  0  0  0  0  0  0  0  0  0  0
    2.0618   -3.9979   -3.0808 H   0  0  0  0  0  0  0  0  0  0  0  0
    3.4369   -5.1118   -3.1577 H   0  0  0  0  0  0  0  0  0  0  0  0
    3.9186   -6.0448   -0.6063 H   0  0  0  0  0  0  0  0  0  0  0  0
    2.3554   -5.5317    0.1800 H   0  0  0  0  0  0  0  0  0  0  0  0
    2.3712   -6.1370   -1.5378 H   0  0  0  0  0  0  0  0  0  0  0  0
  1  2  1  0
  2  3  1  0
  3  4  1  0
  4  5  2  0
  4  6  1  0
  6  7  1  0
  7  8  1  0
  8  9  1  0
  9 10  1  0
 10 11  1  0
  6 12  1  0
 12 13  1  0
 13 14  2  0
 13 15  1  0
 15 16  1  0
 16 17  1  0
 17 18  2  0
 17 19  1  0
 19 20  1  0
 20 21  1  0
 21 22  1  0
 22 23  1  0
 23 24  1  0
 24 25  2  0
 24 26  1  0
 26 27  1  0
 27 28  1  0
 28 29  1  0
 29 30  1  0
 30 31  2  3
 31 32  1  0
 31 33  1  0
 26 34  1  0
 34 35  1  0
 35 36  2  0
 35 37  1  0
 37 38  1  0
 38 39  1  0
 39 40  2  0
 40 41  1  0
 41 42  2  0
 42 43  1  0
 42 44  1  0
 44 45  2  0
 37 46  1  0
 46 47  1  0
 47 48  2  0
 15 49  1  0
 49 50  1  0
 49 51  1  0
 47  2  1  0
 23 19  1  0
 45 39  1  0
  1 52  1  0
  1 53  1  0
  1 54  1  0
  2 55  1  1
  3 56  1  0
  6 57  1  1
  7 58  1  0
  7 59  1  0
  8 60  1  0
  8 61  1  0
  9 62  1  0
  9 63  1  0
 10 64  1  0
 10 65  1  0
 11 66  1  0
 11 67  1  0
 12 68  1  0
 15 69  1  1
 16 70  1  0
 19 71  1  1
 20 72  1  0
 20 73  1  0
 21 74  1  0
 21 75  1  0
 22 76  1  0
 22 77  1  0
 26 78  1  1
 27 79  1  0
 27 80  1  0
 28 81  1  0
 28 82  1  0
 29 83  1  0
 29 84  1  0
 32 85  1  0
 32 86  1  0
 33 87  1  0
 33 88  1  0
 34 89  1  0
 37 90  1  1
 38 91  1  0
 38 92  1  0
 40 93  1  0
 41 94  1  0
 43 95  1  0
 44 96  1  0
 45 97  1  0
 46 98  1  0
 49 99  1  0
 50100  1  0
 50101  1  0
 50102  1  0
 51103  1  0
 51104  1  0
 51105  1  0
M  END
$$$$
[H]c1c([H])c([H])c(S[C@]2([H])N([H])C(=O)[C@@]2([H])N([H])C(=O)[C@@]([H])(N([H])C(=O)OC([H])([H])c2c([H])c([H])c([H])c([H])c2[H])C([H])([H])c2c([H])c([H])c([H])c([H])c2[H])c([H])c1[H]
     RDKit          3D

 59 62  0  0  0  0  0  0  0  0999 V2000
   -2.3644    0.1867   -1.6734 O   0  0  0  0  0  0  0  0  0  0  0  0
   -2.1312   -1.0642   -1.4883 C   0  0  0  0  0  0  0  0  0  0  0  0
   -1.4098   -1.4200   -0.3231 N   0  0  0  0  0  0  0  0  0  0  0  0
   -0.9552   -0.4014    0.6061 C   0  0  1  0  0  0  0  0  0  0  0  0
   -1.7525   -0.4957    1.9112 C   0  0  0  0  0  0  0  0  0  0  0  0
   -1.5886   -1.8433    2.5226 C   0  0  0  0  0  0  0  0  0  0  0  0
   -0.5677   -2.0490    3.4156 C   0  0  0  0  0  0  0  0  0  0  0  0
   -0.3405   -3.2792    4.0164 C   0  0  0  0  0  0  0  0  0  0  0  0
   -1.1760   -4.3282    3.6984 C   0  0  0  0  0  0  0  0  0  0  0  0
   -2.2148   -4.1294    2.7929 C   0  0  0  0  0  0  0  0  0  0  0  0
   -2.4252   -2.9001    2.2055 C   0  0  0  0  0  0  0  0  0  0  0  0
    0.4963   -0.4755    0.8949 C   0  0  0  0  0  0  0  0  0  0  0  0
    1.1879   -1.4882    0.6428 O   0  0  0  0  0  0  0  0  0  0  0  0
    1.1165    0.6422    1.4668 N   0  0  0  0  0  0  0  0  0  0  0  0
    2.5197    0.6508    1.7640 C   0  0  1  0  0  0  0  0  0  0  0  0
    3.3170    1.5786    0.8025 C   0  0  1  0  0  0  0  0  0  0  0  0
    2.9256    2.6243    1.7414 N   0  0  0  0  0  0  0  0  0  0  0  0
    3.0017    1.6261    2.7521 C   0  0  0  0  0  0  0  0  0  0  0  0
    3.3392    1.6291    3.9492 O   0  0  0  0  0  0  0  0  0  0  0  0
    5.0593    1.1606    0.9497 S   0  0  0  0  0  0  0  0  0  0  0  0
    6.0368    2.1810   -0.1383 C   0  0  0  0  0  0  0  0  0  0  0  0
    6.2532    1.7319   -1.4305 C   0  0  0  0  0  0  0  0  0  0  0  0
    7.0140    2.4972   -2.2941 C   0  0  0  0  0  0  0  0  0  0  0  0
    7.5256    3.6783   -1.8286 C   0  0  0  0  0  0  0  0  0  0  0  0
    7.3141    4.1362   -0.5340 C   0  0  0  0  0  0  0  0  0  0  0  0
    6.5470    3.3654    0.3381 C   0  0  0  0  0  0  0  0  0  0  0  0
   -2.5984   -1.9290   -2.4348 O   0  0  0  0  0  0  0  0  0  0  0  0
   -3.3045   -1.4799   -3.5512 C   0  0  0  0  0  0  0  0  0  0  0  0
   -4.5752   -0.7785   -3.2667 C   0  0  0  0  0  0  0  0  0  0  0  0
   -4.7427    0.5588   -3.5532 C   0  0  0  0  0  0  0  0  0  0  0  0
   -5.9375    1.2151   -3.2991 C   0  0  0  0  0  0  0  0  0  0  0  0
   -6.9972    0.5142   -2.7418 C   0  0  0  0  0  0  0  0  0  0  0  0
   -6.8590   -0.8081   -2.4496 C   0  0  0  0  0  0  0  0  0  0  0  0
   -5.6447   -1.4592   -2.7112 C   0  0  0  0  0  0  0  0  0  0  0  0
   -1.2057   -2.4128   -0.1360 H   0  0  0  0  0  0  0  0  0  0  0  0
   -1.2178    0.5806    0.1831 H   0  0  0  0  0  0  0  0  0  0  0  0
   -1.3170    0.2396    2.6127 H   0  0  0  0  0  0  0  0  0  0  0  0
   -2.7939   -0.2278    1.7255 H   0  0  0  0  0  0  0  0  0  0  0  0
    0.1010   -1.2286    3.6793 H   0  0  0  0  0  0  0  0  0  0  0  0
    0.4731   -3.4359    4.7284 H   0  0  0  0  0  0  0  0  0  0  0  0
   -1.0607   -5.3161    4.1251 H   0  0  0  0  0  0  0  0  0  0  0  0
   -2.8694   -4.9561    2.5450 H   0  0  0  0  0  0  0  0  0  0  0  0
   -3.2408   -2.7799    1.5110 H   0  0  0  0  0  0  0  0  0  0  0  0
    0.5509    1.4889    1.6776 H   0  0  0  0  0  0  0  0  0  0  0  0
    3.0213   -0.3407    1.7186 H   0  0  0  0  0  0  0  0  0  0  0  0
    2.8908    1.6421   -0.1949 H   0  0  0  0  0  0  0  0  0  0  0  0
    2.6848    3.6319    1.7616 H   0  0  0  0  0  0  0  0  0  0  0  0
    5.8240    0.7771   -1.7653 H   0  0  0  0  0  0  0  0  0  0  0  0
    7.1849    2.1542   -3.3098 H   0  0  0  0  0  0  0  0  0  0  0  0
    8.1325    4.3030   -2.4873 H   0  0  0  0  0  0  0  0  0  0  0  0
    7.7131    5.0558   -0.1714 H   0  0  0  0  0  0  0  0  0  0  0  0
    6.3577    3.6935    1.3736 H   0  0  0  0  0  0  0  0  0  0  0  0
   -3.4378   -2.2969   -4.3223 H   0  0  0  0  0  0  0  0  0  0  0  0
   -2.5844   -0.7821   -4.0875 H   0  0  0  0  0  0  0  0  0  0  0  0
   -3.9382    1.1621   -3.9922 H   0  0  0  0  0  0  0  0  0  0  0  0
   -6.0964    2.2563   -3.5114 H   0  0  0  0  0  0  0  0  0  0  0  0
   -7.9436    1.0051   -2.5343 H   0  0  0  0  0  0  0  0  0  0  0  0
   -7.6847   -1.3546   -2.0146 H   0  0  0  0  0  0  0  0  0  0  0  0
   -5.6129   -2.5064   -2.4552 H   0  0  0  0  0  0  0  0  0  0  0  0
  1  2  2  0
  2  3  1  0
  3  4  1  0
  4  5  1  0
  5  6  1  0
  6  7  2  0
  7  8  1  0
  8  9  2  0
  9 10  1  0
 10 11  2  0
  4 12  1  0
 12 13  2  0
 12 14  1  0
 14 15  1  0
 15 16  1  0
 16 17  1  0
 17 18  1  0
 18 19  2  0
 16 20  1  0
 20 21  1  0
 21 22  2  0
 22 23  1  0
 23 24  2  0
 24 25  1  0
 25 26  2  0
  2 27  1  0
 27 28  1  0
 28 29  1  0
 29 30  2  0
 30 31  1  0
 31 32  2  0
 32 33  1  0
 33 34  2  0
 11  6  1  0
 18 15  1  0
 26 21  1  0
 34 29  1  0
  3 35  1  0
  4 36  1  6
  5 37  1  0
  5 38  1  0
  7 39  1  0
  8 40  1  0
  9 41  1  0
 10 42  1  0
 11 43  1  0
 14 44  1  0
 15 45  1  1
 16 46  1  6
 17 47  1  0
 22 48  1  0
 23 49  1  0
 24 50  1  0
 25 51  1  0
 26 52  1  0
 28 53  1  0
 28 54  1  0
 30 55  1  0
 31 56  1  0
 32 57  1  0
 33 58  1  0
 34 59  1  0
M  END
$$$$
[H]c1nc2c(C([H])([H])[H])c([H])c(-c3c(C([H])(C([H])([H])[H])C([H])([H])[H])c4c([H])c(C5([H])C([H])([H])C([H])([H])N(C([H])([H])C(=O)N6C([H])([H])C([H])([H])OC([H])([H])C6([H])[H])C([H])([H])C5([H])[H])c([H])c([H])c4n3[H])c([H])n2n1
     RDKit          3D

 73 78  0  0  0  0  0  0  0  0999 V2000
   -3.3118   -1.5338   -2.4718 C   0  0  0  0  0  0  0  0  0  0  0  0
   -3.3794   -0.2049   -1.7553 C   0  0  0  0  0  0  0  0  0  0  0  0
   -3.8188    0.9870   -2.5217 C   0  0  0  0  0  0  0  0  0  0  0  0
   -3.3857   -0.2621   -0.3065 C   0  0  0  0  0  0  0  0  0  0  0  0
   -4.3941   -0.0528    0.5870 C   0  0  0  0  0  0  0  0  0  0  0  0
   -3.8190   -0.0165    1.8361 N   0  0  0  0  0  0  0  0  0  0  0  0
   -2.5284   -0.1925    1.7827 C   0  0  0  0  0  0  0  0  0  0  0  0
   -1.5648   -0.2155    2.7568 C   0  0  0  0  0  0  0  0  0  0  0  0
   -0.2237   -0.4041    2.4206 C   0  0  0  0  0  0  0  0  0  0  0  0
    0.1123   -0.5673    1.1083 C   0  0  0  0  0  0  0  0  0  0  0  0
   -0.8642   -0.5474    0.1254 C   0  0  0  0  0  0  0  0  0  0  0  0
   -2.1814   -0.3568    0.4767 C   0  0  0  0  0  0  0  0  0  0  0  0
    1.5215   -0.7401    0.7057 C   0  0  0  0  0  0  0  0  0  0  0  0
    2.3024    0.5678    0.9224 C   0  0  0  0  0  0  0  0  0  0  0  0
    3.7499    0.1990    0.7479 C   0  0  0  0  0  0  0  0  0  0  0  0
    3.9207   -0.9105   -0.2142 N   0  0  0  0  0  0  0  0  0  0  0  0
    5.3200   -1.0203   -0.4679 C   0  0  0  0  0  0  0  0  0  0  0  0
    5.9228    0.0870   -1.2266 C   0  0  0  0  0  0  0  0  0  0  0  0
    5.1776    1.0084   -1.6677 O   0  0  0  0  0  0  0  0  0  0  0  0
    7.2920    0.1689   -1.4757 N   0  0  0  0  0  0  0  0  0  0  0  0
    8.2496   -0.8392   -1.0939 C   0  0  0  0  0  0  0  0  0  0  0  0
    9.1957   -0.2003   -0.0410 C   0  0  0  0  0  0  0  0  0  0  0  0
    9.6516    1.0174   -0.4561 O   0  0  0  0  0  0  0  0  0  0  0  0
    8.6879    1.9216   -0.8025 C   0  0  0  0  0  0  0  0  0  0  0  0
    7.9470    1.3817   -2.0527 C   0  0  0  0  0  0  0  0  0  0  0  0
    3.5344   -2.1190    0.5639 C   0  0  0  0  0  0  0  0  0  0  0  0
    2.2585   -1.8348    1.3802 C   0  0  0  0  0  0  0  0  0  0  0  0
   -5.8312   -0.0785    0.3992 C   0  0  0  0  0  0  0  0  0  0  0  0
   -6.6339   -0.3510    1.5287 C   0  0  0  0  0  0  0  0  0  0  0  0
   -7.9991   -0.3856    1.5018 C   0  0  0  0  0  0  0  0  0  0  0  0
   -8.7864   -0.7182    2.7390 C   0  0  0  0  0  0  0  0  0  0  0  0
   -8.6418   -0.1406    0.3071 C   0  0  0  0  0  0  0  0  0  0  0  0
   -9.9315   -0.1005   -0.0013 N   0  0  0  0  0  0  0  0  0  0  0  0
  -10.0040    0.1915   -1.3129 C   0  0  0  0  0  0  0  0  0  0  0  0
   -8.7585    0.3265   -1.7871 N   0  0  0  0  0  0  0  0  0  0  0  0
   -7.9014    0.1195   -0.7774 N   0  0  0  0  0  0  0  0  0  0  0  0
   -6.5303    0.1492   -0.7381 C   0  0  0  0  0  0  0  0  0  0  0  0
   -2.3446   -1.8472   -2.8587 H   0  0  0  0  0  0  0  0  0  0  0  0
   -3.9923   -1.5114   -3.3666 H   0  0  0  0  0  0  0  0  0  0  0  0
   -3.6595   -2.3622   -1.7727 H   0  0  0  0  0  0  0  0  0  0  0  0
   -2.1492    0.0351   -1.9243 H   0  0  0  0  0  0  0  0  0  0  0  0
   -4.2028    1.8061   -1.8437 H   0  0  0  0  0  0  0  0  0  0  0  0
   -4.5479    0.7468   -3.3386 H   0  0  0  0  0  0  0  0  0  0  0  0
   -2.9935    1.5288   -3.0805 H   0  0  0  0  0  0  0  0  0  0  0  0
   -4.3821    0.1522    2.7145 H   0  0  0  0  0  0  0  0  0  0  0  0
   -1.8655   -0.0815    3.7811 H   0  0  0  0  0  0  0  0  0  0  0  0
    0.5386   -0.4202    3.2007 H   0  0  0  0  0  0  0  0  0  0  0  0
   -0.6253   -0.6829   -0.9291 H   0  0  0  0  0  0  0  0  0  0  0  0
    1.5902   -0.9307   -0.4098 H   0  0  0  0  0  0  0  0  0  0  0  0
    2.1305    0.8104    2.0160 H   0  0  0  0  0  0  0  0  0  0  0  0
    1.9445    1.3375    0.2410 H   0  0  0  0  0  0  0  0  0  0  0  0
    4.2898    1.0840    0.4672 H   0  0  0  0  0  0  0  0  0  0  0  0
    4.1753   -0.1544    1.7388 H   0  0  0  0  0  0  0  0  0  0  0  0
    5.8546   -1.1544    0.5036 H   0  0  0  0  0  0  0  0  0  0  0  0
    5.5558   -1.9560   -1.0594 H   0  0  0  0  0  0  0  0  0  0  0  0
    8.9174   -1.0554   -1.9755 H   0  0  0  0  0  0  0  0  0  0  0  0
    7.8481   -1.7666   -0.7124 H   0  0  0  0  0  0  0  0  0  0  0  0
    8.6655   -0.2202    0.9431 H   0  0  0  0  0  0  0  0  0  0  0  0
   10.0678   -0.9031    0.0158 H   0  0  0  0  0  0  0  0  0  0  0  0
    9.0821    2.9399   -1.0048 H   0  0  0  0  0  0  0  0  0  0  0  0
    7.8879    1.9666   -0.0038 H   0  0  0  0  0  0  0  0  0  0  0  0
    7.2155    2.1037   -2.3795 H   0  0  0  0  0  0  0  0  0  0  0  0
    8.6640    1.0819   -2.8217 H   0  0  0  0  0  0  0  0  0  0  0  0
    4.4102   -2.2856    1.2519 H   0  0  0  0  0  0  0  0  0  0  0  0
    3.3382   -2.9529   -0.0941 H   0  0  0  0  0  0  0  0  0  0  0  0
    2.6090   -1.4337    2.3858 H   0  0  0  0  0  0  0  0  0  0  0  0
    1.6906   -2.7586    1.5185 H   0  0  0  0  0  0  0  0  0  0  0  0
   -6.1453   -0.5558    2.4720 H   0  0  0  0  0  0  0  0  0  0  0  0
   -8.1911   -1.4361    3.3481 H   0  0  0  0  0  0  0  0  0  0  0  0
   -8.8798    0.2256    3.3093 H   0  0  0  0  0  0  0  0  0  0  0  0
   -9.7962   -1.1129    2.4471 H   0  0  0  0  0  0  0  0  0  0  0  0
  -10.9701    0.2928   -1.8272 H   0  0  0  0  0  0  0  0  0  0  0  0
   -6.0849    0.3371   -1.6715 H   0  0  0  0  0  0  0  0  0  0  0  0
  1  2  1  0
  2  3  1  0
  2  4  1  0
  4  5  2  0
  5  6  1  0
  6  7  1  0
  7  8  2  0
  8  9  1  0
  9 10  2  0
 10 11  1  0
 11 12  2  0
 10 13  1  0
 13 14  1  0
 14 15  1  0
 15 16  1  0
 16 17  1  0
 17 18  1  0
 18 19  2  0
 18 20  1  0
 20 21  1  0
 21 22  1  0
 22 23  1  0
 23 24  1  0
 24 25  1  0
 16 26  1  0
 26 27  1  0
  5 28  1  0
 28 29  1  0
 29 30  2  0
 30 31  1  0
 30 32  1  0
 32 33  2  0
 33 34  1  0
 34 35  2  0
 35 36  1  0
 36 37  1  0
 12  4  1  0
 27 13  1  0
 37 28  2  0
 12  7  1  0
 25 20  1  0
 36 32  1  0
  1 38  1  0
  1 39  1  0
  1 40  1  0
  2 41  1  0
  3 42  1  0
  3 43  1  0
  3 44  1  0
  6 45  1  0
  8 46  1  0
  9 47  1  0
 11 48  1  0
 13 49  1  0
 14 50  1  0
 14 51  1  0
 15 52  1  0
 15 53  1  0
 17 54  1  0
 17 55  1  0
 21 56  1  0
 21 57  1  0
 22 58  1  0
 22 59  1  0
 24 60  1  0
 24 61  1  0
 25 62  1  0
 25 63  1  0
 26 64  1  0
 26 65  1  0
 27 66  1  0
 27 67  1  0
 29 68  1  0
 31 69  1  0
 31 70  1  0
 31 71  1  0
 34 72  1  0
 37 73  1  0
M  END
$$$$
[H]Oc1c([H])c([H])c(C([H])([H])[C@@]([H])(C(=O)N([H])[H])N([H])C(=O)[C@@]([H])(N([H])C(=O)[C@@]([H])(N([H])C(=O)c2c(N([H])[H])nn3c([H])c([H])c([H])nc23)[C@]([H])(O[H])C([H])([H])[H])C([H])([H])c2c([H])c([H])c([H])c([H])c2[H])c([H])c1[H]
     RDKit          3D

 75 78  0  0  0  0  0  0  0  0999 V2000
    1.5818   -0.5495   -2.5171 C   0  0  0  0  0  0  0  0  0  0  0  0
    2.2426    0.7749   -2.5540 C   0  0  1  0  0  0  0  0  0  0  0  0
    1.3095    1.7336   -3.0205 O   0  0  0  0  0  0  0  0  0  0  0  0
    2.6369    1.3075   -1.1530 C   0  0  2  0  0  0  0  0  0  0  0  0
    3.5886    0.3903   -0.5269 N   0  0  0  0  0  0  0  0  0  0  0  0
    4.7921   -0.0668   -1.0150 C   0  0  0  0  0  0  0  0  0  0  0  0
    5.2494    0.2217   -2.1212 O   0  0  0  0  0  0  0  0  0  0  0  0
    5.6134   -0.9597   -0.1816 C   0  0  0  0  0  0  0  0  0  0  0  0
    6.7686   -1.5934   -0.5742 C   0  0  0  0  0  0  0  0  0  0  0  0
    7.3403   -1.5816   -1.8968 N   0  0  0  0  0  0  0  0  0  0  0  0
    7.2400   -2.2465    0.4983 N   0  0  0  0  0  0  0  0  0  0  0  0
    6.4311   -2.0424    1.5302 N   0  0  0  0  0  0  0  0  0  0  0  0
    6.4409   -2.4399    2.8184 C   0  0  0  0  0  0  0  0  0  0  0  0
    5.4931   -2.0899    3.7403 C   0  0  0  0  0  0  0  0  0  0  0  0
    4.4667   -1.2820    3.3299 C   0  0  0  0  0  0  0  0  0  0  0  0
    4.4680   -0.8979    2.0640 N   0  0  0  0  0  0  0  0  0  0  0  0
    5.3932   -1.2368    1.1496 C   0  0  0  0  0  0  0  0  0  0  0  0
    1.4574    1.3583   -0.3500 C   0  0  0  0  0  0  0  0  0  0  0  0
    1.3674    0.5360    0.6806 O   0  0  0  0  0  0  0  0  0  0  0  0
    0.3215    2.1824   -0.4811 N   0  0  0  0  0  0  0  0  0  0  0  0
   -0.7748    1.9894    0.4900 C   0  0  1  0  0  0  0  0  0  0  0  0
   -0.9869    3.1452    1.3878 C   0  0  0  0  0  0  0  0  0  0  0  0
   -1.3280    4.4186    0.7344 C   0  0  0  0  0  0  0  0  0  0  0  0
   -2.6807    4.7387    0.5714 C   0  0  0  0  0  0  0  0  0  0  0  0
   -2.9813    5.9066   -0.0191 C   0  0  0  0  0  0  0  0  0  0  0  0
   -1.9876    6.7785   -0.4568 C   0  0  0  0  0  0  0  0  0  0  0  0
   -0.6428    6.4455   -0.2825 C   0  0  0  0  0  0  0  0  0  0  0  0
   -0.3247    5.2611    0.3161 C   0  0  0  0  0  0  0  0  0  0  0  0
   -2.0139    1.6171   -0.3210 C   0  0  0  0  0  0  0  0  0  0  0  0
   -2.2218    2.3793   -1.2708 O   0  0  0  0  0  0  0  0  0  0  0  0
   -2.7167    0.5227    0.0619 N   0  0  0  0  0  0  0  0  0  0  0  0
   -3.4541   -0.6167    0.4556 C   0  0  1  0  0  0  0  0  0  0  0  0
   -3.4862   -1.6048   -0.7202 C   0  0  0  0  0  0  0  0  0  0  0  0
   -4.2117   -2.8502   -0.4911 C   0  0  0  0  0  0  0  0  0  0  0  0
   -5.6164   -2.8589   -0.5869 C   0  0  0  0  0  0  0  0  0  0  0  0
   -6.3539   -4.0124   -0.4655 C   0  0  0  0  0  0  0  0  0  0  0  0
   -5.7382   -5.2064   -0.2456 C   0  0  0  0  0  0  0  0  0  0  0  0
   -6.5357   -6.3666   -0.1342 O   0  0  0  0  0  0  0  0  0  0  0  0
   -4.3590   -5.2566   -0.1431 C   0  0  0  0  0  0  0  0  0  0  0  0
   -3.6225   -4.0846   -0.2672 C   0  0  0  0  0  0  0  0  0  0  0  0
   -3.1071   -1.1787    1.7438 C   0  0  0  0  0  0  0  0  0  0  0  0
   -3.6163   -2.3404    2.2961 N   0  0  0  0  0  0  0  0  0  0  0  0
   -2.2261   -0.5805    2.5076 O   0  0  0  0  0  0  0  0  0  0  0  0
    2.2881   -1.3711   -2.8874 H   0  0  0  0  0  0  0  0  0  0  0  0
    1.1847   -0.8860   -1.5543 H   0  0  0  0  0  0  0  0  0  0  0  0
    0.7298   -0.6051   -3.2338 H   0  0  0  0  0  0  0  0  0  0  0  0
    3.1502    0.8076   -3.1724 H   0  0  0  0  0  0  0  0  0  0  0  0
    1.6621    2.6251   -3.0711 H   0  0  0  0  0  0  0  0  0  0  0  0
    3.1392    2.2454   -1.3962 H   0  0  0  0  0  0  0  0  0  0  0  0
    3.2349    0.0585    0.4358 H   0  0  0  0  0  0  0  0  0  0  0  0
    6.9439   -2.2176   -2.6371 H   0  0  0  0  0  0  0  0  0  0  0  0
    8.1355   -0.9773   -2.1430 H   0  0  0  0  0  0  0  0  0  0  0  0
    7.2662   -3.0898    3.1287 H   0  0  0  0  0  0  0  0  0  0  0  0
    5.4746   -2.4124    4.7775 H   0  0  0  0  0  0  0  0  0  0  0  0
    3.6839   -1.0014    4.0419 H   0  0  0  0  0  0  0  0  0  0  0  0
    0.2072    2.8880   -1.1933 H   0  0  0  0  0  0  0  0  0  0  0  0
   -0.4810    1.1282    1.1203 H   0  0  0  0  0  0  0  0  0  0  0  0
   -0.0366    3.2453    1.9987 H   0  0  0  0  0  0  0  0  0  0  0  0
   -1.7833    2.8489    2.1288 H   0  0  0  0  0  0  0  0  0  0  0  0
   -3.3777    4.0137    0.9318 H   0  0  0  0  0  0  0  0  0  0  0  0
   -4.0267    6.1939   -0.1666 H   0  0  0  0  0  0  0  0  0  0  0  0
   -2.3072    7.6925   -0.9253 H   0  0  0  0  0  0  0  0  0  0  0  0
    0.1040    7.1058   -0.5986 H   0  0  0  0  0  0  0  0  0  0  0  0
    0.7303    4.9850    0.4556 H   0  0  0  0  0  0  0  0  0  0  0  0
   -3.6031    0.7853   -0.9583 H   0  0  0  0  0  0  0  0  0  0  0  0
   -4.5579   -0.3159    0.5413 H   0  0  0  0  0  0  0  0  0  0  0  0
   -4.1052   -1.0421   -1.5075 H   0  0  0  0  0  0  0  0  0  0  0  0
   -2.5052   -1.7151   -1.2020 H   0  0  0  0  0  0  0  0  0  0  0  0
   -6.1197   -1.9361   -0.7569 H   0  0  0  0  0  0  0  0  0  0  0  0
   -7.4479   -4.0094   -0.5484 H   0  0  0  0  0  0  0  0  0  0  0  0
   -6.6945   -6.8292   -1.0485 H   0  0  0  0  0  0  0  0  0  0  0  0
   -3.8963   -6.2137    0.0228 H   0  0  0  0  0  0  0  0  0  0  0  0
   -2.5420   -4.1552   -0.1933 H   0  0  0  0  0  0  0  0  0  0  0  0
   -4.6454   -2.4996    2.3545 H   0  0  0  0  0  0  0  0  0  0  0  0
   -3.0211   -3.1103    2.6756 H   0  0  0  0  0  0  0  0  0  0  0  0
  1  2  1  0
  2  3  1  0
  2  4  1  0
  4  5  1  0
  5  6  1  0
  6  7  2  0
  6  8  1  0
  8  9  1  0
  9 10  1  0
  9 11  2  0
 11 12  1  0
 12 13  1  0
 13 14  2  0
 14 15  1  0
 15 16  2  0
 16 17  1  0
  4 18  1  0
 18 19  2  0
 18 20  1  0
 20 21  1  0
 21 22  1  0
 22 23  1  0
 23 24  2  0
 24 25  1  0
 25 26  2  0
 26 27  1  0
 27 28  2  0
 21 29  1  0
 29 30  2  0
 29 31  1  0
 31 32  1  0
 32 33  1  0
 33 34  1  0
 34 35  2  0
 35 36  1  0
 36 37  2  0
 37 38  1  0
 37 39  1  0
 39 40  2  0
 32 41  1  0
 41 42  1  0
 41 43  2  0
 17  8  2  0
 28 23  1  0
 40 34  1  0
 17 12  1  0
  1 44  1  0
  1 45  1  0
  1 46  1  0
  2 47  1  6
  3 48  1  0
  4 49  1  6
  5 50  1  0
 10 51  1  0
 10 52  1  0
 13 53  1  0
 14 54  1  0
 15 55  1  0
 20 56  1  0
 21 57  1  1
 22 58  1  0
 22 59  1  0
 24 60  1  0
 25 61  1  0
 26 62  1  0
 27 63  1  0
 28 64  1  0
 31 65  1  0
 32 66  1  1
 33 67  1  0
 33 68  1  0
 35 69  1  0
 36 70  1  0
 38 71  1  0
 39 72  1  0
 40 73  1  0
 42 74  1  0
 42 75  1  0
M  END
$$$$
[H]c1c([H])c([H])c(C([H])([H])OC(=O)N([H])[C@]([H])(C(=O)N([H])[C@]([H])(C(=O)N([H])[C@]([H])(C(=O)N([H])C([H])([H])[H])C([H])([H])c2c([H])c([H])c([H])c([H])c2[H])C([H])([H])C([H])(C([H])([H])[H])C([H])([H])[H])C([H])([H])C([H])(C([H])([H])[H])C([H])([H])[H])c([H])c1[H]
     RDKit          3D

 81 82  0  0  0  0  0  0  0  0999 V2000
   -6.5533   -0.9620    3.7093 C   0  0  0  0  0  0  0  0  0  0  0  0
   -5.3206   -0.3255    3.3693 N   0  0  0  0  0  0  0  0  0  0  0  0
   -4.7528   -0.4761    2.0865 C   0  0  0  0  0  0  0  0  0  0  0  0
   -5.3465   -1.1805    1.2404 O   0  0  0  0  0  0  0  0  0  0  0  0
   -3.4941    0.1685    1.7340 C   0  0  2  0  0  0  0  0  0  0  0  0
   -3.4857    1.6739    1.8311 C   0  0  0  0  0  0  0  0  0  0  0  0
   -4.4405    2.3674    0.9659 C   0  0  0  0  0  0  0  0  0  0  0  0
   -5.6886    2.6936    1.4454 C   0  0  0  0  0  0  0  0  0  0  0  0
   -6.6278    3.3444    0.6607 C   0  0  0  0  0  0  0  0  0  0  0  0
   -6.2989    3.6736   -0.6384 C   0  0  0  0  0  0  0  0  0  0  0  0
   -5.0452    3.3413   -1.1070 C   0  0  0  0  0  0  0  0  0  0  0  0
   -4.1173    2.7023   -0.3428 C   0  0  0  0  0  0  0  0  0  0  0  0
   -3.0681   -0.1895    0.3622 N   0  0  0  0  0  0  0  0  0  0  0  0
   -1.8173   -0.8098    0.1753 C   0  0  0  0  0  0  0  0  0  0  0  0
   -1.1303   -1.0204    1.2446 O   0  0  0  0  0  0  0  0  0  0  0  0
   -1.2333   -1.2282   -1.1227 C   0  0  2  0  0  0  0  0  0  0  0  0
   -1.8889   -2.3860   -1.7650 C   0  0  0  0  0  0  0  0  0  0  0  0
   -3.3064   -2.3081   -2.1614 C   0  0  0  0  0  0  0  0  0  0  0  0
   -3.6671   -1.2724   -3.1688 C   0  0  0  0  0  0  0  0  0  0  0  0
   -3.7752   -3.6754   -2.7059 C   0  0  0  0  0  0  0  0  0  0  0  0
    0.1504   -1.7171   -0.8186 N   0  0  0  0  0  0  0  0  0  0  0  0
    1.2594   -0.9154   -1.0780 C   0  0  0  0  0  0  0  0  0  0  0  0
    1.0892    0.2326   -1.5591 O   0  0  0  0  0  0  0  0  0  0  0  0
    2.6416   -1.4009   -0.7920 C   0  0  2  0  0  0  0  0  0  0  0  0
    2.5673   -2.6132    0.0633 C   0  0  0  0  0  0  0  0  0  0  0  0
    3.8509   -3.2458    0.4674 C   0  0  0  0  0  0  0  0  0  0  0  0
    4.7818   -2.3873    1.2782 C   0  0  0  0  0  0  0  0  0  0  0  0
    3.4894   -4.4354    1.3726 C   0  0  0  0  0  0  0  0  0  0  0  0
    3.4271   -0.3122   -0.3067 N   0  0  0  0  0  0  0  0  0  0  0  0
    4.3822    0.3209   -1.1594 C   0  0  0  0  0  0  0  0  0  0  0  0
    4.5568   -0.0486   -2.3453 O   0  0  0  0  0  0  0  0  0  0  0  0
    5.1560    1.3757   -0.6986 O   0  0  0  0  0  0  0  0  0  0  0  0
    6.0976    2.0144   -1.5293 C   0  0  0  0  0  0  0  0  0  0  0  0
    6.7838    3.1007   -0.7328 C   0  0  0  0  0  0  0  0  0  0  0  0
    7.3301    4.2100   -1.3147 C   0  0  0  0  0  0  0  0  0  0  0  0
    7.9549    5.1771   -0.5715 C   0  0  0  0  0  0  0  0  0  0  0  0
    8.0542    5.0585    0.8202 C   0  0  0  0  0  0  0  0  0  0  0  0
    7.4937    3.9297    1.3743 C   0  0  0  0  0  0  0  0  0  0  0  0
    6.8647    2.9534    0.6405 C   0  0  0  0  0  0  0  0  0  0  0  0
   -7.2334   -1.1161    2.8696 H   0  0  0  0  0  0  0  0  0  0  0  0
   -7.0506   -0.3295    4.4877 H   0  0  0  0  0  0  0  0  0  0  0  0
   -6.3336   -1.9425    4.2226 H   0  0  0  0  0  0  0  0  0  0  0  0
   -4.8215    0.2637    4.0770 H   0  0  0  0  0  0  0  0  0  0  0  0
   -2.6988   -0.1934    2.4056 H   0  0  0  0  0  0  0  0  0  0  0  0
   -2.4810    2.0558    1.6370 H   0  0  0  0  0  0  0  0  0  0  0  0
   -3.7359    1.9366    2.8941 H   0  0  0  0  0  0  0  0  0  0  0  0
   -6.0144    2.4653    2.4735 H   0  0  0  0  0  0  0  0  0  0  0  0
   -7.6162    3.6007    1.0479 H   0  0  0  0  0  0  0  0  0  0  0  0
   -7.0253    4.1930   -1.2909 H   0  0  0  0  0  0  0  0  0  0  0  0
   -4.7526    3.5893   -2.1346 H   0  0  0  0  0  0  0  0  0  0  0  0
   -3.1149    2.4327   -0.7046 H   0  0  0  0  0  0  0  0  0  0  0  0
   -3.7324    0.0542   -0.4090 H   0  0  0  0  0  0  0  0  0  0  0  0
   -1.0976   -0.3215   -1.7349 H   0  0  0  0  0  0  0  0  0  0  0  0
   -1.7878   -3.2486   -1.0309 H   0  0  0  0  0  0  0  0  0  0  0  0
   -1.3088   -2.7580   -2.6635 H   0  0  0  0  0  0  0  0  0  0  0  0
   -3.9668   -2.1434   -1.2565 H   0  0  0  0  0  0  0  0  0  0  0  0
   -4.1182   -0.3719   -2.7254 H   0  0  0  0  0  0  0  0  0  0  0  0
   -2.8091   -1.0500   -3.8386 H   0  0  0  0  0  0  0  0  0  0  0  0
   -4.4772   -1.6965   -3.8347 H   0  0  0  0  0  0  0  0  0  0  0  0
   -3.1673   -4.4685   -2.1872 H   0  0  0  0  0  0  0  0  0  0  0  0
   -3.5680   -3.7642   -3.7870 H   0  0  0  0  0  0  0  0  0  0  0  0
   -4.8384   -3.8570   -2.4524 H   0  0  0  0  0  0  0  0  0  0  0  0
    0.2559   -2.6613   -0.4067 H   0  0  0  0  0  0  0  0  0  0  0  0
    3.0603   -1.6741   -1.8131 H   0  0  0  0  0  0  0  0  0  0  0  0
    2.0336   -3.3982   -0.5765 H   0  0  0  0  0  0  0  0  0  0  0  0
    1.8986   -2.4890    0.9449 H   0  0  0  0  0  0  0  0  0  0  0  0
    4.3752   -3.6849   -0.4242 H   0  0  0  0  0  0  0  0  0  0  0  0
    5.3792   -3.0188    2.0033 H   0  0  0  0  0  0  0  0  0  0  0  0
    4.2440   -1.6805    1.9373 H   0  0  0  0  0  0  0  0  0  0  0  0
    5.5529   -1.9056    0.6455 H   0  0  0  0  0  0  0  0  0  0  0  0
    4.3202   -4.6284    2.0850 H   0  0  0  0  0  0  0  0  0  0  0  0
    3.2182   -5.3265    0.7773 H   0  0  0  0  0  0  0  0  0  0  0  0
    2.6083   -4.0991    1.9660 H   0  0  0  0  0  0  0  0  0  0  0  0
    3.3227    0.0482    0.6560 H   0  0  0  0  0  0  0  0  0  0  0  0
    5.6206    2.4717   -2.4203 H   0  0  0  0  0  0  0  0  0  0  0  0
    6.8380    1.2784   -1.9066 H   0  0  0  0  0  0  0  0  0  0  0  0
    7.2560    4.3072   -2.4000 H   0  0  0  0  0  0  0  0  0  0  0  0
    8.3886    6.0606   -1.0412 H   0  0  0  0  0  0  0  0  0  0  0  0
    8.5438    5.8111    1.4280 H   0  0  0  0  0  0  0  0  0  0  0  0
    7.5433    3.7798    2.4703 H   0  0  0  0  0  0  0  0  0  0  0  0
    6.4172    2.0511    1.0870 H   0  0  0  0  0  0  0  0  0  0  0  0
  1  2  1  0
  2  3  1  0
  3  4  2  0
  3  5  1  0
  5  6  1  0
  6  7  1  0
  7  8  2  0
  8  9  1  0
  9 10  2  0
 10 11  1  0
 11 12  2  0
  5 13  1  0
 13 14  1  0
 14 15  2  0
 14 16  1  0
 16 17  1  0
 17 18  1  0
 18 19  1  0
 18 20  1  0
 16 21  1  0
 21 22  1  0
 22 23  2  0
 22 24  1  0
 24 25  1  0
 25 26  1  0
 26 27  1  0
 26 28  1  0
 24 29  1  0
 29 30  1  0
 30 31  2  0
 30 32  1  0
 32 33  1  0
 33 34  1  0
 34 35  2  0
 35 36  1  0
 36 37  2  0
 37 38  1  0
 38 39  2  0
 12  7  1  0
 39 34  1  0
  1 40  1  0
  1 41  1  0
  1 42  1  0
  2 43  1  0
  5 44  1  1
  6 45  1  0
  6 46  1  0
  8 47  1  0
  9 48  1  0
 10 49  1  0
 11 50  1  0
 12 51  1  0
 13 52  1  0
 16 53  1  6
 17 54  1  0
 17 55  1  0
 18 56  1  0
 19 57  1  0
 19 58  1  0
 19 59  1  0
 20 60  1  0
 20 61  1  0
 20 62  1  0
 21 63  1  0
 24 64  1  6
 25 65  1  0
 25 66  1  0
 26 67  1  0
 27 68  1  0
 27 69  1  0
 27 70  1  0
 28 71  1  0
 28 72  1  0
 28 73  1  0
 29 74  1  0
 33 75  1  0
 33 76  1  0
 35 77  1  0
 36 78  1  0
 37 79  1  0
 38 80  1  0
 39 81  1  0
M  END
$$$$
[H]OC(=O)[C@@]([H])(OC([H])([H])c1c([H])c([H])c([H])c(N([H])C(=O)c2c([H])c([H])c(-c3c([H])c([H])c([H])c([H])c3[H])c([H])c2[H])c1[H])[C@@]([H])(C(=O)O[H])N([H])[H]
     RDKit          3D

 54 56  0  0  0  0  0  0  0  0999 V2000
   -4.6190    2.0138    0.2797 N   0  0  0  0  0  0  0  0  0  0  0  0
   -5.8278    1.7181   -0.5075 C   0  0  1  0  0  0  0  0  0  0  0  0
   -6.1756    0.2928   -0.1350 C   0  0  2  0  0  0  0  0  0  0  0  0
   -5.0347   -0.4487   -0.5068 O   0  0  0  0  0  0  0  0  0  0  0  0
   -4.4294   -1.0547    0.5562 C   0  0  0  0  0  0  0  0  0  0  0  0
   -3.2134   -1.8408    0.1270 C   0  0  0  0  0  0  0  0  0  0  0  0
   -3.3596   -3.1418   -0.3003 C   0  0  0  0  0  0  0  0  0  0  0  0
   -2.2443   -3.8318   -0.6833 C   0  0  0  0  0  0  0  0  0  0  0  0
   -0.9862   -3.2122   -0.6358 C   0  0  0  0  0  0  0  0  0  0  0  0
   -0.7913   -1.9285   -0.2200 C   0  0  0  0  0  0  0  0  0  0  0  0
    0.4352   -1.2368   -0.1240 N   0  0  0  0  0  0  0  0  0  0  0  0
    1.6871   -1.8821   -0.1774 C   0  0  0  0  0  0  0  0  0  0  0  0
    1.8785   -3.1163   -0.3059 O   0  0  0  0  0  0  0  0  0  0  0  0
    2.9408   -1.0937   -0.0784 C   0  0  0  0  0  0  0  0  0  0  0  0
    2.9870    0.2619   -0.2647 C   0  0  0  0  0  0  0  0  0  0  0  0
    4.1940    0.9510   -0.1502 C   0  0  0  0  0  0  0  0  0  0  0  0
    5.3754    0.3125    0.1500 C   0  0  0  0  0  0  0  0  0  0  0  0
    5.3262   -1.0468    0.3360 C   0  0  0  0  0  0  0  0  0  0  0  0
    4.1183   -1.7327    0.2210 C   0  0  0  0  0  0  0  0  0  0  0  0
    6.6411    1.0230    0.2722 C   0  0  0  0  0  0  0  0  0  0  0  0
    6.6713    2.3170    0.7357 C   0  0  0  0  0  0  0  0  0  0  0  0
    7.8712    3.0210    0.8624 C   0  0  0  0  0  0  0  0  0  0  0  0
    9.0570    2.4080    0.5158 C   0  0  0  0  0  0  0  0  0  0  0  0
    9.0201    1.1029    0.0489 C   0  0  0  0  0  0  0  0  0  0  0  0
    7.8214    0.4191   -0.0706 C   0  0  0  0  0  0  0  0  0  0  0  0
   -1.9746   -1.2593    0.1645 C   0  0  0  0  0  0  0  0  0  0  0  0
   -7.3664   -0.1975   -0.8140 C   0  0  0  0  0  0  0  0  0  0  0  0
   -7.2516   -1.1933   -1.7983 O   0  0  0  0  0  0  0  0  0  0  0  0
   -8.5089    0.2212   -0.5705 O   0  0  0  0  0  0  0  0  0  0  0  0
   -6.8666    2.7023   -0.2227 C   0  0  0  0  0  0  0  0  0  0  0  0
   -6.6948    3.5084    0.9077 O   0  0  0  0  0  0  0  0  0  0  0  0
   -7.8876    2.8631   -0.9226 O   0  0  0  0  0  0  0  0  0  0  0  0
   -4.4962    3.0438    0.4086 H   0  0  0  0  0  0  0  0  0  0  0  0
   -3.8108    1.6369   -0.2673 H   0  0  0  0  0  0  0  0  0  0  0  0
   -5.5416    1.7282   -1.5780 H   0  0  0  0  0  0  0  0  0  0  0  0
   -6.2710    0.2119    0.9575 H   0  0  0  0  0  0  0  0  0  0  0  0
   -5.0798   -1.7397    1.1354 H   0  0  0  0  0  0  0  0  0  0  0  0
   -4.0739   -0.2864    1.2667 H   0  0  0  0  0  0  0  0  0  0  0  0
   -4.3472   -3.5927   -0.3254 H   0  0  0  0  0  0  0  0  0  0  0  0
   -2.3098   -4.8735   -1.0322 H   0  0  0  0  0  0  0  0  0  0  0  0
   -0.1422   -3.8090   -0.9675 H   0  0  0  0  0  0  0  0  0  0  0  0
    0.4328   -0.1812   -0.0042 H   0  0  0  0  0  0  0  0  0  0  0  0
    2.0898    0.7926   -0.5029 H   0  0  0  0  0  0  0  0  0  0  0  0
    4.2002    2.0038   -0.2994 H   0  0  0  0  0  0  0  0  0  0  0  0
    6.2194   -1.5981    0.5723 H   0  0  0  0  0  0  0  0  0  0  0  0
    4.1000   -2.8116    0.3738 H   0  0  0  0  0  0  0  0  0  0  0  0
    5.7648    2.8223    1.0136 H   0  0  0  0  0  0  0  0  0  0  0  0
    7.9054    4.0322    1.2237 H   0  0  0  0  0  0  0  0  0  0  0  0
    9.9958    2.9323    0.6055 H   0  0  0  0  0  0  0  0  0  0  0  0
    9.9293    0.5993   -0.2294 H   0  0  0  0  0  0  0  0  0  0  0  0
    7.8248   -0.5912   -0.4356 H   0  0  0  0  0  0  0  0  0  0  0  0
   -1.8494   -0.2280    0.5025 H   0  0  0  0  0  0  0  0  0  0  0  0
   -6.3399   -1.4892   -2.1397 H   0  0  0  0  0  0  0  0  0  0  0  0
   -6.9929    4.4781    0.8589 H   0  0  0  0  0  0  0  0  0  0  0  0
  1  2  1  0
  2  3  1  0
  3  4  1  0
  4  5  1  0
  5  6  1  0
  6  7  2  0
  7  8  1  0
  8  9  2  0
  9 10  1  0
 10 11  1  0
 11 12  1  0
 12 13  2  0
 12 14  1  0
 14 15  2  0
 15 16  1  0
 16 17  2  0
 17 18  1  0
 18 19  2  0
 17 20  1  0
 20 21  2  0
 21 22  1  0
 22 23  2  0
 23 24  1  0
 24 25  2  0
 10 26  2  0
  3 27  1  0
 27 28  1  0
 27 29  2  0
  2 30  1  0
 30 31  1  0
 30 32  2  0
 26  6  1  0
 19 14  1  0
 25 20  1  0
  1 33  1  0
  1 34  1  0
  2 35  1  6
  3 36  1  1
  5 37  1  0
  5 38  1  0
  7 39  1  0
  8 40  1  0
  9 41  1  0
 11 42  1  0
 15 43  1  0
 16 44  1  0
 18 45  1  0
 19 46  1  0
 21 47  1  0
 22 48  1  0
 23 49  1  0
 24 50  1  0
 25 51  1  0
 26 52  1  0
 28 53  1  0
 31 54  1  0
M  END
$$$$
[H]c1c([H])c([H])c([C@@]2([H])C([H])([H])N([H])C([H])([H])[C@@]2([H])N([H])C(=O)c2c([H])c(C(F)(F)F)c([H])c(C(F)(F)F)c2[H])c([H])c1[H]
     RDKit          3D

 44 46  0  0  0  0  0  0  0  0999 V2000
   -5.7824    3.0640   -1.0128 F   0  0  0  0  0  0  0  0  0  0  0  0
   -4.6640    3.0391   -0.1879 C   0  0  0  0  0  0  0  0  0  0  0  0
   -3.7596    3.9737   -0.6446 F   0  0  0  0  0  0  0  0  0  0  0  0
   -5.0718    3.3748    1.0940 F   0  0  0  0  0  0  0  0  0  0  0  0
   -4.0515    1.6879   -0.1716 C   0  0  0  0  0  0  0  0  0  0  0  0
   -2.7495    1.3978   -0.5152 C   0  0  0  0  0  0  0  0  0  0  0  0
   -2.2286    0.1523   -0.5084 C   0  0  0  0  0  0  0  0  0  0  0  0
   -3.1253   -0.8900   -0.1038 C   0  0  0  0  0  0  0  0  0  0  0  0
   -4.4050   -0.6473    0.2406 C   0  0  0  0  0  0  0  0  0  0  0  0
   -4.8833    0.6407    0.2090 C   0  0  0  0  0  0  0  0  0  0  0  0
   -5.2994   -1.7812    0.6233 C   0  0  0  0  0  0  0  0  0  0  0  0
   -5.5152   -1.8251    1.9804 F   0  0  0  0  0  0  0  0  0  0  0  0
   -6.5149   -1.6719   -0.0411 F   0  0  0  0  0  0  0  0  0  0  0  0
   -4.7278   -2.9578    0.1918 F   0  0  0  0  0  0  0  0  0  0  0  0
   -0.9277   -0.2686   -0.9372 C   0  0  0  0  0  0  0  0  0  0  0  0
   -0.7515   -0.4006   -2.2158 O   0  0  0  0  0  0  0  0  0  0  0  0
    0.2148   -0.5837   -0.1147 N   0  0  0  0  0  0  0  0  0  0  0  0
    1.3741   -1.1130   -0.7657 C   0  0  2  0  0  0  0  0  0  0  0  0
    1.3771   -2.6254   -0.3553 C   0  0  0  0  0  0  0  0  0  0  0  0
    2.7289   -2.8990    0.0838 N   0  0  0  0  0  0  0  0  0  0  0  0
    3.5536   -1.9919   -0.6791 C   0  0  0  0  0  0  0  0  0  0  0  0
    2.7166   -0.6690   -0.7602 C   0  0  2  0  0  0  0  0  0  0  0  0
    3.3535    0.3722    0.0157 C   0  0  0  0  0  0  0  0  0  0  0  0
    4.0857    0.0904    1.1626 C   0  0  0  0  0  0  0  0  0  0  0  0
    4.7982    1.0517    1.8561 C   0  0  0  0  0  0  0  0  0  0  0  0
    4.8006    2.3724    1.4208 C   0  0  0  0  0  0  0  0  0  0  0  0
    4.0803    2.6736    0.2899 C   0  0  0  0  0  0  0  0  0  0  0  0
    3.3767    1.7189   -0.3993 C   0  0  0  0  0  0  0  0  0  0  0  0
   -2.1332    2.2857   -0.7986 H   0  0  0  0  0  0  0  0  0  0  0  0
   -2.7222   -1.8916   -0.1090 H   0  0  0  0  0  0  0  0  0  0  0  0
   -5.9075    0.8122    0.4701 H   0  0  0  0  0  0  0  0  0  0  0  0
    0.1988   -0.4315    0.8932 H   0  0  0  0  0  0  0  0  0  0  0  0
    1.0411   -1.2731   -1.9079 H   0  0  0  0  0  0  0  0  0  0  0  0
    1.1154   -3.2778   -1.1699 H   0  0  0  0  0  0  0  0  0  0  0  0
    0.7028   -2.7860    0.4837 H   0  0  0  0  0  0  0  0  0  0  0  0
    2.8177   -2.8823    1.0933 H   0  0  0  0  0  0  0  0  0  0  0  0
    4.5215   -1.8394   -0.2763 H   0  0  0  0  0  0  0  0  0  0  0  0
    3.5739   -2.4087   -1.7176 H   0  0  0  0  0  0  0  0  0  0  0  0
    2.9674   -0.3114   -1.8696 H   0  0  0  0  0  0  0  0  0  0  0  0
    4.1222   -0.9331    1.5146 H   0  0  0  0  0  0  0  0  0  0  0  0
    5.3969    0.8200    2.7318 H   0  0  0  0  0  0  0  0  0  0  0  0
    5.3802    3.1387    1.9440 H   0  0  0  0  0  0  0  0  0  0  0  0
    4.1029    3.6952   -0.0712 H   0  0  0  0  0  0  0  0  0  0  0  0
    2.8196    1.9980   -1.3174 H   0  0  0  0  0  0  0  0  0  0  0  0
  1  2  1  0
  2  3  1  0
  2  4  1  0
  2  5  1  0
  5  6  2  0
  6  7  1  0
  7  8  2  0
  8  9  1  0
  9 10  2  0
  9 11  1  0
 11 12  1  0
 11 13  1  0
 11 14  1  0
  7 15  1  0
 15 16  2  0
 15 17  1  0
 17 18  1  0
 18 19  1  0
 19 20  1  0
 20 21  1  0
 21 22  1  0
 22 23  1  0
 23 24  2  0
 24 25  1  0
 25 26  2  0
 26 27  1  0
 27 28  2  0
 10  5  1  0
 22 18  1  0
 28 23  1  0
  6 29  1  0
  8 30  1  0
 10 31  1  0
 17 32  1  0
 18 33  1  6
 19 34  1  0
 19 35  1  0
 20 36  1  0
 21 37  1  0
 21 38  1  0
 22 39  1  6
 24 40  1  0
 25 41  1  0
 26 42  1  0
 27 43  1  0
 28 44  1  0
M  END
$$$$
[H]c1nc(N2C([H])([H])C([H])([H])c3nc(N4C([H])([H])C([H])([H])C([H])([H])C([H])([H])C4([H])[H])nc(N([H])c4c([H])nc(C(F)(F)F)c([H])c4[H])c3C([H])([H])C2([H])[H])c(C(F)(F)F)c([H])c1[H]
     RDKit          3D

 63 67  0  0  0  0  0  0  0  0999 V2000
    3.5195    7.6899    1.2258 F   0  0  0  0  0  0  0  0  0  0  0  0
    3.7482    6.8296    0.1653 C   0  0  0  0  0  0  0  0  0  0  0  0
    5.0886    6.5062    0.1507 F   0  0  0  0  0  0  0  0  0  0  0  0
    3.4680    7.5013   -1.0120 F   0  0  0  0  0  0  0  0  0  0  0  0
    2.8962    5.6242    0.3060 C   0  0  0  0  0  0  0  0  0  0  0  0
    3.0091    4.5599   -0.5847 C   0  0  0  0  0  0  0  0  0  0  0  0
    2.1950    3.4498   -0.4808 C   0  0  0  0  0  0  0  0  0  0  0  0
    1.2455    3.3948    0.5271 C   0  0  0  0  0  0  0  0  0  0  0  0
    0.3355    2.3476    0.7049 N   0  0  0  0  0  0  0  0  0  0  0  0
    0.4176    0.9892    0.4405 C   0  0  0  0  0  0  0  0  0  0  0  0
    1.6287    0.4168    0.2479 N   0  0  0  0  0  0  0  0  0  0  0  0
    1.8001   -0.9226    0.1477 C   0  0  0  0  0  0  0  0  0  0  0  0
    0.7701   -1.7587    0.2365 N   0  0  0  0  0  0  0  0  0  0  0  0
   -0.4735   -1.2774    0.4270 C   0  0  0  0  0  0  0  0  0  0  0  0
   -1.4616   -2.3825    0.5733 C   0  0  0  0  0  0  0  0  0  0  0  0
   -2.5539   -2.2278   -0.4371 C   0  0  0  0  0  0  0  0  0  0  0  0
   -3.3853   -1.0503   -0.1712 N   0  0  0  0  0  0  0  0  0  0  0  0
   -3.0352    0.3085   -0.2735 C   0  0  0  0  0  0  0  0  0  0  0  0
   -1.9281    0.8075    0.6354 C   0  0  0  0  0  0  0  0  0  0  0  0
   -0.6572    0.0924    0.5267 C   0  0  0  0  0  0  0  0  0  0  0  0
   -4.7226   -1.3876    0.2206 C   0  0  0  0  0  0  0  0  0  0  0  0
   -4.9544   -1.4785    1.5740 N   0  0  0  0  0  0  0  0  0  0  0  0
   -6.1763   -1.8001    2.0273 C   0  0  0  0  0  0  0  0  0  0  0  0
   -7.1873   -2.0379    1.1342 C   0  0  0  0  0  0  0  0  0  0  0  0
   -6.9723   -1.9552   -0.2155 C   0  0  0  0  0  0  0  0  0  0  0  0
   -5.6968   -1.6149   -0.7116 C   0  0  0  0  0  0  0  0  0  0  0  0
   -5.5000   -1.4937   -2.1576 C   0  0  0  0  0  0  0  0  0  0  0  0
   -4.5978   -2.3066   -2.7460 F   0  0  0  0  0  0  0  0  0  0  0  0
   -5.2813   -0.1585   -2.5453 F   0  0  0  0  0  0  0  0  0  0  0  0
   -6.7358   -1.7744   -2.7853 F   0  0  0  0  0  0  0  0  0  0  0  0
    3.0722   -1.5529    0.0044 N   0  0  0  0  0  0  0  0  0  0  0  0
    4.2789   -0.9572    0.5677 C   0  0  0  0  0  0  0  0  0  0  0  0
    5.3455   -2.0298    0.6302 C   0  0  0  0  0  0  0  0  0  0  0  0
    5.6899   -2.5536   -0.7460 C   0  0  0  0  0  0  0  0  0  0  0  0
    4.4548   -2.8895   -1.5430 C   0  0  0  0  0  0  0  0  0  0  0  0
    3.2244   -2.8149   -0.6808 C   0  0  0  0  0  0  0  0  0  0  0  0
    1.1846    4.4778    1.3787 C   0  0  0  0  0  0  0  0  0  0  0  0
    1.9673    5.5503    1.2812 N   0  0  0  0  0  0  0  0  0  0  0  0
    3.7815    4.6746   -1.3357 H   0  0  0  0  0  0  0  0  0  0  0  0
    2.3120    2.6197   -1.1802 H   0  0  0  0  0  0  0  0  0  0  0  0
   -0.5959    2.6525    1.1657 H   0  0  0  0  0  0  0  0  0  0  0  0
   -0.9517   -3.3557    0.4008 H   0  0  0  0  0  0  0  0  0  0  0  0
   -1.7928   -2.3814    1.6388 H   0  0  0  0  0  0  0  0  0  0  0  0
   -2.0769   -2.1240   -1.4280 H   0  0  0  0  0  0  0  0  0  0  0  0
   -3.1802   -3.1498   -0.4265 H   0  0  0  0  0  0  0  0  0  0  0  0
   -2.7632    0.5448   -1.3233 H   0  0  0  0  0  0  0  0  0  0  0  0
   -3.9237    0.9336    0.0096 H   0  0  0  0  0  0  0  0  0  0  0  0
   -1.7804    1.8693    0.2533 H   0  0  0  0  0  0  0  0  0  0  0  0
   -2.2929    0.8738    1.6471 H   0  0  0  0  0  0  0  0  0  0  0  0
   -6.3448   -1.8645    3.1247 H   0  0  0  0  0  0  0  0  0  0  0  0
   -8.1816   -2.2994    1.5062 H   0  0  0  0  0  0  0  0  0  0  0  0
   -7.7581   -2.1439   -0.9477 H   0  0  0  0  0  0  0  0  0  0  0  0
    4.0117   -0.6916    1.6323 H   0  0  0  0  0  0  0  0  0  0  0  0
    4.5979   -0.0633    0.0519 H   0  0  0  0  0  0  0  0  0  0  0  0
    4.9707   -2.9211    1.2096 H   0  0  0  0  0  0  0  0  0  0  0  0
    6.2814   -1.6534    1.0849 H   0  0  0  0  0  0  0  0  0  0  0  0
    6.2775   -3.4906   -0.6007 H   0  0  0  0  0  0  0  0  0  0  0  0
    6.3465   -1.8269   -1.2752 H   0  0  0  0  0  0  0  0  0  0  0  0
    4.4930   -3.9067   -1.9775 H   0  0  0  0  0  0  0  0  0  0  0  0
    4.3866   -2.1482   -2.3693 H   0  0  0  0  0  0  0  0  0  0  0  0
    3.3855   -3.5916    0.1257 H   0  0  0  0  0  0  0  0  0  0  0  0
    2.3077   -3.1368   -1.1945 H   0  0  0  0  0  0  0  0  0  0  0  0
    0.4702    4.4595    2.1654 H   0  0  0  0  0  0  0  0  0  0  0  0
  1  2  1  0
  2  3  1  0
  2  4  1  0
  2  5  1  0
  5  6  2  0
  6  7  1  0
  7  8  2  0
  8  9  1  0
  9 10  1  0
 10 11  2  0
 11 12  1  0
 12 13  2  0
 13 14  1  0
 14 15  1  0
 15 16  1  0
 16 17  1  0
 17 18  1  0
 18 19  1  0
 19 20  1  0
 17 21  1  0
 21 22  2  0
 22 23  1  0
 23 24  2  0
 24 25  1  0
 25 26  2  0
 26 27  1  0
 27 28  1  0
 27 29  1  0
 27 30  1  0
 12 31  1  0
 31 32  1  0
 32 33  1  0
 33 34  1  0
 34 35  1  0
 35 36  1  0
  8 37  1  0
 37 38  2  0
 38  5  1  0
 20 10  1  0
 26 21  1  0
 36 31  1  0
 20 14  2  0
  6 39  1  0
  7 40  1  0
  9 41  1  0
 15 42  1  0
 15 43  1  0
 16 44  1  0
 16 45  1  0
 18 46  1  0
 18 47  1  0
 19 48  1  0
 19 49  1  0
 23 50  1  0
 24 51  1  0
 25 52  1  0
 32 53  1  0
 32 54  1  0
 33 55  1  0
 33 56  1  0
 34 57  1  0
 34 58  1  0
 35 59  1  0
 35 60  1  0
 36 61  1  0
 36 62  1  0
 37 63  1  0
M  END
$$$$
[H]OC([H])([H])[C@@]1([H])O[C@]([H])(O[C@]2([H])O[C@]([H])(C([H])([H])O[H])[C@@]([H])(O[H])[C@@]([H])(O[H])[C@@]2([H])O[H])[C@]([H])(O[H])[C@]1([H])O[H]
     RDKit          3D

 41 42  0  0  0  0  0  0  0  0999 V2000
    5.1291   -0.2255    1.8099 O   0  0  0  0  0  0  0  0  0  0  0  0
    4.3299    0.7985    1.3526 C   0  0  0  0  0  0  0  0  0  0  0  0
    2.9640    0.2841    0.8887 C   0  0  1  0  0  0  0  0  0  0  0  0
    2.2213    1.3712    0.4460 O   0  0  0  0  0  0  0  0  0  0  0  0
    1.4512    0.8248   -0.6275 C   0  0  2  0  0  0  0  0  0  0  0  0
    0.7184   -0.1903   -0.0463 O   0  0  0  0  0  0  0  0  0  0  0  0
   -0.6492   -0.0463   -0.1159 C   0  0  2  0  0  0  0  0  0  0  0  0
   -1.1909    0.1197    1.1695 O   0  0  0  0  0  0  0  0  0  0  0  0
   -2.4370    0.7108    1.1096 C   0  0  2  0  0  0  0  0  0  0  0  0
   -3.3014    0.3414    2.3043 C   0  0  0  0  0  0  0  0  0  0  0  0
   -4.5299    1.0066    2.1152 O   0  0  0  0  0  0  0  0  0  0  0  0
   -3.1740    0.5010   -0.1589 C   0  0  1  0  0  0  0  0  0  0  0  0
   -3.1790    1.6780   -0.9459 O   0  0  0  0  0  0  0  0  0  0  0  0
   -2.8209   -0.7135   -0.9360 C   0  0  1  0  0  0  0  0  0  0  0  0
   -2.8875   -0.4254   -2.3194 O   0  0  0  0  0  0  0  0  0  0  0  0
   -1.3941   -1.2113   -0.7035 C   0  0  1  0  0  0  0  0  0  0  0  0
   -0.8430   -1.7406   -1.8409 O   0  0  0  0  0  0  0  0  0  0  0  0
    2.5829    0.2241   -1.4198 C   0  0  2  0  0  0  0  0  0  0  0  0
    2.1973   -0.5162   -2.5008 O   0  0  0  0  0  0  0  0  0  0  0  0
    3.2235   -0.6191   -0.3039 C   0  0  2  0  0  0  0  0  0  0  0  0
    2.4692   -1.7907   -0.2456 O   0  0  0  0  0  0  0  0  0  0  0  0
    4.7417   -1.1243    1.6745 H   0  0  0  0  0  0  0  0  0  0  0  0
    4.2127    1.5312    2.1828 H   0  0  0  0  0  0  0  0  0  0  0  0
    4.8493    1.3257    0.5336 H   0  0  0  0  0  0  0  0  0  0  0  0
    2.4167   -0.1971    1.6978 H   0  0  0  0  0  0  0  0  0  0  0  0
    0.8866    1.6119   -1.1096 H   0  0  0  0  0  0  0  0  0  0  0  0
   -0.8665    0.8781   -0.6796 H   0  0  0  0  0  0  0  0  0  0  0  0
   -2.2543    1.8225    1.2197 H   0  0  0  0  0  0  0  0  0  0  0  0
   -2.8846    0.6559    3.2612 H   0  0  0  0  0  0  0  0  0  0  0  0
   -3.5485   -0.7585    2.2815 H   0  0  0  0  0  0  0  0  0  0  0  0
   -4.3914    1.9335    1.7920 H   0  0  0  0  0  0  0  0  0  0  0  0
   -4.2721    0.3873    0.1020 H   0  0  0  0  0  0  0  0  0  0  0  0
   -2.8509    1.5429   -1.8472 H   0  0  0  0  0  0  0  0  0  0  0  0
   -3.4916   -1.5843   -0.7419 H   0  0  0  0  0  0  0  0  0  0  0  0
   -2.9903   -1.2676   -2.8378 H   0  0  0  0  0  0  0  0  0  0  0  0
   -1.4556   -1.9971    0.1124 H   0  0  0  0  0  0  0  0  0  0  0  0
   -0.8822   -2.7111   -1.9288 H   0  0  0  0  0  0  0  0  0  0  0  0
    3.3644    0.9801   -1.6657 H   0  0  0  0  0  0  0  0  0  0  0  0
    1.3930   -0.1480   -2.9451 H   0  0  0  0  0  0  0  0  0  0  0  0
    4.2904   -0.7859   -0.4797 H   0  0  0  0  0  0  0  0  0  0  0  0
    2.8533   -2.4762    0.3465 H   0  0  0  0  0  0  0  0  0  0  0  0
  1  2  1  0
  2  3  1  0
  3  4  1  0
  4  5  1  0
  5  6  1  0
  6  7  1  0
  7  8  1  0
  8  9  1  0
  9 10  1  0
 10 11  1  0
  9 12  1  0
 12 13  1  0
 12 14  1  0
 14 15  1  0
 14 16  1  0
 16 17  1  0
  5 18  1  0
 18 19  1  0
 18 20  1  0
 20 21  1  0
 20  3  1  0
 16  7  1  0
  1 22  1  0
  2 23  1  0
  2 24  1  0
  3 25  1  1
  5 26  1  6
  7 27  1  6
  9 28  1  1
 10 29  1  0
 10 30  1  0
 11 31  1  0
 12 32  1  1
 13 33  1  0
 14 34  1  6
 15 35  1  0
 16 36  1  1
 17 37  1  0
 18 38  1  6
 19 39  1  0
 20 40  1  6
 21 41  1  0
M  END
$$$$
[H]c1nc(N([H])c2c([H])c([H])c(N3C([H])([H])C([H])([H])C([H])(N4C([H])([H])C([H])([H])N(C([H])([H])[H])C([H])([H])C4([H])[H])C([H])([H])C3([H])[H])c([H])c2OC([H])([H])[H])nc(N([H])c2c([H])c([H])c([H])c([H])c2S(=O)(=O)C([H])(C([H])([H])[H])C([H])([H])[H])c1Cl
     RDKit          3D

 82 86  0  0  0  0  0  0  0  0999 V2000
   -0.1870    3.7228   -1.2569 C   0  0  0  0  0  0  0  0  0  0  0  0
    0.4390    2.5297   -0.8437 O   0  0  0  0  0  0  0  0  0  0  0  0
   -0.3483    1.4775   -0.4024 C   0  0  0  0  0  0  0  0  0  0  0  0
   -1.7220    1.6350   -0.3827 C   0  0  0  0  0  0  0  0  0  0  0  0
   -2.5624    0.6308    0.0436 C   0  0  0  0  0  0  0  0  0  0  0  0
   -1.9599   -0.5357    0.4478 C   0  0  0  0  0  0  0  0  0  0  0  0
   -0.5748   -0.7280    0.4408 C   0  0  0  0  0  0  0  0  0  0  0  0
    0.2576    0.2764    0.0150 C   0  0  0  0  0  0  0  0  0  0  0  0
    1.6540    0.2011   -0.0367 N   0  0  0  0  0  0  0  0  0  0  0  0
    2.4984   -0.8842    0.3177 C   0  0  0  0  0  0  0  0  0  0  0  0
    2.1033   -2.0726    0.7812 N   0  0  0  0  0  0  0  0  0  0  0  0
    2.9559   -3.0558    1.0957 C   0  0  0  0  0  0  0  0  0  0  0  0
    4.3092   -2.8632    0.9451 C   0  0  0  0  0  0  0  0  0  0  0  0
    5.4455   -4.1449    1.3534 Cl  0  0  0  0  0  0  0  0  0  0  0  0
    4.7527   -1.6166    0.4572 C   0  0  0  0  0  0  0  0  0  0  0  0
    6.1380   -1.4466    0.3110 N   0  0  0  0  0  0  0  0  0  0  0  0
    6.9009   -0.3576   -0.1368 C   0  0  0  0  0  0  0  0  0  0  0  0
    6.2766    0.8084   -0.5266 C   0  0  0  0  0  0  0  0  0  0  0  0
    7.0240    1.9039   -0.9778 C   0  0  0  0  0  0  0  0  0  0  0  0
    8.3820    1.8034   -1.0274 C   0  0  0  0  0  0  0  0  0  0  0  0
    9.0024    0.6381   -0.6374 C   0  0  0  0  0  0  0  0  0  0  0  0
    8.2961   -0.4485   -0.1920 C   0  0  0  0  0  0  0  0  0  0  0  0
    9.0842   -1.8926    0.2913 S   0  0  0  0  0  0  0  0  0  0  0  0
    8.6633   -3.0312   -0.6035 O   0  0  0  0  0  0  0  0  0  0  0  0
    8.8235   -2.3045    1.7132 O   0  0  0  0  0  0  0  0  0  0  0  0
   10.8572   -1.7881    0.1370 C   0  0  0  0  0  0  0  0  0  0  0  0
   11.2609   -1.6791   -1.2975 C   0  0  0  0  0  0  0  0  0  0  0  0
   11.4760   -0.7869    1.0544 C   0  0  0  0  0  0  0  0  0  0  0  0
    3.8248   -0.7008    0.1721 N   0  0  0  0  0  0  0  0  0  0  0  0
   -3.9818    0.8060    0.0512 N   0  0  0  0  0  0  0  0  0  0  0  0
   -4.5241    1.9609   -0.5784 C   0  0  0  0  0  0  0  0  0  0  0  0
   -6.0011    1.9283   -0.8544 C   0  0  0  0  0  0  0  0  0  0  0  0
   -6.8245    1.3726    0.2584 C   0  0  0  0  0  0  0  0  0  0  0  0
   -6.0036    0.6088    1.2781 C   0  0  0  0  0  0  0  0  0  0  0  0
   -4.8657   -0.1463    0.6796 C   0  0  0  0  0  0  0  0  0  0  0  0
   -7.9560    0.6086   -0.0875 N   0  0  0  0  0  0  0  0  0  0  0  0
   -7.7905   -0.5856   -0.8057 C   0  0  0  0  0  0  0  0  0  0  0  0
   -9.1362   -1.0235   -1.3907 C   0  0  0  0  0  0  0  0  0  0  0  0
  -10.1390   -0.8718   -0.3544 N   0  0  0  0  0  0  0  0  0  0  0  0
  -10.0361   -1.8235    0.7053 C   0  0  0  0  0  0  0  0  0  0  0  0
  -10.3349    0.4834    0.0484 C   0  0  0  0  0  0  0  0  0  0  0  0
   -9.1475    1.3193   -0.4248 C   0  0  0  0  0  0  0  0  0  0  0  0
    0.5375    4.4499   -1.6799 H   0  0  0  0  0  0  0  0  0  0  0  0
   -0.9481    3.5330   -2.0530 H   0  0  0  0  0  0  0  0  0  0  0  0
   -0.6880    4.2523   -0.4156 H   0  0  0  0  0  0  0  0  0  0  0  0
   -2.1476    2.5764   -0.7105 H   0  0  0  0  0  0  0  0  0  0  0  0
   -2.6020   -1.3517    0.7883 H   0  0  0  0  0  0  0  0  0  0  0  0
   -0.2121   -1.6859    0.7807 H   0  0  0  0  0  0  0  0  0  0  0  0
    2.1500    1.0935   -0.3956 H   0  0  0  0  0  0  0  0  0  0  0  0
    2.6174   -4.0222    1.4737 H   0  0  0  0  0  0  0  0  0  0  0  0
    6.7215   -2.3022    0.5911 H   0  0  0  0  0  0  0  0  0  0  0  0
    5.2202    0.9989   -0.5296 H   0  0  0  0  0  0  0  0  0  0  0  0
    6.5603    2.8305   -1.2896 H   0  0  0  0  0  0  0  0  0  0  0  0
    9.0220    2.6252   -1.3712 H   0  0  0  0  0  0  0  0  0  0  0  0
   10.0936    0.6299   -0.7052 H   0  0  0  0  0  0  0  0  0  0  0  0
   11.2252   -2.8031    0.4806 H   0  0  0  0  0  0  0  0  0  0  0  0
   11.9033   -0.7785   -1.4926 H   0  0  0  0  0  0  0  0  0  0  0  0
   10.3307   -1.5514   -1.9199 H   0  0  0  0  0  0  0  0  0  0  0  0
   11.7765   -2.5763   -1.6995 H   0  0  0  0  0  0  0  0  0  0  0  0
   12.0225   -1.2557    1.8769 H   0  0  0  0  0  0  0  0  0  0  0  0
   12.1781   -0.1622    0.4319 H   0  0  0  0  0  0  0  0  0  0  0  0
   10.7434   -0.0899    1.5079 H   0  0  0  0  0  0  0  0  0  0  0  0
   -4.2803    2.8410    0.0525 H   0  0  0  0  0  0  0  0  0  0  0  0
   -3.9354    2.1199   -1.5269 H   0  0  0  0  0  0  0  0  0  0  0  0
   -6.3084    2.9635   -1.1164 H   0  0  0  0  0  0  0  0  0  0  0  0
   -6.1470    1.3325   -1.7818 H   0  0  0  0  0  0  0  0  0  0  0  0
   -7.2139    2.2642    0.8421 H   0  0  0  0  0  0  0  0  0  0  0  0
   -6.6586   -0.1075    1.8153 H   0  0  0  0  0  0  0  0  0  0  0  0
   -5.5929    1.2907    2.0626 H   0  0  0  0  0  0  0  0  0  0  0  0
   -5.1731   -0.8869   -0.0780 H   0  0  0  0  0  0  0  0  0  0  0  0
   -4.3121   -0.6097    1.5260 H   0  0  0  0  0  0  0  0  0  0  0  0
   -7.5080   -1.4012   -0.0997 H   0  0  0  0  0  0  0  0  0  0  0  0
   -7.0082   -0.5774   -1.5870 H   0  0  0  0  0  0  0  0  0  0  0  0
   -9.4445   -0.3742   -2.2343 H   0  0  0  0  0  0  0  0  0  0  0  0
   -9.0261   -2.0597   -1.7202 H   0  0  0  0  0  0  0  0  0  0  0  0
   -9.1822   -2.5377    0.5321 H   0  0  0  0  0  0  0  0  0  0  0  0
   -9.9814   -1.3564    1.7041 H   0  0  0  0  0  0  0  0  0  0  0  0
  -10.9456   -2.4645    0.6802 H   0  0  0  0  0  0  0  0  0  0  0  0
  -11.2261    0.8855   -0.4545 H   0  0  0  0  0  0  0  0  0  0  0  0
  -10.4517    0.5517    1.1515 H   0  0  0  0  0  0  0  0  0  0  0  0
   -9.2778    1.5186   -1.4917 H   0  0  0  0  0  0  0  0  0  0  0  0
   -9.1611    2.2698    0.1783 H   0  0  0  0  0  0  0  0  0  0  0  0
  1  2  1  0
  2  3  1  0
  3  4  2  0
  4  5  1  0
  5  6  2  0
  6  7  1  0
  7  8  2  0
  8  9  1  0
  9 10  1  0
 10 11  2  0
 11 12  1  0
 12 13  2  0
 13 14  1  0
 13 15  1  0
 15 16  1  0
 16 17  1  0
 17 18  2  0
 18 19  1  0
 19 20  2  0
 20 21  1  0
 21 22  2  0
 22 23  1  0
 23 24  2  0
 23 25  2  0
 23 26  1  0
 26 27  1  0
 26 28  1  0
 15 29  2  0
  5 30  1  0
 30 31  1  0
 31 32  1  0
 32 33  1  0
 33 34  1  0
 34 35  1  0
 33 36  1  0
 36 37  1  0
 37 38  1  0
 38 39  1  0
 39 40  1  0
 39 41  1  0
 41 42  1  0
  8  3  1  0
 29 10  1  0
 35 30  1  0
 42 36  1  0
 22 17  1  0
  1 43  1  0
  1 44  1  0
  1 45  1  0
  4 46  1  0
  6 47  1  0
  7 48  1  0
  9 49  1  0
 12 50  1  0
 16 51  1  0
 18 52  1  0
 19 53  1  0
 20 54  1  0
 21 55  1  0
 26 56  1  0
 27 57  1  0
 27 58  1  0
 27 59  1  0
 28 60  1  0
 28 61  1  0
 28 62  1  0
 31 63  1  0
 31 64  1  0
 32 65  1  0
 32 66  1  0
 33 67  1  0
 34 68  1  0
 34 69  1  0
 35 70  1  0
 35 71  1  0
 37 72  1  0
 37 73  1  0
 38 74  1  0
 38 75  1  0
 40 76  1  0
 40 77  1  0
 40 78  1  0
 41 79  1  0
 41 80  1  0
 42 81  1  0
 42 82  1  0
M  END
$$$$
[H]c1nc(Oc2c([H])c([H])c(N([H])C(=O)N([H])c3c([H])c([H])c(C([H])([H])N4C([H])([H])C([H])([H])N(C([H])([H])[H])C([H])([H])C4([H])[H])c(C(F)(F)F)c3[H])c([H])c2[H])c([H])c(N([H])C([H])([H])[H])n1
     RDKit          3D

 65 68  0  0  0  0  0  0  0  0999 V2000
   -9.5124    0.7925    1.0221 C   0  0  0  0  0  0  0  0  0  0  0  0
   -8.2189    0.8348    0.4257 N   0  0  0  0  0  0  0  0  0  0  0  0
   -7.1579    0.4976    1.3201 C   0  0  0  0  0  0  0  0  0  0  0  0
   -5.9144    0.3815    0.3826 C   0  0  0  0  0  0  0  0  0  0  0  0
   -5.9865   -0.9158   -0.1766 N   0  0  0  0  0  0  0  0  0  0  0  0
   -4.8862   -1.3578   -0.9298 C   0  0  0  0  0  0  0  0  0  0  0  0
   -3.6087   -0.8387   -0.3326 C   0  0  0  0  0  0  0  0  0  0  0  0
   -3.1777    0.4551   -0.4204 C   0  0  0  0  0  0  0  0  0  0  0  0
   -1.9708    0.8884    0.1359 C   0  0  0  0  0  0  0  0  0  0  0  0
   -1.1991    0.0060    0.7847 C   0  0  0  0  0  0  0  0  0  0  0  0
    0.0320    0.3748    1.4325 N   0  0  0  0  0  0  0  0  0  0  0  0
    1.1662    0.3796    0.6489 C   0  0  0  0  0  0  0  0  0  0  0  0
    1.1872    0.0982   -0.5497 O   0  0  0  0  0  0  0  0  0  0  0  0
    2.4437    0.7440    1.2776 N   0  0  0  0  0  0  0  0  0  0  0  0
    3.5265    0.6587    0.3310 C   0  0  0  0  0  0  0  0  0  0  0  0
    4.3279    1.7079    0.0261 C   0  0  0  0  0  0  0  0  0  0  0  0
    5.3008    1.5235   -0.9530 C   0  0  0  0  0  0  0  0  0  0  0  0
    5.4710    0.3403   -1.6048 C   0  0  0  0  0  0  0  0  0  0  0  0
    6.4275    0.1048   -2.5986 O   0  0  0  0  0  0  0  0  0  0  0  0
    7.7314   -0.1527   -2.2482 C   0  0  0  0  0  0  0  0  0  0  0  0
    8.0989   -0.1476   -0.8760 C   0  0  0  0  0  0  0  0  0  0  0  0
    9.4021   -0.3926   -0.5114 C   0  0  0  0  0  0  0  0  0  0  0  0
    9.8333   -0.3257    0.8477 N   0  0  0  0  0  0  0  0  0  0  0  0
    9.0208    0.0527    1.9575 C   0  0  0  0  0  0  0  0  0  0  0  0
   10.3001   -0.6385   -1.4952 N   0  0  0  0  0  0  0  0  0  0  0  0
    9.9595   -0.6489   -2.7953 C   0  0  0  0  0  0  0  0  0  0  0  0
    8.6877   -0.4069   -3.1337 N   0  0  0  0  0  0  0  0  0  0  0  0
    4.6281   -0.7284   -1.2650 C   0  0  0  0  0  0  0  0  0  0  0  0
    3.6743   -0.5767   -0.3180 C   0  0  0  0  0  0  0  0  0  0  0  0
   -1.6216   -1.3320    0.8757 C   0  0  0  0  0  0  0  0  0  0  0  0
   -2.8092   -1.7511    0.3236 C   0  0  0  0  0  0  0  0  0  0  0  0
   -3.2349   -3.1394    0.5019 C   0  0  0  0  0  0  0  0  0  0  0  0
   -2.2580   -3.7651    1.3100 F   0  0  0  0  0  0  0  0  0  0  0  0
   -4.4018   -3.2183    1.2775 F   0  0  0  0  0  0  0  0  0  0  0  0
   -3.2838   -3.9272   -0.6009 F   0  0  0  0  0  0  0  0  0  0  0  0
   -7.2661   -1.1378   -0.7291 C   0  0  0  0  0  0  0  0  0  0  0  0
   -8.0488    0.1942   -0.8284 C   0  0  0  0  0  0  0  0  0  0  0  0
  -10.2438    1.1371    0.2956 H   0  0  0  0  0  0  0  0  0  0  0  0
   -9.4554    1.4899    1.9178 H   0  0  0  0  0  0  0  0  0  0  0  0
   -9.6659   -0.2359    1.4130 H   0  0  0  0  0  0  0  0  0  0  0  0
   -6.9468    1.1731    2.1418 H   0  0  0  0  0  0  0  0  0  0  0  0
   -7.2536   -0.5290    1.7605 H   0  0  0  0  0  0  0  0  0  0  0  0
   -5.0890    0.3444    1.1597 H   0  0  0  0  0  0  0  0  0  0  0  0
   -5.8581    1.2385   -0.2540 H   0  0  0  0  0  0  0  0  0  0  0  0
   -4.8620   -2.3583   -1.3115 H   0  0  0  0  0  0  0  0  0  0  0  0
   -4.9449   -0.7318   -1.9059 H   0  0  0  0  0  0  0  0  0  0  0  0
   -3.7731    1.1707   -0.9609 H   0  0  0  0  0  0  0  0  0  0  0  0
   -1.7100    1.9154    0.0264 H   0  0  0  0  0  0  0  0  0  0  0  0
    0.0462    0.6268    2.4557 H   0  0  0  0  0  0  0  0  0  0  0  0
    2.5855    1.0017    2.2321 H   0  0  0  0  0  0  0  0  0  0  0  0
    4.2184    2.6654    0.5239 H   0  0  0  0  0  0  0  0  0  0  0  0
    5.9195    2.3771   -1.1866 H   0  0  0  0  0  0  0  0  0  0  0  0
    7.3267    0.0410   -0.1505 H   0  0  0  0  0  0  0  0  0  0  0  0
   10.8488   -0.5620    1.0496 H   0  0  0  0  0  0  0  0  0  0  0  0
    8.9614   -0.7765    2.7228 H   0  0  0  0  0  0  0  0  0  0  0  0
    9.4624    0.9229    2.5259 H   0  0  0  0  0  0  0  0  0  0  0  0
    7.9943    0.3077    1.6886 H   0  0  0  0  0  0  0  0  0  0  0  0
   10.6531   -0.8404   -3.5827 H   0  0  0  0  0  0  0  0  0  0  0  0
    4.7613   -1.6821   -1.7874 H   0  0  0  0  0  0  0  0  0  0  0  0
    3.0157   -1.3821   -0.0250 H   0  0  0  0  0  0  0  0  0  0  0  0
   -0.9599   -2.0053    1.3897 H   0  0  0  0  0  0  0  0  0  0  0  0
   -7.3263   -1.5920   -1.7220 H   0  0  0  0  0  0  0  0  0  0  0  0
   -7.9219   -1.7732   -0.0711 H   0  0  0  0  0  0  0  0  0  0  0  0
   -8.9743   -0.0519   -1.3761 H   0  0  0  0  0  0  0  0  0  0  0  0
   -7.4705    0.8973   -1.4840 H   0  0  0  0  0  0  0  0  0  0  0  0
  1  2  1  0
  2  3  1  0
  3  4  1  0
  4  5  1  0
  5  6  1  0
  6  7  1  0
  7  8  2  0
  8  9  1  0
  9 10  2  0
 10 11  1  0
 11 12  1  0
 12 13  2  0
 12 14  1  0
 14 15  1  0
 15 16  2  0
 16 17  1  0
 17 18  2  0
 18 19  1  0
 19 20  1  0
 20 21  2  0
 21 22  1  0
 22 23  1  0
 23 24  1  0
 22 25  2  0
 25 26  1  0
 26 27  2  0
 18 28  1  0
 28 29  2  0
 10 30  1  0
 30 31  2  0
 31 32  1  0
 32 33  1  0
 32 34  1  0
 32 35  1  0
  5 36  1  0
 36 37  1  0
 37  2  1  0
 31  7  1  0
 29 15  1  0
 27 20  1  0
  1 38  1  0
  1 39  1  0
  1 40  1  0
  3 41  1  0
  3 42  1  0
  4 43  1  0
  4 44  1  0
  6 45  1  0
  6 46  1  0
  8 47  1  0
  9 48  1  0
 11 49  1  0
 14 50  1  0
 16 51  1  0
 17 52  1  0
 21 53  1  0
 23 54  1  0
 24 55  1  0
 24 56  1  0
 24 57  1  0
 26 58  1  0
 28 59  1  0
 29 60  1  0
 30 61  1  0
 36 62  1  0
 36 63  1  0
 37 64  1  0
 37 65  1  0
M  END
$$$$
[H]C([H])=C([H])C(=O)N1C([H])([H])C2(C1([H])[H])C([H])([H])C([H])(n1nc(-c3c([H])c([H])c(Oc4c([H])c([H])c([H])c([H])c4[H])c([H])c3[H])c(C(=O)N([H])[H])c1N([H])[H])C2([H])[H]
     RDKit          3D

 58 62  0  0  0  0  0  0  0  0999 V2000
   -1.8640    1.6489    3.1584 N   0  0  0  0  0  0  0  0  0  0  0  0
   -0.5033    1.7832    2.8552 C   0  0  0  0  0  0  0  0  0  0  0  0
    0.2223    2.2384    3.8012 O   0  0  0  0  0  0  0  0  0  0  0  0
    0.1009    1.4443    1.5832 C   0  0  0  0  0  0  0  0  0  0  0  0
    1.4712    1.5503    1.3308 C   0  0  0  0  0  0  0  0  0  0  0  0
    2.4419    2.0298    2.2745 N   0  0  0  0  0  0  0  0  0  0  0  0
    1.6926    1.1322    0.0817 N   0  0  0  0  0  0  0  0  0  0  0  0
    0.5563    0.7809   -0.4433 N   0  0  0  0  0  0  0  0  0  0  0  0
   -0.4738    0.9534    0.4412 C   0  0  0  0  0  0  0  0  0  0  0  0
   -1.8743    0.6239    0.1543 C   0  0  0  0  0  0  0  0  0  0  0  0
   -2.9077    1.5080    0.2366 C   0  0  0  0  0  0  0  0  0  0  0  0
   -4.2201    1.1813   -0.0104 C   0  0  0  0  0  0  0  0  0  0  0  0
   -4.5491   -0.1064   -0.3656 C   0  0  0  0  0  0  0  0  0  0  0  0
   -5.7492   -0.5397   -0.6241 O   0  0  0  0  0  0  0  0  0  0  0  0
   -7.0371   -0.3341   -0.7371 C   0  0  0  0  0  0  0  0  0  0  0  0
   -7.8280   -1.4461   -1.1121 C   0  0  0  0  0  0  0  0  0  0  0  0
   -9.1705   -1.3988   -1.2711 C   0  0  0  0  0  0  0  0  0  0  0  0
   -9.8132   -0.2154   -1.0607 C   0  0  0  0  0  0  0  0  0  0  0  0
   -9.1182    0.9008   -0.6969 C   0  0  0  0  0  0  0  0  0  0  0  0
   -7.7525    0.8271   -0.5414 C   0  0  0  0  0  0  0  0  0  0  0  0
   -3.4833   -1.0342   -0.4554 C   0  0  0  0  0  0  0  0  0  0  0  0
   -2.1912   -0.6922   -0.2069 C   0  0  0  0  0  0  0  0  0  0  0  0
    3.0280    1.1151   -0.4955 C   0  0  0  0  0  0  0  0  0  0  0  0
    4.0877    0.5484    0.4622 C   0  0  0  0  0  0  0  0  0  0  0  0
    4.6458   -0.1755   -0.7180 C   0  0  0  0  0  0  0  0  0  0  0  0
    3.3153   -0.0827   -1.3803 C   0  0  0  0  0  0  0  0  0  0  0  0
    5.2864   -1.4680   -0.5357 C   0  0  0  0  0  0  0  0  0  0  0  0
    6.4514   -0.9941   -1.2561 N   0  0  0  0  0  0  0  0  0  0  0  0
    5.8276    0.3506   -1.3916 C   0  0  0  0  0  0  0  0  0  0  0  0
    7.7091   -1.4017   -1.7320 C   0  0  0  0  0  0  0  0  0  0  0  0
    8.4597   -0.5727   -2.3711 O   0  0  0  0  0  0  0  0  0  0  0  0
    8.2307   -2.7270   -1.5463 C   0  0  0  0  0  0  0  0  0  0  0  0
    7.6414   -3.7187   -0.9305 C   0  0  0  0  0  0  0  0  0  0  0  0
   -2.4329    2.5209    3.2547 H   0  0  0  0  0  0  0  0  0  0  0  0
   -2.3564    0.7505    3.2959 H   0  0  0  0  0  0  0  0  0  0  0  0
    2.9836    2.9029    2.0818 H   0  0  0  0  0  0  0  0  0  0  0  0
    2.6060    1.5101    3.1478 H   0  0  0  0  0  0  0  0  0  0  0  0
   -2.7190    2.5463    0.4908 H   0  0  0  0  0  0  0  0  0  0  0  0
   -5.0021    1.9590    0.0789 H   0  0  0  0  0  0  0  0  0  0  0  0
   -7.3079   -2.3985   -1.2811 H   0  0  0  0  0  0  0  0  0  0  0  0
   -9.7061   -2.3142   -1.5651 H   0  0  0  0  0  0  0  0  0  0  0  0
  -10.8676   -0.1693   -1.1834 H   0  0  0  0  0  0  0  0  0  0  0  0
   -9.6745    1.8186   -0.5411 H   0  0  0  0  0  0  0  0  0  0  0  0
   -7.2205    1.7139   -0.2548 H   0  0  0  0  0  0  0  0  0  0  0  0
   -3.7042   -2.0545   -0.7322 H   0  0  0  0  0  0  0  0  0  0  0  0
   -1.3928   -1.4398   -0.2869 H   0  0  0  0  0  0  0  0  0  0  0  0
    3.3917    2.0850   -0.8765 H   0  0  0  0  0  0  0  0  0  0  0  0
    3.5573   -0.1086    1.1869 H   0  0  0  0  0  0  0  0  0  0  0  0
    4.7733    1.2884    0.8755 H   0  0  0  0  0  0  0  0  0  0  0  0
    3.3420    0.1909   -2.4484 H   0  0  0  0  0  0  0  0  0  0  0  0
    2.6131   -0.9203   -1.1780 H   0  0  0  0  0  0  0  0  0  0  0  0
    5.4696   -1.7173    0.5295 H   0  0  0  0  0  0  0  0  0  0  0  0
    4.7614   -2.2763   -1.1008 H   0  0  0  0  0  0  0  0  0  0  0  0
    6.4359    1.1166   -0.8347 H   0  0  0  0  0  0  0  0  0  0  0  0
    5.7565    0.5540   -2.4896 H   0  0  0  0  0  0  0  0  0  0  0  0
    9.2436   -2.9880   -1.9528 H   0  0  0  0  0  0  0  0  0  0  0  0
    6.6704   -3.5892   -0.5006 H   0  0  0  0  0  0  0  0  0  0  0  0
    8.1470   -4.6904   -0.8543 H   0  0  0  0  0  0  0  0  0  0  0  0
  1  2  1  0
  2  3  2  0
  2  4  1  0
  4  5  2  0
  5  6  1  0
  5  7  1  0
  7  8  1  0
  8  9  2  0
  9 10  1  0
 10 11  2  0
 11 12  1  0
 12 13  2  0
 13 14  1  0
 14 15  1  0
 15 16  2  0
 16 17  1  0
 17 18  2  0
 18 19  1  0
 19 20  2  0
 13 21  1  0
 21 22  2  0
  7 23  1  0
 23 24  1  0
 24 25  1  0
 25 26  1  0
 25 27  1  0
 27 28  1  0
 28 29  1  0
 28 30  1  0
 30 31  2  0
 30 32  1  0
 32 33  2  3
  9  4  1  0
 22 10  1  0
 26 23  1  0
 20 15  1  0
 29 25  1  0
  1 34  1  0
  1 35  1  0
  6 36  1  0
  6 37  1  0
 11 38  1  0
 12 39  1  0
 16 40  1  0
 17 41  1  0
 18 42  1  0
 19 43  1  0
 20 44  1  0
 21 45  1  0
 22 46  1  0
 23 47  1  0
 24 48  1  0
 24 49  1  0
 26 50  1  0
 26 51  1  0
 27 52  1  0
 27 53  1  0
 29 54  1  0
 29 55  1  0
 32 56  1  0
 33 57  1  0
 33 58  1  0
M  END
$$$$
[H]N=C(N([H])[H])N([H])C([H])([H])C([H])([H])C([H])([H])[C@@]([H])(C(=O)N([H])[C@]([H])(C(=O)N([H])[C@]([H])(C(=O)N([H])[C@]([H])(C(=O)O[H])C([H])([H])C([H])([H])C(=O)O[H])C([H])([H])C([H])([H])C(=O)O[H])C([H])([H])C(=O)O[H])N([H])C(=O)[C@@]([H])(N([H])C(=O)[C@@]([H])(N([H])[H])C([H])([H])C([H])([H])C(=O)O[H])C([H])([H])C([H])([H])C(=O)O[H]
     RDKit          3D

103102  0  0  0  0  0  0  0  0999 V2000
    3.4108   -4.0381    4.6605 N   0  0  0  0  0  0  0  0  0  0  0  0
    3.1860   -4.9008    3.5616 C   0  0  0  0  0  0  0  0  0  0  0  0
    3.0573   -6.1735    3.7495 N   0  0  0  0  0  0  0  0  0  0  0  0
    3.0993   -4.4058    2.2401 N   0  0  0  0  0  0  0  0  0  0  0  0
    1.8813   -4.5539    1.4928 C   0  0  0  0  0  0  0  0  0  0  0  0
    0.8368   -3.6253    2.1471 C   0  0  0  0  0  0  0  0  0  0  0  0
    1.3168   -2.2307    2.0916 C   0  0  0  0  0  0  0  0  0  0  0  0
    1.5596   -1.7142    0.7293 C   0  0  2  0  0  0  0  0  0  0  0  0
    2.1444   -0.3411    0.8193 N   0  0  0  0  0  0  0  0  0  0  0  0
    3.4956   -0.1632    0.5115 C   0  0  0  0  0  0  0  0  0  0  0  0
    4.1914   -1.1658    0.1711 O   0  0  0  0  0  0  0  0  0  0  0  0
    4.1284    1.1819    0.5762 C   0  0  2  0  0  0  0  0  0  0  0  0
    3.5040    2.1128   -0.4624 C   0  0  0  0  0  0  0  0  0  0  0  0
    3.6852    1.5745   -1.8578 C   0  0  0  0  0  0  0  0  0  0  0  0
    3.0721    2.5129   -2.8222 C   0  0  0  0  0  0  0  0  0  0  0  0
    3.0746    2.2328   -4.1688 O   0  0  0  0  0  0  0  0  0  0  0  0
    2.5467    3.5707   -2.4081 O   0  0  0  0  0  0  0  0  0  0  0  0
    5.5312    1.0680    0.2744 N   0  0  0  0  0  0  0  0  0  0  0  0
    6.4937    1.6317    1.1227 C   0  0  0  0  0  0  0  0  0  0  0  0
    6.1126    2.2437    2.1609 O   0  0  0  0  0  0  0  0  0  0  0  0
    7.9690    1.5826    0.9192 C   0  0  1  0  0  0  0  0  0  0  0  0
    8.2843    0.8229   -0.2802 N   0  0  0  0  0  0  0  0  0  0  0  0
    8.4264    2.9900    0.6799 C   0  0  0  0  0  0  0  0  0  0  0  0
    9.8932    3.1575    0.4543 C   0  0  0  0  0  0  0  0  0  0  0  0
   10.6890    2.7476    1.6116 C   0  0  0  0  0  0  0  0  0  0  0  0
   12.0925    2.8143    1.4542 O   0  0  0  0  0  0  0  0  0  0  0  0
   10.2033    2.3645    2.6720 O   0  0  0  0  0  0  0  0  0  0  0  0
    0.4106   -1.5131   -0.1530 C   0  0  0  0  0  0  0  0  0  0  0  0
    0.6886   -0.7936   -1.2279 O   0  0  0  0  0  0  0  0  0  0  0  0
   -0.9151   -1.9078   -0.1052 N   0  0  0  0  0  0  0  0  0  0  0  0
   -1.8560   -1.5370   -1.1794 C   0  0  1  0  0  0  0  0  0  0  0  0
   -2.5233   -2.7435   -1.7436 C   0  0  0  0  0  0  0  0  0  0  0  0
   -1.5584   -3.7087   -2.3310 C   0  0  0  0  0  0  0  0  0  0  0  0
   -1.7005   -4.2100   -3.6422 O   0  0  0  0  0  0  0  0  0  0  0  0
   -0.5624   -4.1242   -1.6855 O   0  0  0  0  0  0  0  0  0  0  0  0
   -2.8035   -0.4804   -0.7341 C   0  0  0  0  0  0  0  0  0  0  0  0
   -2.6867   -0.0482    0.4409 O   0  0  0  0  0  0  0  0  0  0  0  0
   -3.8008    0.0412   -1.5565 N   0  0  0  0  0  0  0  0  0  0  0  0
   -4.7561    1.0622   -1.2238 C   0  0  1  0  0  0  0  0  0  0  0  0
   -4.7751    2.1957   -2.1863 C   0  0  0  0  0  0  0  0  0  0  0  0
   -3.5211    2.9557   -2.3677 C   0  0  0  0  0  0  0  0  0  0  0  0
   -3.0025    3.6355   -1.1811 C   0  0  0  0  0  0  0  0  0  0  0  0
   -1.7966    4.3639   -1.2332 O   0  0  0  0  0  0  0  0  0  0  0  0
   -3.5871    3.6071   -0.0840 O   0  0  0  0  0  0  0  0  0  0  0  0
   -6.0920    0.3722   -1.1664 C   0  0  0  0  0  0  0  0  0  0  0  0
   -6.2019   -0.8556   -1.3819 O   0  0  0  0  0  0  0  0  0  0  0  0
   -7.2728    1.1049   -0.8640 N   0  0  0  0  0  0  0  0  0  0  0  0
   -8.5357    0.3463   -0.8368 C   0  0  1  0  0  0  0  0  0  0  0  0
   -9.0437    0.4661    0.5633 C   0  0  0  0  0  0  0  0  0  0  0  0
  -10.3227   -0.2225    0.8657 C   0  0  0  0  0  0  0  0  0  0  0  0
  -10.6267    0.0069    2.3166 C   0  0  0  0  0  0  0  0  0  0  0  0
   -9.8049    0.7705    3.1325 O   0  0  0  0  0  0  0  0  0  0  0  0
  -11.6630   -0.5229    2.7695 O   0  0  0  0  0  0  0  0  0  0  0  0
   -9.4214    0.8225   -1.8939 C   0  0  0  0  0  0  0  0  0  0  0  0
  -10.6546    0.2576   -2.1170 O   0  0  0  0  0  0  0  0  0  0  0  0
   -9.0601    1.7744   -2.6309 O   0  0  0  0  0  0  0  0  0  0  0  0
    2.6643   -3.6169    5.2464 H   0  0  0  0  0  0  0  0  0  0  0  0
    4.3989   -3.8043    4.9071 H   0  0  0  0  0  0  0  0  0  0  0  0
    2.8927   -6.8680    2.9994 H   0  0  0  0  0  0  0  0  0  0  0  0
    3.9291   -3.9352    1.8275 H   0  0  0  0  0  0  0  0  0  0  0  0
    1.9473   -4.2790    0.4444 H   0  0  0  0  0  0  0  0  0  0  0  0
    1.4700   -5.6010    1.5875 H   0  0  0  0  0  0  0  0  0  0  0  0
   -0.1241   -3.8023    1.6783 H   0  0  0  0  0  0  0  0  0  0  0  0
    0.6975   -3.9798    3.2183 H   0  0  0  0  0  0  0  0  0  0  0  0
    0.4703   -1.5925    2.5244 H   0  0  0  0  0  0  0  0  0  0  0  0
    2.2006   -2.0425    2.7589 H   0  0  0  0  0  0  0  0  0  0  0  0
    2.3477   -2.3704    0.2674 H   0  0  0  0  0  0  0  0  0  0  0  0
    1.4943    0.3984    1.1098 H   0  0  0  0  0  0  0  0  0  0  0  0
    3.9022    1.6460    1.5498 H   0  0  0  0  0  0  0  0  0  0  0  0
    2.4553    2.2526   -0.1696 H   0  0  0  0  0  0  0  0  0  0  0  0
    4.0748    3.0652   -0.3958 H   0  0  0  0  0  0  0  0  0  0  0  0
    3.2354    0.5734   -2.0122 H   0  0  0  0  0  0  0  0  0  0  0  0
    4.7837    1.5642   -2.0650 H   0  0  0  0  0  0  0  0  0  0  0  0
    3.9380    2.1445   -4.7151 H   0  0  0  0  0  0  0  0  0  0  0  0
    5.8213    0.5628   -0.5802 H   0  0  0  0  0  0  0  0  0  0  0  0
    8.4304    1.0832    1.7661 H   0  0  0  0  0  0  0  0  0  0  0  0
    8.0142   -0.1908   -0.2043 H   0  0  0  0  0  0  0  0  0  0  0  0
    7.8424    1.2962   -1.0923 H   0  0  0  0  0  0  0  0  0  0  0  0
    7.9113    3.3992   -0.2264 H   0  0  0  0  0  0  0  0  0  0  0  0
    8.0919    3.6727    1.5194 H   0  0  0  0  0  0  0  0  0  0  0  0
   10.1513    4.2310    0.2384 H   0  0  0  0  0  0  0  0  0  0  0  0
   10.2109    2.5973   -0.4731 H   0  0  0  0  0  0  0  0  0  0  0  0
   12.5210    3.7181    1.2890 H   0  0  0  0  0  0  0  0  0  0  0  0
   -1.3350   -2.4443    0.6615 H   0  0  0  0  0  0  0  0  0  0  0  0
   -1.2192   -1.0300   -1.9584 H   0  0  0  0  0  0  0  0  0  0  0  0
   -3.3172   -2.4523   -2.4286 H   0  0  0  0  0  0  0  0  0  0  0  0
   -3.0151   -3.3223   -0.9048 H   0  0  0  0  0  0  0  0  0  0  0  0
   -1.3551   -3.5879   -4.3956 H   0  0  0  0  0  0  0  0  0  0  0  0
   -3.8801   -0.3419   -2.5450 H   0  0  0  0  0  0  0  0  0  0  0  0
   -4.5698    1.4233   -0.2043 H   0  0  0  0  0  0  0  0  0  0  0  0
   -5.5520    2.9217   -1.8205 H   0  0  0  0  0  0  0  0  0  0  0  0
   -5.1576    1.8669   -3.1853 H   0  0  0  0  0  0  0  0  0  0  0  0
   -2.6988    2.3614   -2.8333 H   0  0  0  0  0  0  0  0  0  0  0  0
   -3.7279    3.7569   -3.1278 H   0  0  0  0  0  0  0  0  0  0  0  0
   -1.1006    4.1804   -0.5237 H   0  0  0  0  0  0  0  0  0  0  0  0
   -7.2973    2.1105   -0.6635 H   0  0  0  0  0  0  0  0  0  0  0  0
   -8.3223   -0.7519   -1.0080 H   0  0  0  0  0  0  0  0  0  0  0  0
   -8.1985    0.1090    1.2241 H   0  0  0  0  0  0  0  0  0  0  0  0
   -9.0970    1.5701    0.8059 H   0  0  0  0  0  0  0  0  0  0  0  0
  -10.1276   -1.3285    0.7765 H   0  0  0  0  0  0  0  0  0  0  0  0
  -11.1296    0.1411    0.2313 H   0  0  0  0  0  0  0  0  0  0  0  0
   -9.8695    1.7877    3.1539 H   0  0  0  0  0  0  0  0  0  0  0  0
  -11.2430    0.4962   -2.9155 H   0  0  0  0  0  0  0  0  0  0  0  0
  1  2  1  0
  2  3  2  3
  2  4  1  0
  4  5  1  0
  5  6  1  0
  6  7  1  0
  7  8  1  0
  8  9  1  0
  9 10  1  0
 10 11  2  0
 10 12  1  0
 12 13  1  0
 13 14  1  0
 14 15  1  0
 15 16  1  0
 15 17  2  0
 12 18  1  0
 18 19  1  0
 19 20  2  0
 19 21  1  0
 21 22  1  0
 21 23  1  0
 23 24  1  0
 24 25  1  0
 25 26  1  0
 25 27  2  0
  8 28  1  0
 28 29  2  0
 28 30  1  0
 30 31  1  0
 31 32  1  0
 32 33  1  0
 33 34  1  0
 33 35  2  0
 31 36  1  0
 36 37  2  0
 36 38  1  0
 38 39  1  0
 39 40  1  0
 40 41  1  0
 41 42  1  0
 42 43  1  0
 42 44  2  0
 39 45  1  0
 45 46  2  0
 45 47  1  0
 47 48  1  0
 48 49  1  0
 49 50  1  0
 50 51  1  0
 51 52  1  0
 51 53  2  0
 48 54  1  0
 54 55  1  0
 54 56  2  0
  1 57  1  0
  1 58  1  0
  3 59  1  0
  4 60  1  0
  5 61  1  0
  5 62  1  0
  6 63  1  0
  6 64  1  0
  7 65  1  0
  7 66  1  0
  8 67  1  6
  9 68  1  0
 12 69  1  1
 13 70  1  0
 13 71  1  0
 14 72  1  0
 14 73  1  0
 16 74  1  0
 18 75  1  0
 21 76  1  1
 22 77  1  0
 22 78  1  0
 23 79  1  0
 23 80  1  0
 24 81  1  0
 24 82  1  0
 26 83  1  0
 30 84  1  0
 31 85  1  6
 32 86  1  0
 32 87  1  0
 34 88  1  0
 38 89  1  0
 39 90  1  1
 40 91  1  0
 40 92  1  0
 41 93  1  0
 41 94  1  0
 43 95  1  0
 47 96  1  0
 48 97  1  6
 49 98  1  0
 49 99  1  0
 50100  1  0
 50101  1  0
 52102  1  0
 55103  1  0
M  END
$$$$
[H]OC([H])([H])[C@@]1([H])OC([H])([H])[C@@]([H])(O[H])[C@]([H])(O[H])[C@]1([H])O[H]
     RDKit          3D

 23 23  0  0  0  0  0  0  0  0999 V2000
    3.0214   -1.0371    0.7940 O   0  0  0  0  0  0  0  0  0  0  0  0
    2.0764   -0.0249    0.9715 C   0  0  0  0  0  0  0  0  0  0  0  0
    1.0765   -0.1009   -0.1605 C   0  0  1  0  0  0  0  0  0  0  0  0
    0.4111   -1.2962   -0.2202 O   0  0  0  0  0  0  0  0  0  0  0  0
   -0.8016   -1.3158    0.4335 C   0  0  0  0  0  0  0  0  0  0  0  0
   -1.8177   -0.3674   -0.1377 C   0  0  1  0  0  0  0  0  0  0  0  0
   -2.3102    0.4392    0.9139 O   0  0  0  0  0  0  0  0  0  0  0  0
   -1.0584    0.6026   -1.0451 C   0  0  2  0  0  0  0  0  0  0  0  0
   -0.5655   -0.1555   -2.1159 O   0  0  0  0  0  0  0  0  0  0  0  0
    0.1250    1.0519   -0.1740 C   0  0  2  0  0  0  0  0  0  0  0  0
    0.6753    2.2220   -0.6585 O   0  0  0  0  0  0  0  0  0  0  0  0
    3.6789   -0.8186    0.0826 H   0  0  0  0  0  0  0  0  0  0  0  0
    1.5769   -0.2075    1.9370 H   0  0  0  0  0  0  0  0  0  0  0  0
    2.5501    0.9620    0.9692 H   0  0  0  0  0  0  0  0  0  0  0  0
    1.6890   -0.0224   -1.1074 H   0  0  0  0  0  0  0  0  0  0  0  0
   -1.2210   -2.3498    0.2952 H   0  0  0  0  0  0  0  0  0  0  0  0
   -0.6956   -1.2005    1.5443 H   0  0  0  0  0  0  0  0  0  0  0  0
   -2.6468   -0.8478   -0.6602 H   0  0  0  0  0  0  0  0  0  0  0  0
   -2.7660   -0.0793    1.5973 H   0  0  0  0  0  0  0  0  0  0  0  0
   -1.6681    1.4487   -1.3613 H   0  0  0  0  0  0  0  0  0  0  0  0
   -1.0510   -1.0367   -2.1895 H   0  0  0  0  0  0  0  0  0  0  0  0
   -0.2467    1.2116    0.8727 H   0  0  0  0  0  0  0  0  0  0  0  0
   -0.0322    2.9224   -0.5810 H   0  0  0  0  0  0  0  0  0  0  0  0
  1  2  1  0
  2  3  1  0
  3  4  1  0
  4  5  1  0
  5  6  1  0
  6  7  1  0
  6  8  1  0
  8  9  1  0
  8 10  1  0
 10 11  1  0
 10  3  1  0
  1 12  1  0
  2 13  1  0
  2 14  1  0
  3 15  1  6
  5 16  1  0
  5 17  1  0
  6 18  1  6
  7 19  1  0
  8 20  1  6
  9 21  1  0
 10 22  1  1
 11 23  1  0
M  END
$$$$
[H]c1c([H])c(Cl)c(-c2c([H])c3c([H])nc(N([H])c4c([H])c([H])c(N5C([H])([H])C([H])([H])N(C([H])([H])C([H])([H])[H])C([H])([H])C5([H])[H])c(C([H])([H])[H])c4[H])nc3n(C([H])([H])[H])c2=O)c(Cl)c1[H]
     RDKit          3D

 64 68  0  0  0  0  0  0  0  0999 V2000
    8.9592    2.2774   -0.0181 C   0  0  0  0  0  0  0  0  0  0  0  0
    8.6251    0.8331   -0.1443 C   0  0  0  0  0  0  0  0  0  0  0  0
    7.2647    0.5872   -0.5871 N   0  0  0  0  0  0  0  0  0  0  0  0
    7.0742   -0.8206   -0.6664 C   0  0  0  0  0  0  0  0  0  0  0  0
    5.6565   -1.2748   -0.7329 C   0  0  0  0  0  0  0  0  0  0  0  0
    4.7942   -0.5662    0.2592 N   0  0  0  0  0  0  0  0  0  0  0  0
    5.5905    0.2757    1.0834 C   0  0  0  0  0  0  0  0  0  0  0  0
    6.2881    1.2849    0.1816 C   0  0  0  0  0  0  0  0  0  0  0  0
    3.4366   -0.8606    0.2277 C   0  0  0  0  0  0  0  0  0  0  0  0
    3.0131   -2.0299   -0.4353 C   0  0  0  0  0  0  0  0  0  0  0  0
    1.7039   -2.4203   -0.4945 C   0  0  0  0  0  0  0  0  0  0  0  0
    0.6954   -1.6738    0.1063 C   0  0  0  0  0  0  0  0  0  0  0  0
   -0.6131   -2.1801    0.0102 N   0  0  0  0  0  0  0  0  0  0  0  0
   -1.7841   -1.3914   -0.0013 C   0  0  0  0  0  0  0  0  0  0  0  0
   -1.7110   -0.0620    0.0611 N   0  0  0  0  0  0  0  0  0  0  0  0
   -2.8208    0.6941    0.0505 C   0  0  0  0  0  0  0  0  0  0  0  0
   -4.0645    0.0955   -0.0260 C   0  0  0  0  0  0  0  0  0  0  0  0
   -5.1857    0.8955   -0.0351 C   0  0  0  0  0  0  0  0  0  0  0  0
   -6.4232    0.2673   -0.1126 C   0  0  0  0  0  0  0  0  0  0  0  0
   -7.6227    1.1008   -0.1234 C   0  0  0  0  0  0  0  0  0  0  0  0
   -8.2842    1.4767    1.0284 C   0  0  0  0  0  0  0  0  0  0  0  0
   -7.6612    0.9325    2.5705 Cl  0  0  0  0  0  0  0  0  0  0  0  0
   -9.4187    2.2654    1.0136 C   0  0  0  0  0  0  0  0  0  0  0  0
   -9.9351    2.7107   -0.1856 C   0  0  0  0  0  0  0  0  0  0  0  0
   -9.2872    2.3445   -1.3408 C   0  0  0  0  0  0  0  0  0  0  0  0
   -8.1546    1.5570   -1.3233 C   0  0  0  0  0  0  0  0  0  0  0  0
   -7.3179    1.0829   -2.7982 Cl  0  0  0  0  0  0  0  0  0  0  0  0
   -6.4987   -1.1089   -0.1771 C   0  0  0  0  0  0  0  0  0  0  0  0
   -7.6369   -1.6163   -0.2453 O   0  0  0  0  0  0  0  0  0  0  0  0
   -5.3647   -1.8265   -0.1639 N   0  0  0  0  0  0  0  0  0  0  0  0
   -5.4860   -3.2670   -0.2331 C   0  0  0  0  0  0  0  0  0  0  0  0
   -4.1472   -1.2875   -0.0911 C   0  0  0  0  0  0  0  0  0  0  0  0
   -3.0161   -2.0073   -0.0781 N   0  0  0  0  0  0  0  0  0  0  0  0
    1.0959   -0.5346    0.7544 C   0  0  0  0  0  0  0  0  0  0  0  0
    2.4438   -0.1336    0.8136 C   0  0  0  0  0  0  0  0  0  0  0  0
    2.6915    1.1456    1.5338 C   0  0  0  0  0  0  0  0  0  0  0  0
   10.0730    2.3649    0.0342 H   0  0  0  0  0  0  0  0  0  0  0  0
    8.5880    2.7169    0.9352 H   0  0  0  0  0  0  0  0  0  0  0  0
    8.6448    2.8228   -0.9112 H   0  0  0  0  0  0  0  0  0  0  0  0
    8.8201    0.2841    0.8150 H   0  0  0  0  0  0  0  0  0  0  0  0
    9.3123    0.3815   -0.8960 H   0  0  0  0  0  0  0  0  0  0  0  0
    7.6477   -1.3904    0.1209 H   0  0  0  0  0  0  0  0  0  0  0  0
    7.5553   -1.1574   -1.6291 H   0  0  0  0  0  0  0  0  0  0  0  0
    5.6529   -2.3371   -0.3463 H   0  0  0  0  0  0  0  0  0  0  0  0
    5.2286   -1.2279   -1.7297 H   0  0  0  0  0  0  0  0  0  0  0  0
    5.1851    0.6897    1.9857 H   0  0  0  0  0  0  0  0  0  0  0  0
    6.4736   -0.3780    1.4428 H   0  0  0  0  0  0  0  0  0  0  0  0
    6.6359    2.1677    0.7103 H   0  0  0  0  0  0  0  0  0  0  0  0
    5.4951    1.6413   -0.5390 H   0  0  0  0  0  0  0  0  0  0  0  0
    3.7348   -2.6781   -0.9359 H   0  0  0  0  0  0  0  0  0  0  0  0
    1.4009   -3.3315   -1.0157 H   0  0  0  0  0  0  0  0  0  0  0  0
   -0.7225   -3.2501   -0.0557 H   0  0  0  0  0  0  0  0  0  0  0  0
   -2.7799    1.7707    0.1003 H   0  0  0  0  0  0  0  0  0  0  0  0
   -5.1184    1.9832    0.0162 H   0  0  0  0  0  0  0  0  0  0  0  0
   -9.9455    2.5657    1.9169 H   0  0  0  0  0  0  0  0  0  0  0  0
  -10.8297    3.3314   -0.1804 H   0  0  0  0  0  0  0  0  0  0  0  0
   -9.6859    2.6897   -2.2852 H   0  0  0  0  0  0  0  0  0  0  0  0
   -6.4764   -3.5936    0.1804 H   0  0  0  0  0  0  0  0  0  0  0  0
   -4.6930   -3.7685    0.3418 H   0  0  0  0  0  0  0  0  0  0  0  0
   -5.4678   -3.6449   -1.2800 H   0  0  0  0  0  0  0  0  0  0  0  0
    0.3502    0.0685    1.2574 H   0  0  0  0  0  0  0  0  0  0  0  0
    1.7210    1.7379    1.6090 H   0  0  0  0  0  0  0  0  0  0  0  0
    3.3673    1.8329    1.0141 H   0  0  0  0  0  0  0  0  0  0  0  0
    2.9337    0.9436    2.5961 H   0  0  0  0  0  0  0  0  0  0  0  0
  1  2  1  0
  2  3  1  0
  3  4  1  0
  4  5  1  0
  5  6  1  0
  6  7  1  0
  7  8  1  0
  6  9  1  0
  9 10  2  0
 10 11  1  0
 11 12  2  0
 12 13  1  0
 13 14  1  0
 14 15  2  0
 15 16  1  0
 16 17  2  0
 17 18  1  0
 18 19  2  0
 19 20  1  0
 20 21  2  0
 21 22  1  0
 21 23  1  0
 23 24  2  0
 24 25  1  0
 25 26  2  0
 26 27  1  0
 19 28  1  0
 28 29  2  0
 28 30  1  0
 30 31  1  0
 30 32  1  0
 32 33  2  0
 12 34  1  0
 34 35  2  0
 35 36  1  0
  8  3  1  0
 35  9  1  0
 33 14  1  0
 32 17  1  0
 26 20  1  0
  1 37  1  0
  1 38  1  0
  1 39  1  0
  2 40  1  0
  2 41  1  0
  4 42  1  0
  4 43  1  0
  5 44  1  0
  5 45  1  0
  7 46  1  0
  7 47  1  0
  8 48  1  0
  8 49  1  0
 10 50  1  0
 11 51  1  0
 13 52  1  0
 16 53  1  0
 18 54  1  0
 23 55  1  0
 24 56  1  0
 25 57  1  0
 31 58  1  0
 31 59  1  0
 31 60  1  0
 34 61  1  0
 36 62  1  0
 36 63  1  0
 36 64  1  0
M  END
$$$$
[H]N=C(N([H])[H])N([H])C([H])([H])C([H])([H])C([H])([H])[C@@]([H])(C([H])=O)N([H])C(=O)C([H])(N([H])C(=O)[C@@]1([H])N(C(=O)[C@@]([H])(N([H])C(=O)OC(C([H])([H])[H])(C([H])([H])[H])C([H])([H])[H])C([H])([H])c2c([H])c([H])c([H])c([H])c2[H])C([H])([H])C([H])([H])C1([H])[H])C([H])([H])c1c([H])c([H])c([H])c([H])c1[H]
     RDKit          3D

 94 96  0  0  0  0  0  0  0  0999 V2000
   -9.3224    1.0233   -0.1203 C   0  0  0  0  0  0  0  0  0  0  0  0
   -8.7839   -0.1323    0.6972 C   0  0  0  0  0  0  0  0  0  0  0  0
   -9.5918   -0.2797    1.9934 C   0  0  0  0  0  0  0  0  0  0  0  0
   -9.0417   -1.3934   -0.0889 C   0  0  0  0  0  0  0  0  0  0  0  0
   -7.4402    0.1117    0.9794 O   0  0  0  0  0  0  0  0  0  0  0  0
   -6.4297    0.2805    0.0666 C   0  0  0  0  0  0  0  0  0  0  0  0
   -6.7204    0.2121   -1.1546 O   0  0  0  0  0  0  0  0  0  0  0  0
   -5.0797    0.5277    0.4843 N   0  0  0  0  0  0  0  0  0  0  0  0
   -4.0050    0.7066   -0.4911 C   0  0  1  0  0  0  0  0  0  0  0  0
   -3.5257    2.1382   -0.2887 C   0  0  0  0  0  0  0  0  0  0  0  0
   -4.6298    3.0891   -0.5235 C   0  0  0  0  0  0  0  0  0  0  0  0
   -4.8645    3.6033   -1.7703 C   0  0  0  0  0  0  0  0  0  0  0  0
   -5.8980    4.4798   -1.9518 C   0  0  0  0  0  0  0  0  0  0  0  0
   -6.7099    4.8612   -0.9176 C   0  0  0  0  0  0  0  0  0  0  0  0
   -6.4697    4.3447    0.3211 C   0  0  0  0  0  0  0  0  0  0  0  0
   -5.4467    3.4672    0.5379 C   0  0  0  0  0  0  0  0  0  0  0  0
   -2.9711   -0.2982   -0.2535 C   0  0  0  0  0  0  0  0  0  0  0  0
   -3.1112   -1.1146    0.7118 O   0  0  0  0  0  0  0  0  0  0  0  0
   -1.8034   -0.4309   -1.0372 N   0  0  0  0  0  0  0  0  0  0  0  0
   -1.4427    0.3817   -2.1757 C   0  0  0  0  0  0  0  0  0  0  0  0
   -0.6831   -0.5422   -3.1070 C   0  0  0  0  0  0  0  0  0  0  0  0
   -0.3129   -1.7595   -2.2975 C   0  0  0  0  0  0  0  0  0  0  0  0
   -0.7310   -1.3914   -0.8870 C   0  0  1  0  0  0  0  0  0  0  0  0
    0.4149   -0.8263   -0.1372 C   0  0  0  0  0  0  0  0  0  0  0  0
    0.3789    0.3849    0.2007 O   0  0  0  0  0  0  0  0  0  0  0  0
    1.5545   -1.5857    0.2205 N   0  0  0  0  0  0  0  0  0  0  0  0
    2.6589   -1.0420    0.9395 C   0  0  0  0  0  0  0  0  0  0  0  0
    2.7470   -1.5648    2.3535 C   0  0  0  0  0  0  0  0  0  0  0  0
    2.8766   -3.0136    2.4736 C   0  0  0  0  0  0  0  0  0  0  0  0
    4.0767   -3.6832    2.5250 C   0  0  0  0  0  0  0  0  0  0  0  0
    4.0578   -5.0549    2.6361 C   0  0  0  0  0  0  0  0  0  0  0  0
    2.8985   -5.7798    2.6975 C   0  0  0  0  0  0  0  0  0  0  0  0
    1.6759   -5.1154    2.6469 C   0  0  0  0  0  0  0  0  0  0  0  0
    1.6847   -3.7443    2.5359 C   0  0  0  0  0  0  0  0  0  0  0  0
    3.9627   -1.1540    0.2865 C   0  0  0  0  0  0  0  0  0  0  0  0
    3.9813   -1.7811   -0.8293 O   0  0  0  0  0  0  0  0  0  0  0  0
    5.1906   -0.6511    0.7402 N   0  0  0  0  0  0  0  0  0  0  0  0
    6.4367   -0.8021    0.0242 C   0  0  1  0  0  0  0  0  0  0  0  0
    6.8498    0.5516   -0.5807 C   0  0  0  0  0  0  0  0  0  0  0  0
    8.1344    0.4367   -1.3316 C   0  0  0  0  0  0  0  0  0  0  0  0
    8.5008    1.7785   -1.8996 C   0  0  0  0  0  0  0  0  0  0  0  0
    8.6632    2.7377   -0.8191 N   0  0  0  0  0  0  0  0  0  0  0  0
    9.7085    2.6798    0.1136 C   0  0  0  0  0  0  0  0  0  0  0  0
    9.5369    2.0481    1.3678 N   0  0  0  0  0  0  0  0  0  0  0  0
   10.8482    3.2064   -0.1654 N   0  0  0  0  0  0  0  0  0  0  0  0
    7.5306   -1.3801    0.8130 C   0  0  0  0  0  0  0  0  0  0  0  0
    7.4492   -1.7031    1.9854 O   0  0  0  0  0  0  0  0  0  0  0  0
   -9.2993    0.7777   -1.2039 H   0  0  0  0  0  0  0  0  0  0  0  0
  -10.3763    1.1754    0.2148 H   0  0  0  0  0  0  0  0  0  0  0  0
   -8.7179    1.9107    0.1106 H   0  0  0  0  0  0  0  0  0  0  0  0
   -9.2952    0.4775    2.7296 H   0  0  0  0  0  0  0  0  0  0  0  0
  -10.6600   -0.1213    1.7181 H   0  0  0  0  0  0  0  0  0  0  0  0
   -9.4859   -1.3262    2.3626 H   0  0  0  0  0  0  0  0  0  0  0  0
   -8.2516   -1.6745   -0.7859 H   0  0  0  0  0  0  0  0  0  0  0  0
   -9.1695   -2.2345    0.6312 H   0  0  0  0  0  0  0  0  0  0  0  0
  -10.0130   -1.3120   -0.6190 H   0  0  0  0  0  0  0  0  0  0  0  0
   -4.8875    0.5760    1.5002 H   0  0  0  0  0  0  0  0  0  0  0  0
   -4.4627    0.5982   -1.4914 H   0  0  0  0  0  0  0  0  0  0  0  0
   -3.2282    2.2105    0.7835 H   0  0  0  0  0  0  0  0  0  0  0  0
   -2.6303    2.3734   -0.8776 H   0  0  0  0  0  0  0  0  0  0  0  0
   -4.2585    3.3448   -2.6407 H   0  0  0  0  0  0  0  0  0  0  0  0
   -6.1139    4.9087   -2.9282 H   0  0  0  0  0  0  0  0  0  0  0  0
   -7.5439    5.5569   -1.0180 H   0  0  0  0  0  0  0  0  0  0  0  0
   -7.1008    4.6298    1.1724 H   0  0  0  0  0  0  0  0  0  0  0  0
   -5.2538    3.0551    1.5247 H   0  0  0  0  0  0  0  0  0  0  0  0
   -2.2906    0.7915   -2.7201 H   0  0  0  0  0  0  0  0  0  0  0  0
   -0.7707    1.2020   -1.8170 H   0  0  0  0  0  0  0  0  0  0  0  0
    0.2396   -0.0257   -3.4279 H   0  0  0  0  0  0  0  0  0  0  0  0
   -1.2948   -0.8807   -3.9661 H   0  0  0  0  0  0  0  0  0  0  0  0
   -0.8083   -2.6865   -2.6417 H   0  0  0  0  0  0  0  0  0  0  0  0
    0.7905   -1.9213   -2.3292 H   0  0  0  0  0  0  0  0  0  0  0  0
   -1.0851   -2.2888   -0.3857 H   0  0  0  0  0  0  0  0  0  0  0  0
    1.5765   -2.5869   -0.0593 H   0  0  0  0  0  0  0  0  0  0  0  0
    2.4633    0.0729    1.0581 H   0  0  0  0  0  0  0  0  0  0  0  0
    3.6177   -1.1089    2.8885 H   0  0  0  0  0  0  0  0  0  0  0  0
    1.8521   -1.2355    2.9272 H   0  0  0  0  0  0  0  0  0  0  0  0
    5.0191   -3.1232    2.4809 H   0  0  0  0  0  0  0  0  0  0  0  0
    5.0353   -5.5496    2.6736 H   0  0  0  0  0  0  0  0  0  0  0  0
    2.9414   -6.8565    2.7846 H   0  0  0  0  0  0  0  0  0  0  0  0
    0.7525   -5.6665    2.6935 H   0  0  0  0  0  0  0  0  0  0  0  0
    0.7141   -3.2458    2.4984 H   0  0  0  0  0  0  0  0  0  0  0  0
    5.2031   -0.1382    1.6478 H   0  0  0  0  0  0  0  0  0  0  0  0
    6.2331   -1.4443   -0.8574 H   0  0  0  0  0  0  0  0  0  0  0  0
    6.8221    1.3058    0.2101 H   0  0  0  0  0  0  0  0  0  0  0  0
    6.0581    0.8173   -1.3363 H   0  0  0  0  0  0  0  0  0  0  0  0
    8.9875    0.1122   -0.7019 H   0  0  0  0  0  0  0  0  0  0  0  0
    8.0157   -0.3216   -2.1167 H   0  0  0  0  0  0  0  0  0  0  0  0
    9.5249    1.6657   -2.3574 H   0  0  0  0  0  0  0  0  0  0  0  0
    7.8456    2.1414   -2.6917 H   0  0  0  0  0  0  0  0  0  0  0  0
    7.9601    3.5000   -0.7489 H   0  0  0  0  0  0  0  0  0  0  0  0
   10.1165    1.2132    1.5693 H   0  0  0  0  0  0  0  0  0  0  0  0
    8.8643    2.3718    2.0993 H   0  0  0  0  0  0  0  0  0  0  0  0
   11.0504    3.6887   -1.0702 H   0  0  0  0  0  0  0  0  0  0  0  0
    8.5112   -1.5554    0.3660 H   0  0  0  0  0  0  0  0  0  0  0  0
  1  2  1  0
  2  3  1  0
  2  4  1  0
  2  5  1  0
  5  6  1  0
  6  7  2  0
  6  8  1  0
  8  9  1  0
  9 10  1  0
 10 11  1  0
 11 12  2  0
 12 13  1  0
 13 14  2  0
 14 15  1  0
 15 16  2  0
  9 17  1  0
 17 18  2  0
 17 19  1  0
 19 20  1  0
 20 21  1  0
 21 22  1  0
 22 23  1  0
 23 24  1  0
 24 25  2  0
 24 26  1  0
 26 27  1  0
 27 28  1  0
 28 29  1  0
 29 30  2  0
 30 31  1  0
 31 32  2  0
 32 33  1  0
 33 34  2  0
 27 35  1  0
 35 36  2  0
 35 37  1  0
 37 38  1  0
 38 39  1  0
 39 40  1  0
 40 41  1  0
 41 42  1  0
 42 43  1  0
 43 44  1  0
 43 45  2  3
 38 46  1  0
 46 47  2  0
 16 11  1  0
 23 19  1  0
 34 29  1  0
  1 48  1  0
  1 49  1  0
  1 50  1  0
  3 51  1  0
  3 52  1  0
  3 53  1  0
  4 54  1  0
  4 55  1  0
  4 56  1  0
  8 57  1  0
  9 58  1  6
 10 59  1  0
 10 60  1  0
 12 61  1  0
 13 62  1  0
 14 63  1  0
 15 64  1  0
 16 65  1  0
 20 66  1  0
 20 67  1  0
 21 68  1  0
 21 69  1  0
 22 70  1  0
 22 71  1  0
 23 72  1  1
 26 73  1  0
 27 74  1  0
 28 75  1  0
 28 76  1  0
 30 77  1  0
 31 78  1  0
 32 79  1  0
 33 80  1  0
 34 81  1  0
 37 82  1  0
 38 83  1  6
 39 84  1  0
 39 85  1  0
 40 86  1  0
 40 87  1  0
 41 88  1  0
 41 89  1  0
 42 90  1  0
 44 91  1  0
 44 92  1  0
 45 93  1  0
 46 94  1  0
M  END
$$$$
[H]c1c([H])c([H])c(C([H])([H])[C@@]([H])(C(=O)N2C([H])([H])C([H])([H])C([H])([H])[C@@]2([H])C(=O)N([H])[C@]([H])(C(=O)N([H])[C@]([H])(C(=O)N([H])[C@]([H])(C(=O)N([H])[C@]([H])(C(=O)N([H])[H])C([H])([H])c2c([H])c([H])c([H])c([H])c2[H])C([H])([H])C(=O)N([H])[H])C([H])([H])c2c([H])n([H])c3c([H])c([H])c([H])c([H])c23)C([H])([H])C([H])(C([H])([H])[H])C([H])([H])[H])N([H])[H])c([H])c1[H]
     RDKit          3D

115119  0  0  0  0  0  0  0  0999 V2000
   -1.2143   -0.9266    3.9808 C   0  0  0  0  0  0  0  0  0  0  0  0
   -2.3255   -0.1100    3.4022 C   0  0  0  0  0  0  0  0  0  0  0  0
   -3.6868   -0.6233    3.8494 C   0  0  0  0  0  0  0  0  0  0  0  0
   -2.2274    0.2655    1.9814 C   0  0  0  0  0  0  0  0  0  0  0  0
   -2.1462   -0.8391    0.9600 C   0  0  2  0  0  0  0  0  0  0  0  0
   -3.2500   -1.7141    0.9695 N   0  0  0  0  0  0  0  0  0  0  0  0
   -4.1494   -1.7684   -0.1659 C   0  0  0  0  0  0  0  0  0  0  0  0
   -3.9161   -1.0368   -1.1413 O   0  0  0  0  0  0  0  0  0  0  0  0
   -5.3326   -2.6634   -0.1960 C   0  0  2  0  0  0  0  0  0  0  0  0
   -4.9726   -4.0869    0.0253 C   0  0  0  0  0  0  0  0  0  0  0  0
   -5.3503   -4.8105   -1.2153 C   0  0  0  0  0  0  0  0  0  0  0  0
   -5.6281   -3.7536   -2.2359 C   0  0  0  0  0  0  0  0  0  0  0  0
   -6.0003   -2.5447   -1.4478 N   0  0  0  0  0  0  0  0  0  0  0  0
   -6.8154   -1.5046   -1.9658 C   0  0  0  0  0  0  0  0  0  0  0  0
   -7.3301   -1.8213   -3.1341 O   0  0  0  0  0  0  0  0  0  0  0  0
   -7.1684   -0.2084   -1.4682 C   0  0  1  0  0  0  0  0  0  0  0  0
   -8.1557    0.4042   -2.4042 N   0  0  0  0  0  0  0  0  0  0  0  0
   -7.7074   -0.0558   -0.0941 C   0  0  0  0  0  0  0  0  0  0  0  0
   -8.0103    1.3843    0.2019 C   0  0  0  0  0  0  0  0  0  0  0  0
   -7.0290    2.1466    0.7716 C   0  0  0  0  0  0  0  0  0  0  0  0
   -7.2523    3.5058    1.0610 C   0  0  0  0  0  0  0  0  0  0  0  0
   -8.4923    4.0087    0.7416 C   0  0  0  0  0  0  0  0  0  0  0  0
   -9.5012    3.2752    0.1704 C   0  0  0  0  0  0  0  0  0  0  0  0
   -9.2225    1.9326   -0.0936 C   0  0  0  0  0  0  0  0  0  0  0  0
   -0.8419   -1.5267    0.9760 C   0  0  0  0  0  0  0  0  0  0  0  0
   -0.6949   -2.7287    1.2529 O   0  0  0  0  0  0  0  0  0  0  0  0
    0.3457   -0.7683    0.6463 N   0  0  0  0  0  0  0  0  0  0  0  0
    1.6631   -1.2775    0.6348 C   0  0  1  0  0  0  0  0  0  0  0  0
    2.3023   -1.5208   -0.6994 C   0  0  0  0  0  0  0  0  0  0  0  0
    1.5845   -2.4919   -1.5486 C   0  0  0  0  0  0  0  0  0  0  0  0
    1.8663   -3.8532   -1.6308 C   0  0  0  0  0  0  0  0  0  0  0  0
    0.9940   -4.3994   -2.4789 N   0  0  0  0  0  0  0  0  0  0  0  0
    0.1630   -3.4400   -2.9436 C   0  0  0  0  0  0  0  0  0  0  0  0
   -0.8881   -3.4601   -3.8450 C   0  0  0  0  0  0  0  0  0  0  0  0
   -1.5771   -2.3171   -4.1803 C   0  0  0  0  0  0  0  0  0  0  0  0
   -1.2372   -1.0869   -3.6176 C   0  0  0  0  0  0  0  0  0  0  0  0
   -0.1964   -1.0833   -2.7267 C   0  0  0  0  0  0  0  0  0  0  0  0
    0.5144   -2.2352   -2.3744 C   0  0  0  0  0  0  0  0  0  0  0  0
    2.5736   -0.2810    1.3124 C   0  0  0  0  0  0  0  0  0  0  0  0
    2.0706    0.7766    1.7346 O   0  0  0  0  0  0  0  0  0  0  0  0
    3.9513   -0.5364    1.4578 N   0  0  0  0  0  0  0  0  0  0  0  0
    4.7944    0.4692    2.0887 C   0  0  1  0  0  0  0  0  0  0  0  0
    5.5855   -0.0959    3.2384 C   0  0  0  0  0  0  0  0  0  0  0  0
    6.4854   -1.1863    2.8230 C   0  0  0  0  0  0  0  0  0  0  0  0
    6.2557   -2.4991    3.3131 N   0  0  0  0  0  0  0  0  0  0  0  0
    7.4416   -0.9941    2.0541 O   0  0  0  0  0  0  0  0  0  0  0  0
    5.7100    1.0301    1.0511 C   0  0  0  0  0  0  0  0  0  0  0  0
    5.6753    0.5622   -0.1265 O   0  0  0  0  0  0  0  0  0  0  0  0
    6.5968    2.0631    1.3666 N   0  0  0  0  0  0  0  0  0  0  0  0
    7.4675    2.5984    0.2646 C   0  0  1  0  0  0  0  0  0  0  0  0
    6.9455    3.9290   -0.1201 C   0  0  0  0  0  0  0  0  0  0  0  0
    7.6820    4.5698   -1.2130 C   0  0  0  0  0  0  0  0  0  0  0  0
    8.6666    5.5500   -1.0295 C   0  0  0  0  0  0  0  0  0  0  0  0
    9.2840    6.0795   -2.1174 C   0  0  0  0  0  0  0  0  0  0  0  0
    8.9989    5.7083   -3.4173 C   0  0  0  0  0  0  0  0  0  0  0  0
    8.0239    4.7408   -3.5580 C   0  0  0  0  0  0  0  0  0  0  0  0
    7.3632    4.1665   -2.5029 C   0  0  0  0  0  0  0  0  0  0  0  0
    8.8292    2.6123    0.7888 C   0  0  0  0  0  0  0  0  0  0  0  0
    9.9324    2.9518   -0.0229 N   0  0  0  0  0  0  0  0  0  0  0  0
    9.0873    2.3082    2.0161 O   0  0  0  0  0  0  0  0  0  0  0  0
   -1.3896   -2.0244    3.9930 H   0  0  0  0  0  0  0  0  0  0  0  0
   -0.2457   -0.6323    3.5767 H   0  0  0  0  0  0  0  0  0  0  0  0
   -1.1387   -0.6747    5.0866 H   0  0  0  0  0  0  0  0  0  0  0  0
   -2.2440    0.8916    3.9639 H   0  0  0  0  0  0  0  0  0  0  0  0
   -3.7137   -1.7268    3.9763 H   0  0  0  0  0  0  0  0  0  0  0  0
   -4.4957   -0.2130    3.2137 H   0  0  0  0  0  0  0  0  0  0  0  0
   -3.9249   -0.2441    4.8936 H   0  0  0  0  0  0  0  0  0  0  0  0
   -3.0829    0.9104    1.7236 H   0  0  0  0  0  0  0  0  0  0  0  0
   -1.3066    0.8843    1.8437 H   0  0  0  0  0  0  0  0  0  0  0  0
   -2.1484   -0.2774   -0.0343 H   0  0  0  0  0  0  0  0  0  0  0  0
   -3.4647   -2.3481    1.7425 H   0  0  0  0  0  0  0  0  0  0  0  0
   -5.9896   -2.3072    0.6648 H   0  0  0  0  0  0  0  0  0  0  0  0
   -5.5720   -4.4914    0.8777 H   0  0  0  0  0  0  0  0  0  0  0  0
   -3.9147   -4.2417    0.3377 H   0  0  0  0  0  0  0  0  0  0  0  0
   -6.2181   -5.4830   -1.0447 H   0  0  0  0  0  0  0  0  0  0  0  0
   -4.5196   -5.4977   -1.5635 H   0  0  0  0  0  0  0  0  0  0  0  0
   -4.6470   -3.4787   -2.6945 H   0  0  0  0  0  0  0  0  0  0  0  0
   -6.4090   -3.9981   -2.9743 H   0  0  0  0  0  0  0  0  0  0  0  0
   -6.2820    0.4814   -1.5493 H   0  0  0  0  0  0  0  0  0  0  0  0
   -9.0068   -0.2095   -2.4380 H   0  0  0  0  0  0  0  0  0  0  0  0
   -7.7237    0.5028   -3.3551 H   0  0  0  0  0  0  0  0  0  0  0  0
   -6.9630   -0.3817    0.6480 H   0  0  0  0  0  0  0  0  0  0  0  0
   -8.6339   -0.6026    0.0938 H   0  0  0  0  0  0  0  0  0  0  0  0
   -6.0604    1.7567    1.0256 H   0  0  0  0  0  0  0  0  0  0  0  0
   -6.4771    4.1014    1.5117 H   0  0  0  0  0  0  0  0  0  0  0  0
   -8.6840    5.0707    0.9604 H   0  0  0  0  0  0  0  0  0  0  0  0
  -10.4850    3.6710   -0.0829 H   0  0  0  0  0  0  0  0  0  0  0  0
   -9.9677    1.2884   -0.5454 H   0  0  0  0  0  0  0  0  0  0  0  0
    0.1870    0.2504    0.3954 H   0  0  0  0  0  0  0  0  0  0  0  0
    1.6790   -2.2159    1.2304 H   0  0  0  0  0  0  0  0  0  0  0  0
    2.4134   -0.6004   -1.3087 H   0  0  0  0  0  0  0  0  0  0  0  0
    3.3465   -1.9114   -0.5605 H   0  0  0  0  0  0  0  0  0  0  0  0
    2.6738   -4.3396   -1.0791 H   0  0  0  0  0  0  0  0  0  0  0  0
    0.9500   -5.4131   -2.7496 H   0  0  0  0  0  0  0  0  0  0  0  0
   -1.1186   -4.4446   -4.2611 H   0  0  0  0  0  0  0  0  0  0  0  0
   -2.3950   -2.3832   -4.8930 H   0  0  0  0  0  0  0  0  0  0  0  0
   -1.8156   -0.2336   -3.9222 H   0  0  0  0  0  0  0  0  0  0  0  0
    0.0836   -0.1286   -2.2826 H   0  0  0  0  0  0  0  0  0  0  0  0
    4.3619   -1.4200    1.1249 H   0  0  0  0  0  0  0  0  0  0  0  0
    4.1622    1.2996    2.4125 H   0  0  0  0  0  0  0  0  0  0  0  0
    4.8682   -0.4205    4.0240 H   0  0  0  0  0  0  0  0  0  0  0  0
    6.2136    0.7463    3.6501 H   0  0  0  0  0  0  0  0  0  0  0  0
    6.3866   -3.3704    2.7356 H   0  0  0  0  0  0  0  0  0  0  0  0
    5.9400   -2.5896    4.3080 H   0  0  0  0  0  0  0  0  0  0  0  0
    6.6810    2.4701    2.3086 H   0  0  0  0  0  0  0  0  0  0  0  0
    7.3372    1.9195   -0.6265 H   0  0  0  0  0  0  0  0  0  0  0  0
    5.8692    3.8414   -0.4664 H   0  0  0  0  0  0  0  0  0  0  0  0
    6.8603    4.6260    0.7620 H   0  0  0  0  0  0  0  0  0  0  0  0
    8.8918    5.8373   -0.0088 H   0  0  0  0  0  0  0  0  0  0  0  0
   10.0509    6.8400   -1.9631 H   0  0  0  0  0  0  0  0  0  0  0  0
    9.5019    6.1447   -4.2738 H   0  0  0  0  0  0  0  0  0  0  0  0
    7.7874    4.4371   -4.5825 H   0  0  0  0  0  0  0  0  0  0  0  0
    6.5994    3.4067   -2.6328 H   0  0  0  0  0  0  0  0  0  0  0  0
   10.6836    3.5724    0.3217 H   0  0  0  0  0  0  0  0  0  0  0  0
    9.9748    2.5638   -0.9887 H   0  0  0  0  0  0  0  0  0  0  0  0
  1  2  1  0
  2  3  1  0
  2  4  1  0
  4  5  1  0
  5  6  1  0
  6  7  1  0
  7  8  2  0
  7  9  1  0
  9 10  1  0
 10 11  1  0
 11 12  1  0
 12 13  1  0
 13 14  1  0
 14 15  2  0
 14 16  1  0
 16 17  1  0
 16 18  1  0
 18 19  1  0
 19 20  2  0
 20 21  1  0
 21 22  2  0
 22 23  1  0
 23 24  2  0
  5 25  1  0
 25 26  2  0
 25 27  1  0
 27 28  1  0
 28 29  1  0
 29 30  1  0
 30 31  2  0
 31 32  1  0
 32 33  1  0
 33 34  2  0
 34 35  1  0
 35 36  2  0
 36 37  1  0
 37 38  2  0
 28 39  1  0
 39 40  2  0
 39 41  1  0
 41 42  1  0
 42 43  1  0
 43 44  1  0
 44 45  1  0
 44 46  2  0
 42 47  1  0
 47 48  2  0
 47 49  1  0
 49 50  1  0
 50 51  1  0
 51 52  1  0
 52 53  2  0
 53 54  1  0
 54 55  2  0
 55 56  1  0
 56 57  2  0
 50 58  1  0
 58 59  1  0
 58 60  2  0
 13  9  1  0
 24 19  1  0
 38 30  1  0
 57 52  1  0
 38 33  1  0
  1 61  1  0
  1 62  1  0
  1 63  1  0
  2 64  1  0
  3 65  1  0
  3 66  1  0
  3 67  1  0
  4 68  1  0
  4 69  1  0
  5 70  1  6
  6 71  1  0
  9 72  1  1
 10 73  1  0
 10 74  1  0
 11 75  1  0
 11 76  1  0
 12 77  1  0
 12 78  1  0
 16 79  1  1
 17 80  1  0
 17 81  1  0
 18 82  1  0
 18 83  1  0
 20 84  1  0
 21 85  1  0
 22 86  1  0
 23 87  1  0
 24 88  1  0
 27 89  1  0
 28 90  1  1
 29 91  1  0
 29 92  1  0
 31 93  1  0
 32 94  1  0
 34 95  1  0
 35 96  1  0
 36 97  1  0
 37 98  1  0
 41 99  1  0
 42100  1  1
 43101  1  0
 43102  1  0
 45103  1  0
 45104  1  0
 49105  1  0
 50106  1  6
 51107  1  0
 51108  1  0
 53109  1  0
 54110  1  0
 55111  1  0
 56112  1  0
 57113  1  0
 59114  1  0
 59115  1  0
M  END
$$$$
[H]c1c([H])c(C#N)c([H])c(C([H])([H])Sc2nc(N([H])[H])c([H])c(C([H])([H])[H])c2C#N)c1[H]
     RDKit          3D

 32 33  0  0  0  0  0  0  0  0999 V2000
    4.2369    1.5780   -1.4376 C   0  0  0  0  0  0  0  0  0  0  0  0
    3.5843    0.5180   -0.6294 C   0  0  0  0  0  0  0  0  0  0  0  0
    4.2974   -0.4298    0.0669 C   0  0  0  0  0  0  0  0  0  0  0  0
    3.6665   -1.4046    0.8109 C   0  0  0  0  0  0  0  0  0  0  0  0
    4.4309   -2.3796    1.5264 N   0  0  0  0  0  0  0  0  0  0  0  0
    2.3390   -1.3831    0.8218 N   0  0  0  0  0  0  0  0  0  0  0  0
    1.5787   -0.4565    0.1424 C   0  0  0  0  0  0  0  0  0  0  0  0
   -0.1455   -0.6376    0.3115 S   0  0  0  0  0  0  0  0  0  0  0  0
   -1.2488    0.4571   -0.4764 C   0  0  0  0  0  0  0  0  0  0  0  0
   -2.7082    0.0958   -0.1962 C   0  0  0  0  0  0  0  0  0  0  0  0
   -3.3962   -0.7697   -1.0146 C   0  0  0  0  0  0  0  0  0  0  0  0
   -4.7199   -1.1034   -0.7685 C   0  0  0  0  0  0  0  0  0  0  0  0
   -5.3672   -0.5595    0.3185 C   0  0  0  0  0  0  0  0  0  0  0  0
   -4.6891    0.2982    1.1314 C   0  0  0  0  0  0  0  0  0  0  0  0
   -3.3704    0.6308    0.8866 C   0  0  0  0  0  0  0  0  0  0  0  0
   -5.3552    0.8707    2.2675 C   0  0  0  0  0  0  0  0  0  0  0  0
   -5.9113    1.3320    3.1760 N   0  0  0  0  0  0  0  0  0  0  0  0
    2.1817    0.5197   -0.6022 C   0  0  0  0  0  0  0  0  0  0  0  0
    1.4657    1.5264   -1.3463 C   0  0  0  0  0  0  0  0  0  0  0  0
    0.9243    2.3389   -1.9495 N   0  0  0  0  0  0  0  0  0  0  0  0
    4.2255    2.5085   -0.8491 H   0  0  0  0  0  0  0  0  0  0  0  0
    3.6819    1.7268   -2.3891 H   0  0  0  0  0  0  0  0  0  0  0  0
    5.2577    1.2404   -1.7161 H   0  0  0  0  0  0  0  0  0  0  0  0
    5.3925   -0.4067    0.0273 H   0  0  0  0  0  0  0  0  0  0  0  0
    4.7562   -3.2158    0.9956 H   0  0  0  0  0  0  0  0  0  0  0  0
    4.6800   -2.3131    2.5216 H   0  0  0  0  0  0  0  0  0  0  0  0
   -1.1941    1.5240   -0.1196 H   0  0  0  0  0  0  0  0  0  0  0  0
   -1.1954    0.3535   -1.5775 H   0  0  0  0  0  0  0  0  0  0  0  0
   -2.8799   -1.1938   -1.8685 H   0  0  0  0  0  0  0  0  0  0  0  0
   -5.2424   -1.7784   -1.4140 H   0  0  0  0  0  0  0  0  0  0  0  0
   -6.4070   -0.7937    0.5497 H   0  0  0  0  0  0  0  0  0  0  0  0
   -2.8686    1.3067    1.5443 H   0  0  0  0  0  0  0  0  0  0  0  0
  1  2  1  0
  2  3  2  0
  3  4  1  0
  4  5  1  0
  4  6  2  0
  6  7  1  0
  7  8  1  0
  8  9  1  0
  9 10  1  0
 10 11  2  0
 11 12  1  0
 12 13  2  0
 13 14  1  0
 14 15  2  0
 14 16  1  0
 16 17  3  0
  7 18  2  0
 18 19  1  0
 19 20  3  0
 18  2  1  0
 15 10  1  0
  1 21  1  0
  1 22  1  0
  1 23  1  0
  3 24  1  0
  5 25  1  0
  5 26  1  0
  9 27  1  0
  9 28  1  0
 11 29  1  0
 12 30  1  0
 13 31  1  0
 15 32  1  0
M  END
$$$$
[H]c1nc(N([H])C(=O)c2c([H])c([H])c(C3([H])C([H])([H])C([H])([H])N(C([H])(C([H])([H])[H])C([H])([H])[H])C([H])([H])C3([H])[H])c([H])c2[H])c([H])c(Oc2c(OC([H])([H])C([H])([H])C([H])([H])OC([H])([H])[H])c([H])c3c(c2[H])c([H])c([H])n3C(=O)N([H])C([H])([H])[H])c1[H]
     RDKit          3D

 85 89  0  0  0  0  0  0  0  0999 V2000
   -9.3927    5.3603    0.4827 C   0  0  0  0  0  0  0  0  0  0  0  0
   -8.1647    4.9228   -0.1759 N   0  0  0  0  0  0  0  0  0  0  0  0
   -7.7421    3.5667   -0.0062 C   0  0  0  0  0  0  0  0  0  0  0  0
   -8.4550    2.7865    0.7176 O   0  0  0  0  0  0  0  0  0  0  0  0
   -6.5616    3.0820   -0.6200 N   0  0  0  0  0  0  0  0  0  0  0  0
   -5.7752    3.8491   -1.3881 C   0  0  0  0  0  0  0  0  0  0  0  0
   -4.7068    3.1362   -1.8637 C   0  0  0  0  0  0  0  0  0  0  0  0
   -4.8469    1.8595   -1.3591 C   0  0  0  0  0  0  0  0  0  0  0  0
   -4.1375    0.6992   -1.4539 C   0  0  0  0  0  0  0  0  0  0  0  0
   -4.5364   -0.4417   -0.8216 C   0  0  0  0  0  0  0  0  0  0  0  0
   -3.8520   -1.6327   -0.8890 O   0  0  0  0  0  0  0  0  0  0  0  0
   -2.7186   -1.7868   -1.6226 C   0  0  0  0  0  0  0  0  0  0  0  0
   -2.8453   -2.2912   -2.9063 C   0  0  0  0  0  0  0  0  0  0  0  0
   -1.6994   -2.4498   -3.6442 C   0  0  0  0  0  0  0  0  0  0  0  0
   -0.5151   -2.1421   -3.1741 N   0  0  0  0  0  0  0  0  0  0  0  0
   -0.3218   -1.6486   -1.9413 C   0  0  0  0  0  0  0  0  0  0  0  0
    0.9881   -1.3466   -1.5152 N   0  0  0  0  0  0  0  0  0  0  0  0
    1.4361   -0.8092   -0.3049 C   0  0  0  0  0  0  0  0  0  0  0  0
    0.6975   -0.4885    0.6247 O   0  0  0  0  0  0  0  0  0  0  0  0
    2.8873   -0.5992   -0.0923 C   0  0  0  0  0  0  0  0  0  0  0  0
    3.6620   -0.1733   -1.1234 C   0  0  0  0  0  0  0  0  0  0  0  0
    5.0250    0.0091   -0.9232 C   0  0  0  0  0  0  0  0  0  0  0  0
    5.6458   -0.2195    0.2798 C   0  0  0  0  0  0  0  0  0  0  0  0
    4.8280   -0.6561    1.3194 C   0  0  0  0  0  0  0  0  0  0  0  0
    3.4704   -0.8415    1.1298 C   0  0  0  0  0  0  0  0  0  0  0  0
    7.0738    0.0068    0.4169 C   0  0  0  0  0  0  0  0  0  0  0  0
    7.8839   -1.2990    0.3111 C   0  0  0  0  0  0  0  0  0  0  0  0
    9.3557   -0.9527    0.2098 C   0  0  0  0  0  0  0  0  0  0  0  0
    9.5010    0.4401    0.4424 N   0  0  0  0  0  0  0  0  0  0  0  0
    8.9936    0.9036    1.6804 C   0  0  0  0  0  0  0  0  0  0  0  0
    7.4789    0.7488    1.6687 C   0  0  0  0  0  0  0  0  0  0  0  0
   10.6024    1.1023   -0.1329 C   0  0  0  0  0  0  0  0  0  0  0  0
   10.4609    0.9894   -1.6566 C   0  0  0  0  0  0  0  0  0  0  0  0
   10.5133    2.5818    0.1765 C   0  0  0  0  0  0  0  0  0  0  0  0
   -1.4309   -1.4696   -1.1585 C   0  0  0  0  0  0  0  0  0  0  0  0
   -5.7153   -0.4767   -0.0305 C   0  0  0  0  0  0  0  0  0  0  0  0
   -6.0821   -1.5614    0.5576 O   0  0  0  0  0  0  0  0  0  0  0  0
   -6.4498   -2.6322    1.1419 C   0  0  0  0  0  0  0  0  0  0  0  0
   -7.8481   -3.1123    0.7174 C   0  0  0  0  0  0  0  0  0  0  0  0
   -8.1750   -4.3833    1.4386 C   0  0  0  0  0  0  0  0  0  0  0  0
   -8.1367   -4.1943    2.8002 O   0  0  0  0  0  0  0  0  0  0  0  0
   -9.0266   -3.2518    3.2280 C   0  0  0  0  0  0  0  0  0  0  0  0
   -6.4320    0.7380    0.0520 C   0  0  0  0  0  0  0  0  0  0  0  0
   -6.0132    1.8514   -0.5842 C   0  0  0  0  0  0  0  0  0  0  0  0
  -10.1097    4.5113    0.5930 H   0  0  0  0  0  0  0  0  0  0  0  0
   -9.8275    6.1860   -0.1167 H   0  0  0  0  0  0  0  0  0  0  0  0
   -9.1460    5.7274    1.4913 H   0  0  0  0  0  0  0  0  0  0  0  0
   -7.6246    5.5796   -0.7432 H   0  0  0  0  0  0  0  0  0  0  0  0
   -5.9394    4.9103   -1.6260 H   0  0  0  0  0  0  0  0  0  0  0  0
   -3.8972    3.4468   -2.4990 H   0  0  0  0  0  0  0  0  0  0  0  0
   -3.2332    0.7312   -2.0584 H   0  0  0  0  0  0  0  0  0  0  0  0
   -3.8371   -2.5534   -3.3076 H   0  0  0  0  0  0  0  0  0  0  0  0
   -1.8499   -2.8605   -4.6629 H   0  0  0  0  0  0  0  0  0  0  0  0
    1.7610   -1.5834   -2.2511 H   0  0  0  0  0  0  0  0  0  0  0  0
    3.1981    0.0155   -2.0830 H   0  0  0  0  0  0  0  0  0  0  0  0
    5.5849    0.3501   -1.7960 H   0  0  0  0  0  0  0  0  0  0  0  0
    5.3227   -0.8374    2.2620 H   0  0  0  0  0  0  0  0  0  0  0  0
    2.8627   -1.1815    1.9480 H   0  0  0  0  0  0  0  0  0  0  0  0
    7.4482    0.6092   -0.4495 H   0  0  0  0  0  0  0  0  0  0  0  0
    7.6446   -1.9804    1.1239 H   0  0  0  0  0  0  0  0  0  0  0  0
    7.5891   -1.7522   -0.6614 H   0  0  0  0  0  0  0  0  0  0  0  0
    9.7954   -1.2234   -0.7558 H   0  0  0  0  0  0  0  0  0  0  0  0
    9.8773   -1.5800    0.9799 H   0  0  0  0  0  0  0  0  0  0  0  0
    9.3648    0.2826    2.5451 H   0  0  0  0  0  0  0  0  0  0  0  0
    9.3045    1.9276    1.8784 H   0  0  0  0  0  0  0  0  0  0  0  0
    7.0575    1.7771    1.5911 H   0  0  0  0  0  0  0  0  0  0  0  0
    7.0918    0.2860    2.5937 H   0  0  0  0  0  0  0  0  0  0  0  0
   11.5963    0.7458    0.2035 H   0  0  0  0  0  0  0  0  0  0  0  0
   11.2434    0.3192   -2.0924 H   0  0  0  0  0  0  0  0  0  0  0  0
    9.4866    0.5102   -1.9386 H   0  0  0  0  0  0  0  0  0  0  0  0
   10.4794    1.9636   -2.1559 H   0  0  0  0  0  0  0  0  0  0  0  0
   11.1219    3.0978   -0.6089 H   0  0  0  0  0  0  0  0  0  0  0  0
   11.0128    2.8441    1.1371 H   0  0  0  0  0  0  0  0  0  0  0  0
    9.4759    2.9640    0.1199 H   0  0  0  0  0  0  0  0  0  0  0  0
   -1.3756   -1.0779   -0.1535 H   0  0  0  0  0  0  0  0  0  0  0  0
   -6.4543   -2.5312    2.2794 H   0  0  0  0  0  0  0  0  0  0  0  0
   -5.7606   -3.5451    1.0127 H   0  0  0  0  0  0  0  0  0  0  0  0
   -7.7541   -3.3535   -0.3664 H   0  0  0  0  0  0  0  0  0  0  0  0
   -8.6247   -2.3586    0.9091 H   0  0  0  0  0  0  0  0  0  0  0  0
   -7.4418   -5.1539    1.1070 H   0  0  0  0  0  0  0  0  0  0  0  0
   -9.1924   -4.7611    1.1539 H   0  0  0  0  0  0  0  0  0  0  0  0
  -10.0971   -3.4785    2.9768 H   0  0  0  0  0  0  0  0  0  0  0  0
   -8.8204   -2.2284    2.8916 H   0  0  0  0  0  0  0  0  0  0  0  0
   -8.9138   -3.2056    4.3503 H   0  0  0  0  0  0  0  0  0  0  0  0
   -7.3425    0.6870    0.6730 H   0  0  0  0  0  0  0  0  0  0  0  0
  1  2  1  0
  2  3  1  0
  3  4  2  0
  3  5  1  0
  5  6  1  0
  6  7  2  0
  7  8  1  0
  8  9  2  0
  9 10  1  0
 10 11  1  0
 11 12  1  0
 12 13  2  0
 13 14  1  0
 14 15  2  0
 15 16  1  0
 16 17  1  0
 17 18  1  0
 18 19  2  0
 18 20  1  0
 20 21  2  0
 21 22  1  0
 22 23  2  0
 23 24  1  0
 24 25  2  0
 23 26  1  0
 26 27  1  0
 27 28  1  0
 28 29  1  0
 29 30  1  0
 30 31  1  0
 29 32  1  0
 32 33  1  0
 32 34  1  0
 16 35  2  0
 10 36  2  0
 36 37  1  0
 37 38  1  0
 38 39  1  0
 39 40  1  0
 40 41  1  0
 41 42  1  0
 36 43  1  0
 43 44  2  0
 44  5  1  0
 44  8  1  0
 35 12  1  0
 25 20  1  0
 31 26  1  0
  1 45  1  0
  1 46  1  0
  1 47  1  0
  2 48  1  0
  6 49  1  0
  7 50  1  0
  9 51  1  0
 13 52  1  0
 14 53  1  0
 17 54  1  0
 21 55  1  0
 22 56  1  0
 24 57  1  0
 25 58  1  0
 26 59  1  0
 27 60  1  0
 27 61  1  0
 28 62  1  0
 28 63  1  0
 30 64  1  0
 30 65  1  0
 31 66  1  0
 31 67  1  0
 32 68  1  0
 33 69  1  0
 33 70  1  0
 33 71  1  0
 34 72  1  0
 34 73  1  0
 34 74  1  0
 35 75  1  0
 38 76  1  0
 38 77  1  0
 39 78  1  0
 39 79  1  0
 40 80  1  0
 40 81  1  0
 42 82  1  0
 42 83  1  0
 42 84  1  0
 43 85  1  0
M  END
$$$$
[H]c1c([H])c(N2C([H])([H])C([H])([H])C([H])([H])C([H])([H])C2([H])[H])c([H])c([H])c1N([H])C(=O)N1C([H])([H])C([H])([H])N(c2c([H])c([H])c([N+](=O)[O-])c([H])c2[H])C([H])([H])C1([H])[H]
     RDKit          3D

 57 60  0  0  0  0  0  0  0  0999 V2000
   11.0444   -1.4559    0.0341 O   0  0  0  0  0  0  0  0  0  0  0  0
   10.2239   -0.5517   -0.5928 N   0  0  0  0  0  0  0  0  0  0  0  0
   10.7228    0.2308   -1.4043 O   0  0  0  0  0  0  0  0  0  0  0  0
    8.8238   -0.4847   -0.3412 C   0  0  0  0  0  0  0  0  0  0  0  0
    8.2054   -1.3308    0.5541 C   0  0  0  0  0  0  0  0  0  0  0  0
    6.8296   -1.2574    0.7952 C   0  0  0  0  0  0  0  0  0  0  0  0
    6.0373   -0.3348    0.1462 C   0  0  0  0  0  0  0  0  0  0  0  0
    6.6762    0.5078   -0.7506 C   0  0  0  0  0  0  0  0  0  0  0  0
    8.0324    0.4373   -0.9900 C   0  0  0  0  0  0  0  0  0  0  0  0
    4.6210   -0.2268    0.3743 N   0  0  0  0  0  0  0  0  0  0  0  0
    3.8945    0.6862   -0.4772 C   0  0  0  0  0  0  0  0  0  0  0  0
    2.4020    0.4906   -0.4392 C   0  0  0  0  0  0  0  0  0  0  0  0
    1.9434    0.0551    0.8607 N   0  0  0  0  0  0  0  0  0  0  0  0
    2.8165   -0.2564    1.9410 C   0  0  0  0  0  0  0  0  0  0  0  0
    4.0109   -1.0043    1.4069 C   0  0  0  0  0  0  0  0  0  0  0  0
    0.5176   -0.0617    1.0520 C   0  0  0  0  0  0  0  0  0  0  0  0
    0.1471   -0.4390    2.1782 O   0  0  0  0  0  0  0  0  0  0  0  0
   -0.3405    0.2475   -0.0100 N   0  0  0  0  0  0  0  0  0  0  0  0
   -1.7353    0.1601    0.0707 C   0  0  0  0  0  0  0  0  0  0  0  0
   -2.4155   -0.5761    0.9864 C   0  0  0  0  0  0  0  0  0  0  0  0
   -3.8062   -0.5511    0.9716 C   0  0  0  0  0  0  0  0  0  0  0  0
   -4.5265    0.1922    0.0622 C   0  0  0  0  0  0  0  0  0  0  0  0
   -3.8083    0.9294   -0.8563 C   0  0  0  0  0  0  0  0  0  0  0  0
   -2.4539    0.9212   -0.8612 C   0  0  0  0  0  0  0  0  0  0  0  0
   -5.9403    0.2392    0.0097 N   0  0  0  0  0  0  0  0  0  0  0  0
   -6.7266   -0.6318    0.8244 C   0  0  0  0  0  0  0  0  0  0  0  0
   -8.0248   -0.9891    0.1275 C   0  0  0  0  0  0  0  0  0  0  0  0
   -8.8008    0.2354   -0.2279 C   0  0  0  0  0  0  0  0  0  0  0  0
   -7.9697    1.4853   -0.2243 C   0  0  0  0  0  0  0  0  0  0  0  0
   -6.6087    1.1733   -0.8624 C   0  0  0  0  0  0  0  0  0  0  0  0
    8.8009   -2.0606    1.0746 H   0  0  0  0  0  0  0  0  0  0  0  0
    6.3574   -1.9347    1.5030 H   0  0  0  0  0  0  0  0  0  0  0  0
    6.0622    1.2459   -1.2729 H   0  0  0  0  0  0  0  0  0  0  0  0
    8.5163    1.1060   -1.6966 H   0  0  0  0  0  0  0  0  0  0  0  0
    4.1974    0.4862   -1.5383 H   0  0  0  0  0  0  0  0  0  0  0  0
    4.1678    1.7385   -0.2728 H   0  0  0  0  0  0  0  0  0  0  0  0
    1.8989    1.4535   -0.6644 H   0  0  0  0  0  0  0  0  0  0  0  0
    2.0474   -0.2374   -1.1985 H   0  0  0  0  0  0  0  0  0  0  0  0
    3.1774    0.6761    2.4231 H   0  0  0  0  0  0  0  0  0  0  0  0
    2.3427   -0.8897    2.7048 H   0  0  0  0  0  0  0  0  0  0  0  0
    3.7431   -2.0367    1.0968 H   0  0  0  0  0  0  0  0  0  0  0  0
    4.6930   -1.1389    2.2931 H   0  0  0  0  0  0  0  0  0  0  0  0
    0.0851    0.5650   -0.9479 H   0  0  0  0  0  0  0  0  0  0  0  0
   -1.9526   -1.1894    1.7156 H   0  0  0  0  0  0  0  0  0  0  0  0
   -4.3520   -1.1294    1.6954 H   0  0  0  0  0  0  0  0  0  0  0  0
   -4.3101    1.5372   -1.6043 H   0  0  0  0  0  0  0  0  0  0  0  0
   -1.9173    1.5243   -1.6106 H   0  0  0  0  0  0  0  0  0  0  0  0
   -6.1634   -1.6013    0.9492 H   0  0  0  0  0  0  0  0  0  0  0  0
   -6.9308   -0.1834    1.7973 H   0  0  0  0  0  0  0  0  0  0  0  0
   -7.8007   -1.6177   -0.7522 H   0  0  0  0  0  0  0  0  0  0  0  0
   -8.6282   -1.6290    0.8164 H   0  0  0  0  0  0  0  0  0  0  0  0
   -9.1661    0.0940   -1.2861 H   0  0  0  0  0  0  0  0  0  0  0  0
   -9.6468    0.3591    0.4717 H   0  0  0  0  0  0  0  0  0  0  0  0
   -8.4426    2.3269   -0.7373 H   0  0  0  0  0  0  0  0  0  0  0  0
   -7.7495    1.7246    0.8416 H   0  0  0  0  0  0  0  0  0  0  0  0
   -6.0946    2.1656   -0.9010 H   0  0  0  0  0  0  0  0  0  0  0  0
   -6.7263    0.8057   -1.8877 H   0  0  0  0  0  0  0  0  0  0  0  0
  1  2  1  0
  2  3  2  0
  2  4  1  0
  4  5  2  0
  5  6  1  0
  6  7  2  0
  7  8  1  0
  8  9  2  0
  7 10  1  0
 10 11  1  0
 11 12  1  0
 12 13  1  0
 13 14  1  0
 14 15  1  0
 13 16  1  0
 16 17  2  0
 16 18  1  0
 18 19  1  0
 19 20  2  0
 20 21  1  0
 21 22  2  0
 22 23  1  0
 23 24  2  0
 22 25  1  0
 25 26  1  0
 26 27  1  0
 27 28  1  0
 28 29  1  0
 29 30  1  0
  9  4  1  0
 15 10  1  0
 24 19  1  0
 30 25  1  0
  5 31  1  0
  6 32  1  0
  8 33  1  0
  9 34  1  0
 11 35  1  0
 11 36  1  0
 12 37  1  0
 12 38  1  0
 14 39  1  0
 14 40  1  0
 15 41  1  0
 15 42  1  0
 18 43  1  0
 20 44  1  0
 21 45  1  0
 23 46  1  0
 24 47  1  0
 26 48  1  0
 26 49  1  0
 27 50  1  0
 27 51  1  0
 28 52  1  0
 28 53  1  0
 29 54  1  0
 29 55  1  0
 30 56  1  0
 30 57  1  0
M  CHG  2   1  -1   2   1
M  END
$$$$
[H]C([H])=C([H])C(=O)N([H])c1c([H])c([H])c(Sc2nc(N([H])c3c([H])c(C([H])([H])[H])nn3[H])c([H])c(N3C([H])([H])C([H])([H])N(C([H])([H])[H])C([H])([H])C3([H])[H])n2)c([H])c1[H]
     RDKit          3D

 58 61  0  0  0  0  0  0  0  0999 V2000
   -6.3905   -3.1821    1.0991 C   0  0  0  0  0  0  0  0  0  0  0  0
   -6.1354   -2.4256   -0.1021 N   0  0  0  0  0  0  0  0  0  0  0  0
   -5.4891   -3.1438   -1.1299 C   0  0  0  0  0  0  0  0  0  0  0  0
   -4.0135   -2.8809   -1.2678 C   0  0  0  0  0  0  0  0  0  0  0  0
   -3.7093   -1.4677   -0.9853 N   0  0  0  0  0  0  0  0  0  0  0  0
   -4.8545   -0.6206   -0.9988 C   0  0  0  0  0  0  0  0  0  0  0  0
   -5.7656   -1.0782    0.1198 C   0  0  0  0  0  0  0  0  0  0  0  0
   -2.3768   -1.0994   -0.7374 C   0  0  0  0  0  0  0  0  0  0  0  0
   -2.0020    0.2118   -0.4531 C   0  0  0  0  0  0  0  0  0  0  0  0
   -0.7227    0.6005   -0.2077 C   0  0  0  0  0  0  0  0  0  0  0  0
   -0.2406    1.8853    0.0868 N   0  0  0  0  0  0  0  0  0  0  0  0
   -0.8949    3.1026    0.2168 C   0  0  0  0  0  0  0  0  0  0  0  0
   -0.2129    4.3018    0.5225 C   0  0  0  0  0  0  0  0  0  0  0  0
   -1.0935    5.3471    0.5927 C   0  0  0  0  0  0  0  0  0  0  0  0
   -0.7254    6.7614    0.8949 C   0  0  0  0  0  0  0  0  0  0  0  0
   -2.2905    4.8250    0.3398 N   0  0  0  0  0  0  0  0  0  0  0  0
   -2.1700    3.5079    0.1197 N   0  0  0  0  0  0  0  0  0  0  0  0
    0.2009   -0.4205   -0.2613 N   0  0  0  0  0  0  0  0  0  0  0  0
   -0.1120   -1.6806   -0.5280 C   0  0  0  0  0  0  0  0  0  0  0  0
    1.1634   -2.9583   -0.5764 S   0  0  0  0  0  0  0  0  0  0  0  0
    2.7196   -2.1892   -0.2163 C   0  0  0  0  0  0  0  0  0  0  0  0
    3.5451   -1.6573   -1.1755 C   0  0  0  0  0  0  0  0  0  0  0  0
    4.7699   -1.0584   -0.8488 C   0  0  0  0  0  0  0  0  0  0  0  0
    5.2170   -0.9681    0.4442 C   0  0  0  0  0  0  0  0  0  0  0  0
    6.4391   -0.4065    0.8640 N   0  0  0  0  0  0  0  0  0  0  0  0
    7.5233   -0.1425    0.0345 C   0  0  0  0  0  0  0  0  0  0  0  0
    7.5759   -0.3709   -1.2150 O   0  0  0  0  0  0  0  0  0  0  0  0
    8.7329    0.4627    0.6676 C   0  0  0  0  0  0  0  0  0  0  0  0
    9.7958    0.7376   -0.0629 C   0  0  0  0  0  0  0  0  0  0  0  0
    4.3504   -1.5218    1.4118 C   0  0  0  0  0  0  0  0  0  0  0  0
    3.1600   -2.1022    1.0821 C   0  0  0  0  0  0  0  0  0  0  0  0
   -1.4039   -2.0099   -0.7647 N   0  0  0  0  0  0  0  0  0  0  0  0
   -7.4132   -2.9605    1.4528 H   0  0  0  0  0  0  0  0  0  0  0  0
   -6.3532   -4.2538    0.8401 H   0  0  0  0  0  0  0  0  0  0  0  0
   -5.6811   -2.9358    1.9167 H   0  0  0  0  0  0  0  0  0  0  0  0
   -5.9961   -2.9327   -2.0934 H   0  0  0  0  0  0  0  0  0  0  0  0
   -5.5957   -4.2412   -0.9435 H   0  0  0  0  0  0  0  0  0  0  0  0
   -3.3747   -3.5613   -0.6987 H   0  0  0  0  0  0  0  0  0  0  0  0
   -3.7584   -3.0138   -2.3484 H   0  0  0  0  0  0  0  0  0  0  0  0
   -4.6668    0.4555   -0.9839 H   0  0  0  0  0  0  0  0  0  0  0  0
   -5.4206   -0.8645   -1.9473 H   0  0  0  0  0  0  0  0  0  0  0  0
   -5.2598   -0.9155    1.1119 H   0  0  0  0  0  0  0  0  0  0  0  0
   -6.6856   -0.4506    0.0944 H   0  0  0  0  0  0  0  0  0  0  0  0
   -2.7731    0.9232   -0.4335 H   0  0  0  0  0  0  0  0  0  0  0  0
    0.8315    1.9339    0.2390 H   0  0  0  0  0  0  0  0  0  0  0  0
    0.8367    4.3911    0.6780 H   0  0  0  0  0  0  0  0  0  0  0  0
   -1.4471    7.4503    0.4312 H   0  0  0  0  0  0  0  0  0  0  0  0
   -0.6831    6.8645    2.0070 H   0  0  0  0  0  0  0  0  0  0  0  0
    0.3066    6.9274    0.4893 H   0  0  0  0  0  0  0  0  0  0  0  0
   -3.0117    2.9380   -0.0943 H   0  0  0  0  0  0  0  0  0  0  0  0
    3.2470   -1.6997   -2.2086 H   0  0  0  0  0  0  0  0  0  0  0  0
    5.3757   -0.6403   -1.6561 H   0  0  0  0  0  0  0  0  0  0  0  0
    6.5141   -0.1709    1.8966 H   0  0  0  0  0  0  0  0  0  0  0  0
    8.7198    0.6662    1.7134 H   0  0  0  0  0  0  0  0  0  0  0  0
   10.6839    1.1751    0.3676 H   0  0  0  0  0  0  0  0  0  0  0  0
    9.7974    0.5300   -1.1061 H   0  0  0  0  0  0  0  0  0  0  0  0
    4.6979   -1.4566    2.4559 H   0  0  0  0  0  0  0  0  0  0  0  0
    2.5195   -2.5172    1.8544 H   0  0  0  0  0  0  0  0  0  0  0  0
  1  2  1  0
  2  3  1  0
  3  4  1  0
  4  5  1  0
  5  6  1  0
  6  7  1  0
  5  8  1  0
  8  9  2  0
  9 10  1  0
 10 11  1  0
 11 12  1  0
 12 13  2  0
 13 14  1  0
 14 15  1  0
 14 16  2  0
 16 17  1  0
 10 18  2  0
 18 19  1  0
 19 20  1  0
 20 21  1  0
 21 22  2  0
 22 23  1  0
 23 24  2  0
 24 25  1  0
 25 26  1  0
 26 27  2  0
 26 28  1  0
 28 29  2  3
 24 30  1  0
 30 31  2  0
 19 32  2  0
  7  2  1  0
 32  8  1  0
 17 12  1  0
 31 21  1  0
  1 33  1  0
  1 34  1  0
  1 35  1  0
  3 36  1  0
  3 37  1  0
  4 38  1  0
  4 39  1  0
  6 40  1  0
  6 41  1  0
  7 42  1  0
  7 43  1  0
  9 44  1  0
 11 45  1  0
 13 46  1  0
 15 47  1  0
 15 48  1  0
 15 49  1  0
 17 50  1  0
 22 51  1  0
 23 52  1  0
 25 53  1  0
 28 54  1  0
 29 55  1  0
 29 56  1  0
 30 57  1  0
 31 58  1  0
M  END
$$$$
[H]c1c([H])c(C([H])([H])N([H])C(=O)c2nc(-c3c([H])c([H])c(OC([H])([H])[H])c4nc(C(F)(F)F)c([H])c([H])c34)oc2C([H])([H])N([H])[H])c(F)c([H])c1F
     RDKit          3D

 52 55  0  0  0  0  0  0  0  0999 V2000
   -7.5672   -1.8917   -1.6289 C   0  0  0  0  0  0  0  0  0  0  0  0
   -6.8017   -0.8555   -1.1161 O   0  0  0  0  0  0  0  0  0  0  0  0
   -5.4543   -0.9377   -0.8834 C   0  0  0  0  0  0  0  0  0  0  0  0
   -4.6781   -2.0608   -1.0862 C   0  0  0  0  0  0  0  0  0  0  0  0
   -3.3214   -1.9781   -0.8177 C   0  0  0  0  0  0  0  0  0  0  0  0
   -2.6785   -0.8555   -0.3624 C   0  0  0  0  0  0  0  0  0  0  0  0
   -1.2226   -0.8551   -0.2191 C   0  0  0  0  0  0  0  0  0  0  0  0
   -0.3476    0.1503   -0.2811 N   0  0  0  0  0  0  0  0  0  0  0  0
    0.8959   -0.2474   -0.1304 C   0  0  0  0  0  0  0  0  0  0  0  0
    2.1375    0.4397   -0.3941 C   0  0  0  0  0  0  0  0  0  0  0  0
    2.0466    1.3152   -1.4055 O   0  0  0  0  0  0  0  0  0  0  0  0
    3.3897    0.3656    0.1668 N   0  0  0  0  0  0  0  0  0  0  0  0
    4.4386    1.1429   -0.4529 C   0  0  0  0  0  0  0  0  0  0  0  0
    5.7860    0.9835    0.0651 C   0  0  0  0  0  0  0  0  0  0  0  0
    6.1031    0.2579    1.1604 C   0  0  0  0  0  0  0  0  0  0  0  0
    7.4284    0.1481    1.6156 C   0  0  0  0  0  0  0  0  0  0  0  0
    8.4671    0.8057    0.9172 C   0  0  0  0  0  0  0  0  0  0  0  0
    9.7599    0.6915    1.3456 F   0  0  0  0  0  0  0  0  0  0  0  0
    8.1022    1.5333   -0.1846 C   0  0  0  0  0  0  0  0  0  0  0  0
    6.8203    1.6326   -0.6137 C   0  0  0  0  0  0  0  0  0  0  0  0
    6.4612    2.3537   -1.7121 F   0  0  0  0  0  0  0  0  0  0  0  0
    0.7911   -1.6427    0.0592 C   0  0  0  0  0  0  0  0  0  0  0  0
    2.0128   -2.4538    0.2820 C   0  0  0  0  0  0  0  0  0  0  0  0
    1.6574   -3.8757    0.2157 N   0  0  0  0  0  0  0  0  0  0  0  0
   -0.4651   -1.9484   -0.0036 O   0  0  0  0  0  0  0  0  0  0  0  0
   -3.4511    0.2605   -0.1517 C   0  0  0  0  0  0  0  0  0  0  0  0
   -2.9130    1.4136    0.3621 C   0  0  0  0  0  0  0  0  0  0  0  0
   -3.6999    2.5448    0.6286 C   0  0  0  0  0  0  0  0  0  0  0  0
   -5.0522    2.4358    0.3457 C   0  0  0  0  0  0  0  0  0  0  0  0
   -5.5640    1.3080   -0.1496 N   0  0  0  0  0  0  0  0  0  0  0  0
   -4.8542    0.2092   -0.4143 C   0  0  0  0  0  0  0  0  0  0  0  0
   -5.8979    3.6325    0.6258 C   0  0  0  0  0  0  0  0  0  0  0  0
   -5.1140    4.7252    0.8997 F   0  0  0  0  0  0  0  0  0  0  0  0
   -6.6805    3.8878   -0.4445 F   0  0  0  0  0  0  0  0  0  0  0  0
   -6.6898    3.4067    1.7477 F   0  0  0  0  0  0  0  0  0  0  0  0
   -6.9621   -2.7984   -1.7980 H   0  0  0  0  0  0  0  0  0  0  0  0
   -8.3955   -2.1558   -0.9593 H   0  0  0  0  0  0  0  0  0  0  0  0
   -8.0041   -1.5997   -2.6465 H   0  0  0  0  0  0  0  0  0  0  0  0
   -5.1351   -2.9648   -1.4346 H   0  0  0  0  0  0  0  0  0  0  0  0
   -2.7508   -2.8897   -0.9833 H   0  0  0  0  0  0  0  0  0  0  0  0
    3.5711   -0.2070    1.0159 H   0  0  0  0  0  0  0  0  0  0  0  0
    4.4292    0.8935   -1.5787 H   0  0  0  0  0  0  0  0  0  0  0  0
    4.0755    2.2135   -0.4284 H   0  0  0  0  0  0  0  0  0  0  0  0
    5.3401   -0.2544    1.7648 H   0  0  0  0  0  0  0  0  0  0  0  0
    7.6632   -0.4223    2.4860 H   0  0  0  0  0  0  0  0  0  0  0  0
    8.8934    2.0256   -0.7288 H   0  0  0  0  0  0  0  0  0  0  0  0
    2.8879   -2.1512   -0.2484 H   0  0  0  0  0  0  0  0  0  0  0  0
    2.2698   -2.3541    1.4282 H   0  0  0  0  0  0  0  0  0  0  0  0
    2.4945   -4.3811   -0.2473 H   0  0  0  0  0  0  0  0  0  0  0  0
    0.8758   -3.9137   -0.5163 H   0  0  0  0  0  0  0  0  0  0  0  0
   -1.8713    1.4981    0.5872 H   0  0  0  0  0  0  0  0  0  0  0  0
   -3.2262    3.4196    1.0069 H   0  0  0  0  0  0  0  0  0  0  0  0
  1  2  1  0
  2  3  1  0
  3  4  2  0
  4  5  1  0
  5  6  2  0
  6  7  1  0
  7  8  2  0
  8  9  1  0
  9 10  1  0
 10 11  2  0
 10 12  1  0
 12 13  1  0
 13 14  1  0
 14 15  2  0
 15 16  1  0
 16 17  2  0
 17 18  1  0
 17 19  1  0
 19 20  2  0
 20 21  1  0
  9 22  2  0
 22 23  1  0
 23 24  1  0
 22 25  1  0
  6 26  1  0
 26 27  2  0
 27 28  1  0
 28 29  2  0
 29 30  1  0
 30 31  2  0
 29 32  1  0
 32 33  1  0
 32 34  1  0
 32 35  1  0
 31  3  1  0
 25  7  1  0
 31 26  1  0
 20 14  1  0
  1 36  1  0
  1 37  1  0
  1 38  1  0
  4 39  1  0
  5 40  1  0
 12 41  1  0
 13 42  1  0
 13 43  1  0
 15 44  1  0
 16 45  1  0
 19 46  1  0
 23 47  1  0
 23 48  1  0
 24 49  1  0
 24 50  1  0
 27 51  1  0
 28 52  1  0
M  END
$$$$
[H]O[C@@]1([H])[C@]([H])(O[H])[C@@]([H])(C([H])([H])OS(=O)(=O)N([H])C(=O)[C@@]([H])(N([H])[H])C([H])(C([H])([H])[H])C([H])([H])[H])O[C@@]1([H])n1c([H])nc2c(N([H])[H])nc([H])nc21
     RDKit          3D

 53 55  0  0  0  0  0  0  0  0999 V2000
   -6.8012   -1.1884   -0.4242 C   0  0  0  0  0  0  0  0  0  0  0  0
   -5.4378   -0.5460   -0.2197 C   0  0  0  0  0  0  0  0  0  0  0  0
   -4.5008   -1.4501    0.5082 C   0  0  0  0  0  0  0  0  0  0  0  0
   -5.6164    0.7860    0.4927 C   0  0  2  0  0  0  0  0  0  0  0  0
   -6.4856    1.5689   -0.4109 N   0  0  0  0  0  0  0  0  0  0  0  0
   -4.3158    1.4741    0.5770 C   0  0  0  0  0  0  0  0  0  0  0  0
   -4.0937    2.4418   -0.1961 O   0  0  0  0  0  0  0  0  0  0  0  0
   -3.2676    1.1442    1.4677 N   0  0  0  0  0  0  0  0  0  0  0  0
   -1.7747    1.9920    1.5152 S   0  0  0  0  0  0  0  0  0  0  0  0
   -1.5965    2.5357    2.8991 O   0  0  0  0  0  0  0  0  0  0  0  0
   -1.9340    3.1978    0.5994 O   0  0  0  0  0  0  0  0  0  0  0  0
   -0.4708    1.1281    0.9857 O   0  0  0  0  0  0  0  0  0  0  0  0
   -0.5914    0.6363   -0.2844 C   0  0  0  0  0  0  0  0  0  0  0  0
    0.6149   -0.1418   -0.7435 C   0  0  1  0  0  0  0  0  0  0  0  0
    1.7677    0.6481   -0.7493 O   0  0  0  0  0  0  0  0  0  0  0  0
    2.7529   -0.3643   -0.8300 C   0  0  2  0  0  0  0  0  0  0  0  0
    2.4083   -1.1378    0.4047 C   0  0  1  0  0  0  0  0  0  0  0  0
    2.4749   -0.3231    1.5543 O   0  0  0  0  0  0  0  0  0  0  0  0
    0.9020   -1.3284    0.1510 C   0  0  2  0  0  0  0  0  0  0  0  0
    0.7291   -2.5051   -0.6053 O   0  0  0  0  0  0  0  0  0  0  0  0
    4.0707    0.1227   -0.9298 N   0  0  0  0  0  0  0  0  0  0  0  0
    4.4552    1.1326   -1.7288 C   0  0  0  0  0  0  0  0  0  0  0  0
    5.7945    1.3383   -1.5744 N   0  0  0  0  0  0  0  0  0  0  0  0
    6.2257    0.4547   -0.6823 C   0  0  0  0  0  0  0  0  0  0  0  0
    7.4718    0.2088   -0.1508 C   0  0  0  0  0  0  0  0  0  0  0  0
    8.5876    0.9820   -0.5575 N   0  0  0  0  0  0  0  0  0  0  0  0
    7.6155   -0.7628    0.7472 N   0  0  0  0  0  0  0  0  0  0  0  0
    6.5865   -1.5131    1.1536 C   0  0  0  0  0  0  0  0  0  0  0  0
    5.3723   -1.2742    0.6359 N   0  0  0  0  0  0  0  0  0  0  0  0
    5.1504   -0.3225   -0.2635 C   0  0  0  0  0  0  0  0  0  0  0  0
   -6.6863   -2.1058   -1.0047 H   0  0  0  0  0  0  0  0  0  0  0  0
   -7.3359   -1.3062    0.5294 H   0  0  0  0  0  0  0  0  0  0  0  0
   -7.3825   -0.4667   -1.0570 H   0  0  0  0  0  0  0  0  0  0  0  0
   -5.0278   -0.3259   -1.2226 H   0  0  0  0  0  0  0  0  0  0  0  0
   -3.4436   -1.1875    0.3240 H   0  0  0  0  0  0  0  0  0  0  0  0
   -4.7195   -1.5419    1.5860 H   0  0  0  0  0  0  0  0  0  0  0  0
   -4.5845   -2.5128    0.1189 H   0  0  0  0  0  0  0  0  0  0  0  0
   -6.1075    0.6101    1.4555 H   0  0  0  0  0  0  0  0  0  0  0  0
   -7.4575    1.5890   -0.0722 H   0  0  0  0  0  0  0  0  0  0  0  0
   -6.1260    2.5295   -0.4314 H   0  0  0  0  0  0  0  0  0  0  0  0
   -3.4097    0.3595    2.1290 H   0  0  0  0  0  0  0  0  0  0  0  0
   -0.6579    1.5267   -0.9724 H   0  0  0  0  0  0  0  0  0  0  0  0
   -1.4774   -0.0130   -0.3421 H   0  0  0  0  0  0  0  0  0  0  0  0
    0.4503   -0.4767   -1.7867 H   0  0  0  0  0  0  0  0  0  0  0  0
    2.4320   -1.0002   -1.6977 H   0  0  0  0  0  0  0  0  0  0  0  0
    2.9147   -2.0938    0.5250 H   0  0  0  0  0  0  0  0  0  0  0  0
    2.7237   -0.8458    2.3534 H   0  0  0  0  0  0  0  0  0  0  0  0
    0.3172   -1.3553    1.0645 H   0  0  0  0  0  0  0  0  0  0  0  0
    0.7959   -2.3261   -1.5643 H   0  0  0  0  0  0  0  0  0  0  0  0
    3.8772    1.7395   -2.4127 H   0  0  0  0  0  0  0  0  0  0  0  0
    9.5244    0.8872   -0.1089 H   0  0  0  0  0  0  0  0  0  0  0  0
    8.5391    1.6876   -1.3266 H   0  0  0  0  0  0  0  0  0  0  0  0
    6.7480   -2.3059    1.8983 H   0  0  0  0  0  0  0  0  0  0  0  0
  1  2  1  0
  2  3  1  0
  2  4  1  0
  4  5  1  0
  4  6  1  0
  6  7  2  0
  6  8  1  0
  8  9  1  0
  9 10  2  0
  9 11  2  0
  9 12  1  0
 12 13  1  0
 13 14  1  0
 14 15  1  0
 15 16  1  0
 16 17  1  0
 17 18  1  0
 17 19  1  0
 19 20  1  0
 16 21  1  0
 21 22  1  0
 22 23  2  0
 23 24  1  0
 24 25  2  0
 25 26  1  0
 25 27  1  0
 27 28  2  0
 28 29  1  0
 29 30  2  0
 19 14  1  0
 30 21  1  0
 30 24  1  0
  1 31  1  0
  1 32  1  0
  1 33  1  0
  2 34  1  0
  3 35  1  0
  3 36  1  0
  3 37  1  0
  4 38  1  1
  5 39  1  0
  5 40  1  0
  8 41  1  0
 13 42  1  0
 13 43  1  0
 14 44  1  6
 16 45  1  6
 17 46  1  1
 18 47  1  0
 19 48  1  1
 20 49  1  0
 22 50  1  0
 26 51  1  0
 26 52  1  0
 28 53  1  0
M  END
$$$$
[H]c1nc(N([H])c2c([H])c([H])c(N3C([H])([H])C([H])([H])C([H])(N(C([H])([H])[H])C([H])([H])[H])C([H])([H])C3([H])[H])c([H])c2OC([H])([H])[H])nc(N([H])c2c([H])c([H])c([H])c([H])c2S(=O)(=O)C([H])(C([H])([H])[H])C([H])([H])[H])c1F
     RDKit          3D

 73 76  0  0  0  0  0  0  0  0999 V2000
   -1.5630   -3.6984    1.1488 C   0  0  0  0  0  0  0  0  0  0  0  0
   -0.8061   -2.6441    0.5884 O   0  0  0  0  0  0  0  0  0  0  0  0
   -1.4515   -1.5309    0.0819 C   0  0  0  0  0  0  0  0  0  0  0  0
   -2.8203   -1.4418    0.1184 C   0  0  0  0  0  0  0  0  0  0  0  0
   -3.4738   -0.3406   -0.3813 C   0  0  0  0  0  0  0  0  0  0  0  0
   -2.6983    0.6598   -0.9156 C   0  0  0  0  0  0  0  0  0  0  0  0
   -1.3179    0.6042   -0.9693 C   0  0  0  0  0  0  0  0  0  0  0  0
   -0.6667   -0.4853   -0.4749 C   0  0  0  0  0  0  0  0  0  0  0  0
    0.7078   -0.6303   -0.4834 N   0  0  0  0  0  0  0  0  0  0  0  0
    1.7017    0.2472   -0.9595 C   0  0  0  0  0  0  0  0  0  0  0  0
    1.4351    1.4247   -1.5080 N   0  0  0  0  0  0  0  0  0  0  0  0
    2.4195    2.2307   -1.9455 C   0  0  0  0  0  0  0  0  0  0  0  0
    3.7335    1.8655   -1.8409 C   0  0  0  0  0  0  0  0  0  0  0  0
    4.7497    2.6444   -2.2675 F   0  0  0  0  0  0  0  0  0  0  0  0
    4.0610    0.6180   -1.2621 C   0  0  0  0  0  0  0  0  0  0  0  0
    5.4152    0.2533   -1.1215 N   0  0  0  0  0  0  0  0  0  0  0  0
    5.8959   -0.9500   -0.6096 C   0  0  0  0  0  0  0  0  0  0  0  0
    5.1475   -2.1355   -0.5468 C   0  0  0  0  0  0  0  0  0  0  0  0
    5.6711   -3.3482   -0.1447 C   0  0  0  0  0  0  0  0  0  0  0  0
    6.9841   -3.4275    0.2159 C   0  0  0  0  0  0  0  0  0  0  0  0
    7.7294   -2.2850    0.1627 C   0  0  0  0  0  0  0  0  0  0  0  0
    7.2307   -1.0421   -0.2372 C   0  0  0  0  0  0  0  0  0  0  0  0
    8.2746    0.3304   -0.1357 S   0  0  0  0  0  0  0  0  0  0  0  0
    9.7101   -0.2113    0.0820 O   0  0  0  0  0  0  0  0  0  0  0  0
    8.4116    1.0902   -1.4338 O   0  0  0  0  0  0  0  0  0  0  0  0
    7.9746    1.4087    1.2207 C   0  0  0  0  0  0  0  0  0  0  0  0
    9.1568    2.4276    1.2386 C   0  0  0  0  0  0  0  0  0  0  0  0
    6.7502    2.2457    1.1821 C   0  0  0  0  0  0  0  0  0  0  0  0
    3.0176   -0.0925   -0.8673 N   0  0  0  0  0  0  0  0  0  0  0  0
   -4.9022   -0.1893   -0.3655 N   0  0  0  0  0  0  0  0  0  0  0  0
   -5.6542   -1.2110    0.2616 C   0  0  0  0  0  0  0  0  0  0  0  0
   -7.0838   -0.8997    0.5812 C   0  0  0  0  0  0  0  0  0  0  0  0
   -7.3358    0.5682    0.4778 C   0  0  0  0  0  0  0  0  0  0  0  0
   -6.9568    0.9994   -0.9263 C   0  0  0  0  0  0  0  0  0  0  0  0
   -5.4527    0.9789   -0.9868 C   0  0  0  0  0  0  0  0  0  0  0  0
   -8.7061    0.8979    0.8087 N   0  0  0  0  0  0  0  0  0  0  0  0
   -8.9552    2.3215    0.7130 C   0  0  0  0  0  0  0  0  0  0  0  0
   -9.6589    0.1284    0.0344 C   0  0  0  0  0  0  0  0  0  0  0  0
   -2.1429   -3.2600    1.9853 H   0  0  0  0  0  0  0  0  0  0  0  0
   -0.9345   -4.5247    1.4948 H   0  0  0  0  0  0  0  0  0  0  0  0
   -2.3115   -4.1088    0.4243 H   0  0  0  0  0  0  0  0  0  0  0  0
   -3.4192   -2.2530    0.5463 H   0  0  0  0  0  0  0  0  0  0  0  0
   -3.1745    1.5478   -1.3218 H   0  0  0  0  0  0  0  0  0  0  0  0
   -0.8297    1.4239   -1.3992 H   0  0  0  0  0  0  0  0  0  0  0  0
    1.0795   -1.5744   -0.0532 H   0  0  0  0  0  0  0  0  0  0  0  0
    2.1946    3.2029   -2.3983 H   0  0  0  0  0  0  0  0  0  0  0  0
    6.1046    0.9680   -1.4710 H   0  0  0  0  0  0  0  0  0  0  0  0
    4.1094   -2.0997   -0.8466 H   0  0  0  0  0  0  0  0  0  0  0  0
    5.0166   -4.2162   -0.1261 H   0  0  0  0  0  0  0  0  0  0  0  0
    7.4303   -4.3869    0.5411 H   0  0  0  0  0  0  0  0  0  0  0  0
    8.7755   -2.3497    0.4507 H   0  0  0  0  0  0  0  0  0  0  0  0
    8.0445    0.8359    2.2016 H   0  0  0  0  0  0  0  0  0  0  0  0
    9.3003    2.6926    0.1715 H   0  0  0  0  0  0  0  0  0  0  0  0
    8.8668    3.3227    1.7875 H   0  0  0  0  0  0  0  0  0  0  0  0
   10.0759    1.9332    1.5935 H   0  0  0  0  0  0  0  0  0  0  0  0
    6.6193    2.6541    0.1507 H   0  0  0  0  0  0  0  0  0  0  0  0
    5.8344    1.6899    1.4507 H   0  0  0  0  0  0  0  0  0  0  0  0
    6.8431    3.1444    1.8722 H   0  0  0  0  0  0  0  0  0  0  0  0
   -5.5939   -2.1655   -0.3463 H   0  0  0  0  0  0  0  0  0  0  0  0
   -5.1308   -1.4513    1.2411 H   0  0  0  0  0  0  0  0  0  0  0  0
   -7.3073   -1.1959    1.6411 H   0  0  0  0  0  0  0  0  0  0  0  0
   -7.7500   -1.4511   -0.1209 H   0  0  0  0  0  0  0  0  0  0  0  0
   -6.6827    1.1271    1.1730 H   0  0  0  0  0  0  0  0  0  0  0  0
   -7.3133    2.0335   -1.1180 H   0  0  0  0  0  0  0  0  0  0  0  0
   -7.3378    0.3152   -1.7037 H   0  0  0  0  0  0  0  0  0  0  0  0
   -5.1126    1.0884   -2.0466 H   0  0  0  0  0  0  0  0  0  0  0  0
   -5.0966    1.9028   -0.4332 H   0  0  0  0  0  0  0  0  0  0  0  0
   -9.1455    2.6131   -0.3574 H   0  0  0  0  0  0  0  0  0  0  0  0
   -8.0825    2.8646    1.1197 H   0  0  0  0  0  0  0  0  0  0  0  0
   -9.8728    2.5442    1.2805 H   0  0  0  0  0  0  0  0  0  0  0  0
  -10.6535    0.5913    0.1701 H   0  0  0  0  0  0  0  0  0  0  0  0
   -9.3920    0.0584   -1.0369 H   0  0  0  0  0  0  0  0  0  0  0  0
   -9.6857   -0.8976    0.4679 H   0  0  0  0  0  0  0  0  0  0  0  0
  1  2  1  0
  2  3  1  0
  3  4  2  0
  4  5  1  0
  5  6  2  0
  6  7  1  0
  7  8  2  0
  8  9  1  0
  9 10  1  0
 10 11  2  0
 11 12  1  0
 12 13  2  0
 13 14  1  0
 13 15  1  0
 15 16  1  0
 16 17  1  0
 17 18  2  0
 18 19  1  0
 19 20  2  0
 20 21  1  0
 21 22  2  0
 22 23  1  0
 23 24  2  0
 23 25  2  0
 23 26  1  0
 26 27  1  0
 26 28  1  0
 15 29  2  0
  5 30  1  0
 30 31  1  0
 31 32  1  0
 32 33  1  0
 33 34  1  0
 34 35  1  0
 33 36  1  0
 36 37  1  0
 36 38  1  0
  8  3  1  0
 29 10  1  0
 35 30  1  0
 22 17  1  0
  1 39  1  0
  1 40  1  0
  1 41  1  0
  4 42  1  0
  6 43  1  0
  7 44  1  0
  9 45  1  0
 12 46  1  0
 16 47  1  0
 18 48  1  0
 19 49  1  0
 20 50  1  0
 21 51  1  0
 26 52  1  0
 27 53  1  0
 27 54  1  0
 27 55  1  0
 28 56  1  0
 28 57  1  0
 28 58  1  0
 31 59  1  0
 31 60  1  0
 32 61  1  0
 32 62  1  0
 33 63  1  0
 34 64  1  0
 34 65  1  0
 35 66  1  0
 35 67  1  0
 37 68  1  0
 37 69  1  0
 37 70  1  0
 38 71  1  0
 38 72  1  0
 38 73  1  0
M  END
$$$$
[H]c1c([H])c([H])c(C(=O)N([H])c2nnc(-c3c([H])c([H])c(Oc4c([H])c([H])c([N+](=O)[O-])c([H])c4[H])c([H])c3[H])s2)c(Cl)c1[H]
     RDKit          3D

 44 47  0  0  0  0  0  0  0  0999 V2000
   -9.1711    3.6836    1.2398 O   0  0  0  0  0  0  0  0  0  0  0  0
   -8.5632    2.5763    1.7995 N   0  0  0  0  0  0  0  0  0  0  0  0
   -8.7736    2.2222    2.9884 O   0  0  0  0  0  0  0  0  0  0  0  0
   -7.6758    1.8220    1.0146 C   0  0  0  0  0  0  0  0  0  0  0  0
   -7.3640    2.1604   -0.2899 C   0  0  0  0  0  0  0  0  0  0  0  0
   -6.4674    1.4007   -1.0644 C   0  0  0  0  0  0  0  0  0  0  0  0
   -5.8882    0.2879   -0.5018 C   0  0  0  0  0  0  0  0  0  0  0  0
   -5.0031   -0.4974   -1.2024 O   0  0  0  0  0  0  0  0  0  0  0  0
   -3.6315   -0.4130   -1.0680 C   0  0  0  0  0  0  0  0  0  0  0  0
   -2.7985    0.4374   -1.7462 C   0  0  0  0  0  0  0  0  0  0  0  0
   -1.4037    0.4385   -1.5389 C   0  0  0  0  0  0  0  0  0  0  0  0
   -0.8277   -0.4091   -0.6493 C   0  0  0  0  0  0  0  0  0  0  0  0
   -1.6495   -1.2794    0.0501 C   0  0  0  0  0  0  0  0  0  0  0  0
   -3.0064   -1.2857   -0.1491 C   0  0  0  0  0  0  0  0  0  0  0  0
    0.6282   -0.4307   -0.4221 C   0  0  0  0  0  0  0  0  0  0  0  0
    1.2900   -1.2867    0.3620 N   0  0  0  0  0  0  0  0  0  0  0  0
    2.5431   -1.2061    0.4399 N   0  0  0  0  0  0  0  0  0  0  0  0
    3.2017   -0.2866   -0.2455 C   0  0  0  0  0  0  0  0  0  0  0  0
    4.6303   -0.1137   -0.2775 N   0  0  0  0  0  0  0  0  0  0  0  0
    5.3872   -1.0937    0.4728 C   0  0  0  0  0  0  0  0  0  0  0  0
    4.7893   -1.9867    1.0978 O   0  0  0  0  0  0  0  0  0  0  0  0
    6.8264   -0.9512    0.4347 C   0  0  0  0  0  0  0  0  0  0  0  0
    7.4454   -0.1970    1.4006 C   0  0  0  0  0  0  0  0  0  0  0  0
    8.8303   -0.0497    1.3969 C   0  0  0  0  0  0  0  0  0  0  0  0
    9.5265   -0.6878    0.3937 C   0  0  0  0  0  0  0  0  0  0  0  0
    8.8975   -1.4482   -0.5797 C   0  0  0  0  0  0  0  0  0  0  0  0
    7.5338   -1.5737   -0.5495 C   0  0  0  0  0  0  0  0  0  0  0  0
    6.6985   -2.5058   -1.7550 Cl  0  0  0  0  0  0  0  0  0  0  0  0
    1.9145    0.5030   -1.0428 S   0  0  0  0  0  0  0  0  0  0  0  0
   -6.2060   -0.0469    0.8129 C   0  0  0  0  0  0  0  0  0  0  0  0
   -7.0733    0.6816    1.5797 C   0  0  0  0  0  0  0  0  0  0  0  0
   -7.8173    3.0420   -0.7507 H   0  0  0  0  0  0  0  0  0  0  0  0
   -6.2407    1.6823   -2.0690 H   0  0  0  0  0  0  0  0  0  0  0  0
   -3.2565    1.1138   -2.4571 H   0  0  0  0  0  0  0  0  0  0  0  0
   -0.8210    1.1493   -2.1271 H   0  0  0  0  0  0  0  0  0  0  0  0
   -1.1542   -1.9459    0.7580 H   0  0  0  0  0  0  0  0  0  0  0  0
   -3.6550   -1.9686    0.3982 H   0  0  0  0  0  0  0  0  0  0  0  0
    5.0682    0.6263   -0.8033 H   0  0  0  0  0  0  0  0  0  0  0  0
    6.8607    0.2836    2.1642 H   0  0  0  0  0  0  0  0  0  0  0  0
    9.2918    0.5542    2.1684 H   0  0  0  0  0  0  0  0  0  0  0  0
   10.6136   -0.5591    0.4041 H   0  0  0  0  0  0  0  0  0  0  0  0
    9.5244   -1.9128   -1.3246 H   0  0  0  0  0  0  0  0  0  0  0  0
   -5.7327   -0.9326    1.2572 H   0  0  0  0  0  0  0  0  0  0  0  0
   -7.3206    0.4035    2.6175 H   0  0  0  0  0  0  0  0  0  0  0  0
  1  2  1  0
  2  3  2  0
  2  4  1  0
  4  5  2  0
  5  6  1  0
  6  7  2  0
  7  8  1  0
  8  9  1  0
  9 10  2  0
 10 11  1  0
 11 12  2  0
 12 13  1  0
 13 14  2  0
 12 15  1  0
 15 16  2  0
 16 17  1  0
 17 18  2  0
 18 19  1  0
 19 20  1  0
 20 21  2  0
 20 22  1  0
 22 23  2  0
 23 24  1  0
 24 25  2  0
 25 26  1  0
 26 27  2  0
 27 28  1  0
 18 29  1  0
  7 30  1  0
 30 31  2  0
 31  4  1  0
 14  9  1  0
 29 15  1  0
 27 22  1  0
  5 32  1  0
  6 33  1  0
 10 34  1  0
 11 35  1  0
 13 36  1  0
 14 37  1  0
 19 38  1  0
 23 39  1  0
 24 40  1  0
 25 41  1  0
 26 42  1  0
 30 43  1  0
 31 44  1  0
M  CHG  2   1  -1   2   1
M  END
$$$$
[H]C1=C([H])C([H])(F)C([H])([H])C([H])=C1N([H])C(=O)C1(C(=O)N([H])c2c([H])c([H])c(Oc3c([H])c([H])nc4c([H])c(OC([H])([H])C([H])([H])C([H])([H])N5C([H])([H])C([H])([H])C([H])([H])C5([H])[H])c(OC([H])([H])[H])c([H])c34)c(F)c2[H])C([H])([H])C1([H])[H]
     RDKit          3D

 81 86  0  0  0  0  0  0  0  0999 V2000
   -3.5877    0.0230   -2.5605 C   0  0  0  0  0  0  0  0  0  0  0  0
   -4.4433   -0.0435   -1.4508 O   0  0  0  0  0  0  0  0  0  0  0  0
   -3.9880   -0.2494   -0.1491 C   0  0  0  0  0  0  0  0  0  0  0  0
   -2.6478   -0.3994    0.1096 C   0  0  0  0  0  0  0  0  0  0  0  0
   -2.1587   -0.6042    1.3755 C   0  0  0  0  0  0  0  0  0  0  0  0
   -0.7923   -0.7567    1.6112 C   0  0  0  0  0  0  0  0  0  0  0  0
    0.0250   -0.6916    0.5279 O   0  0  0  0  0  0  0  0  0  0  0  0
    1.3913   -0.8525    0.4754 C   0  0  0  0  0  0  0  0  0  0  0  0
    2.2342    0.1729    0.0692 C   0  0  0  0  0  0  0  0  0  0  0  0
    3.5918   -0.0103    0.0220 C   0  0  0  0  0  0  0  0  0  0  0  0
    4.2120   -1.2204    0.3732 C   0  0  0  0  0  0  0  0  0  0  0  0
    5.6358   -1.3113    0.3171 N   0  0  0  0  0  0  0  0  0  0  0  0
    6.4056   -2.4553    0.1478 C   0  0  0  0  0  0  0  0  0  0  0  0
    5.7718   -3.5663    0.0427 O   0  0  0  0  0  0  0  0  0  0  0  0
    7.8601   -2.5227    0.0895 C   0  0  0  0  0  0  0  0  0  0  0  0
    8.4588   -3.8753   -0.2867 C   0  0  0  0  0  0  0  0  0  0  0  0
    8.4428   -3.4847    1.1392 C   0  0  0  0  0  0  0  0  0  0  0  0
    8.7035   -1.3424   -0.2300 C   0  0  0  0  0  0  0  0  0  0  0  0
    9.9255   -1.4864    0.1717 O   0  0  0  0  0  0  0  0  0  0  0  0
    8.2626   -0.2155   -0.8859 N   0  0  0  0  0  0  0  0  0  0  0  0
    8.9663    0.9916   -1.2279 C   0  0  0  0  0  0  0  0  0  0  0  0
   10.2261    1.1961   -0.9431 C   0  0  0  0  0  0  0  0  0  0  0  0
   10.9546    2.4310   -1.2907 C   0  0  0  0  0  0  0  0  0  0  0  0
   10.1946    3.4846   -1.9837 C   0  0  0  0  0  0  0  0  0  0  0  0
   10.2335    4.6437   -1.1848 F   0  0  0  0  0  0  0  0  0  0  0  0
    8.8021    3.1813   -2.2644 C   0  0  0  0  0  0  0  0  0  0  0  0
    8.2359    2.0634   -1.9301 C   0  0  0  0  0  0  0  0  0  0  0  0
    3.3805   -2.2291    0.7736 C   0  0  0  0  0  0  0  0  0  0  0  0
    1.9865   -2.0377    0.8203 C   0  0  0  0  0  0  0  0  0  0  0  0
    1.2365   -3.0982    1.2142 F   0  0  0  0  0  0  0  0  0  0  0  0
   -0.4287   -0.9581    2.9201 C   0  0  0  0  0  0  0  0  0  0  0  0
   -1.3521   -1.0070    3.9339 C   0  0  0  0  0  0  0  0  0  0  0  0
   -2.6377   -0.8567    3.6575 N   0  0  0  0  0  0  0  0  0  0  0  0
   -3.0892   -0.6527    2.3915 C   0  0  0  0  0  0  0  0  0  0  0  0
   -4.4416   -0.5052    2.1646 C   0  0  0  0  0  0  0  0  0  0  0  0
   -4.8811   -0.3029    0.8827 C   0  0  0  0  0  0  0  0  0  0  0  0
   -6.2490   -0.1596    0.6965 O   0  0  0  0  0  0  0  0  0  0  0  0
   -7.1921   -0.2052    1.7204 C   0  0  0  0  0  0  0  0  0  0  0  0
   -8.5663   -0.0150    1.1322 C   0  0  0  0  0  0  0  0  0  0  0  0
   -8.6955    1.3020    0.4220 C   0  0  0  0  0  0  0  0  0  0  0  0
  -10.0037    1.4621   -0.1281 N   0  0  0  0  0  0  0  0  0  0  0  0
  -10.2287    2.6808   -0.8350 C   0  0  0  0  0  0  0  0  0  0  0  0
  -11.1566    2.3511   -2.0081 C   0  0  0  0  0  0  0  0  0  0  0  0
  -11.7165    1.0092   -1.5741 C   0  0  0  0  0  0  0  0  0  0  0  0
  -10.4689    0.3786   -0.9383 C   0  0  0  0  0  0  0  0  0  0  0  0
   -4.1462    0.4826   -3.4058 H   0  0  0  0  0  0  0  0  0  0  0  0
   -2.7486    0.7305   -2.3481 H   0  0  0  0  0  0  0  0  0  0  0  0
   -3.2042   -0.9751   -2.8684 H   0  0  0  0  0  0  0  0  0  0  0  0
   -1.9172   -0.3599   -0.6920 H   0  0  0  0  0  0  0  0  0  0  0  0
    1.7492    1.1006   -0.1989 H   0  0  0  0  0  0  0  0  0  0  0  0
    4.2444    0.7990   -0.2985 H   0  0  0  0  0  0  0  0  0  0  0  0
    6.1068   -0.3582    0.4880 H   0  0  0  0  0  0  0  0  0  0  0  0
    7.7266   -4.6220   -0.6534 H   0  0  0  0  0  0  0  0  0  0  0  0
    9.4183   -3.8918   -0.8472 H   0  0  0  0  0  0  0  0  0  0  0  0
    9.4104   -3.1476    1.6028 H   0  0  0  0  0  0  0  0  0  0  0  0
    7.7630   -3.9592    1.8454 H   0  0  0  0  0  0  0  0  0  0  0  0
    7.2650   -0.2466   -1.2614 H   0  0  0  0  0  0  0  0  0  0  0  0
   10.8241    0.4296   -0.4110 H   0  0  0  0  0  0  0  0  0  0  0  0
   11.8456    2.1794   -1.9484 H   0  0  0  0  0  0  0  0  0  0  0  0
   11.3908    2.8108   -0.3161 H   0  0  0  0  0  0  0  0  0  0  0  0
   10.6645    3.7949   -2.9610 H   0  0  0  0  0  0  0  0  0  0  0  0
    8.2315    3.9729   -2.7929 H   0  0  0  0  0  0  0  0  0  0  0  0
    7.1670    1.8981   -2.1758 H   0  0  0  0  0  0  0  0  0  0  0  0
    3.7856   -3.1876    1.0764 H   0  0  0  0  0  0  0  0  0  0  0  0
    0.6075   -1.0712    3.1537 H   0  0  0  0  0  0  0  0  0  0  0  0
   -1.0717   -1.1659    4.9745 H   0  0  0  0  0  0  0  0  0  0  0  0
   -5.1120   -0.5552    3.0169 H   0  0  0  0  0  0  0  0  0  0  0  0
   -7.1820   -1.2490    2.1462 H   0  0  0  0  0  0  0  0  0  0  0  0
   -6.9796    0.4646    2.5680 H   0  0  0  0  0  0  0  0  0  0  0  0
   -9.3685   -0.0413    1.9143 H   0  0  0  0  0  0  0  0  0  0  0  0
   -8.7385   -0.8568    0.4359 H   0  0  0  0  0  0  0  0  0  0  0  0
   -8.5595    2.1075    1.1881 H   0  0  0  0  0  0  0  0  0  0  0  0
   -7.8715    1.4342   -0.3151 H   0  0  0  0  0  0  0  0  0  0  0  0
  -10.7856    3.4045   -0.1999 H   0  0  0  0  0  0  0  0  0  0  0  0
   -9.3011    3.1863   -1.1756 H   0  0  0  0  0  0  0  0  0  0  0  0
  -11.9700    3.1048   -2.1030 H   0  0  0  0  0  0  0  0  0  0  0  0
  -10.5960    2.2617   -2.9622 H   0  0  0  0  0  0  0  0  0  0  0  0
  -12.4672    1.2054   -0.7918 H   0  0  0  0  0  0  0  0  0  0  0  0
  -12.0978    0.4163   -2.4102 H   0  0  0  0  0  0  0  0  0  0  0  0
  -10.7030   -0.5229   -0.3684 H   0  0  0  0  0  0  0  0  0  0  0  0
   -9.7919    0.1704   -1.8195 H   0  0  0  0  0  0  0  0  0  0  0  0
  1  2  1  0
  2  3  1  0
  3  4  2  0
  4  5  1  0
  5  6  2  0
  6  7  1  0
  7  8  1  0
  8  9  2  0
  9 10  1  0
 10 11  2  0
 11 12  1  0
 12 13  1  0
 13 14  2  0
 13 15  1  0
 15 16  1  0
 16 17  1  0
 15 18  1  0
 18 19  2  0
 18 20  1  0
 20 21  1  0
 21 22  2  0
 22 23  1  0
 23 24  1  0
 24 25  1  0
 24 26  1  0
 26 27  2  0
 11 28  1  0
 28 29  2  0
 29 30  1  0
  6 31  1  0
 31 32  2  0
 32 33  1  0
 33 34  2  0
 34 35  1  0
 35 36  2  0
 36 37  1  0
 37 38  1  0
 38 39  1  0
 39 40  1  0
 40 41  1  0
 41 42  1  0
 42 43  1  0
 43 44  1  0
 44 45  1  0
 36  3  1  0
 45 41  1  0
 34  5  1  0
 29  8  1  0
 17 15  1  0
 27 21  1  0
  1 46  1  0
  1 47  1  0
  1 48  1  0
  4 49  1  0
  9 50  1  0
 10 51  1  0
 12 52  1  0
 16 53  1  0
 16 54  1  0
 17 55  1  0
 17 56  1  0
 20 57  1  0
 22 58  1  0
 23 59  1  0
 23 60  1  0
 24 61  1  0
 26 62  1  0
 27 63  1  0
 28 64  1  0
 31 65  1  0
 32 66  1  0
 35 67  1  0
 38 68  1  0
 38 69  1  0
 39 70  1  0
 39 71  1  0
 40 72  1  0
 40 73  1  0
 42 74  1  0
 42 75  1  0
 43 76  1  0
 43 77  1  0
 44 78  1  0
 44 79  1  0
 45 80  1  0
 45 81  1  0
M  END
$$$$
[H]c1nc(N([H])[C@]2([H])C([H])([H])C([H])([H])[C@@]([H])(N3C([H])([H])C([H])([H])N(c4c([H])c([H])c([H])c([H])c4OC([H])(C([H])([H])[H])C([H])([H])[H])C([H])([H])C3([H])[H])C([H])([H])C2([H])[H])nc([H])c1[H]
     RDKit          3D

 62 65  0  0  0  0  0  0  0  0999 V2000
   -5.6866   -2.3532   -1.7198 C   0  0  0  0  0  0  0  0  0  0  0  0
   -5.6736   -1.3663   -0.5662 C   0  0  0  0  0  0  0  0  0  0  0  0
   -5.5954   -2.1428    0.7524 C   0  0  0  0  0  0  0  0  0  0  0  0
   -4.6940   -0.4055   -0.6784 O   0  0  0  0  0  0  0  0  0  0  0  0
   -4.7330    0.9395   -0.7540 C   0  0  0  0  0  0  0  0  0  0  0  0
   -5.9329    1.6309   -0.7254 C   0  0  0  0  0  0  0  0  0  0  0  0
   -5.9864    3.0266   -0.8065 C   0  0  0  0  0  0  0  0  0  0  0  0
   -4.8240    3.7408   -0.9175 C   0  0  0  0  0  0  0  0  0  0  0  0
   -3.6255    3.0749   -0.9470 C   0  0  0  0  0  0  0  0  0  0  0  0
   -3.5841    1.6835   -0.8653 C   0  0  0  0  0  0  0  0  0  0  0  0
   -2.3164    1.0510   -0.8664 N   0  0  0  0  0  0  0  0  0  0  0  0
   -1.1498    1.6421   -1.4996 C   0  0  0  0  0  0  0  0  0  0  0  0
    0.1258    1.4324   -0.6997 C   0  0  0  0  0  0  0  0  0  0  0  0
    0.2694    0.0153   -0.4856 N   0  0  0  0  0  0  0  0  0  0  0  0
   -0.7628   -0.3973    0.4056 C   0  0  0  0  0  0  0  0  0  0  0  0
   -2.1707   -0.2136   -0.1836 C   0  0  0  0  0  0  0  0  0  0  0  0
    1.5521   -0.4097   -0.0738 C   0  0  1  0  0  0  0  0  0  0  0  0
    2.6549   -0.1434   -1.0725 C   0  0  0  0  0  0  0  0  0  0  0  0
    3.9593   -0.5188   -0.3968 C   0  0  0  0  0  0  0  0  0  0  0  0
    4.3224    0.5732    0.6007 C   0  0  1  0  0  0  0  0  0  0  0  0
    3.0299    1.2311    1.0309 C   0  0  0  0  0  0  0  0  0  0  0  0
    2.0107    0.1151    1.2525 C   0  0  0  0  0  0  0  0  0  0  0  0
    4.9232   -0.0146    1.7885 N   0  0  0  0  0  0  0  0  0  0  0  0
    6.1146   -0.7755    1.7047 C   0  0  0  0  0  0  0  0  0  0  0  0
    6.6741   -1.3194    2.7867 N   0  0  0  0  0  0  0  0  0  0  0  0
    7.8097   -2.0407    2.6893 C   0  0  0  0  0  0  0  0  0  0  0  0
    8.4103   -2.2258    1.4613 C   0  0  0  0  0  0  0  0  0  0  0  0
    7.8073   -1.6472    0.3409 C   0  0  0  0  0  0  0  0  0  0  0  0
    6.6840   -0.9413    0.4826 N   0  0  0  0  0  0  0  0  0  0  0  0
   -5.3876   -1.8233   -2.6422 H   0  0  0  0  0  0  0  0  0  0  0  0
   -6.7287   -2.7109   -1.8423 H   0  0  0  0  0  0  0  0  0  0  0  0
   -5.0416   -3.2335   -1.4996 H   0  0  0  0  0  0  0  0  0  0  0  0
   -6.6714   -0.8901   -0.5399 H   0  0  0  0  0  0  0  0  0  0  0  0
   -6.5420   -2.7047    0.8461 H   0  0  0  0  0  0  0  0  0  0  0  0
   -5.3854   -1.4737    1.5923 H   0  0  0  0  0  0  0  0  0  0  0  0
   -4.7804   -2.8963    0.7222 H   0  0  0  0  0  0  0  0  0  0  0  0
   -6.8589    1.0851   -0.6383 H   0  0  0  0  0  0  0  0  0  0  0  0
   -6.9390    3.5337   -0.7812 H   0  0  0  0  0  0  0  0  0  0  0  0
   -4.8425    4.8395   -0.9830 H   0  0  0  0  0  0  0  0  0  0  0  0
   -2.7375    3.6821   -1.0291 H   0  0  0  0  0  0  0  0  0  0  0  0
   -1.2918    2.6463   -1.8688 H   0  0  0  0  0  0  0  0  0  0  0  0
   -0.9991    1.0024   -2.4272 H   0  0  0  0  0  0  0  0  0  0  0  0
    0.9400    1.8715   -1.3107 H   0  0  0  0  0  0  0  0  0  0  0  0
   -0.0158    1.9604    0.2627 H   0  0  0  0  0  0  0  0  0  0  0  0
   -0.7388    0.2816    1.3042 H   0  0  0  0  0  0  0  0  0  0  0  0
   -0.7105   -1.4670    0.7025 H   0  0  0  0  0  0  0  0  0  0  0  0
   -2.8234   -0.2732    0.7419 H   0  0  0  0  0  0  0  0  0  0  0  0
   -2.3747   -1.0913   -0.7930 H   0  0  0  0  0  0  0  0  0  0  0  0
    1.5054   -1.5356    0.0215 H   0  0  0  0  0  0  0  0  0  0  0  0
    2.5474   -0.8336   -1.9444 H   0  0  0  0  0  0  0  0  0  0  0  0
    2.7367    0.9058   -1.3718 H   0  0  0  0  0  0  0  0  0  0  0  0
    3.8856   -1.5085    0.1049 H   0  0  0  0  0  0  0  0  0  0  0  0
    4.7450   -0.5008   -1.1824 H   0  0  0  0  0  0  0  0  0  0  0  0
    4.9893    1.3363    0.1362 H   0  0  0  0  0  0  0  0  0  0  0  0
    3.1628    1.7361    2.0301 H   0  0  0  0  0  0  0  0  0  0  0  0
    2.6741    2.0004    0.3484 H   0  0  0  0  0  0  0  0  0  0  0  0
    1.1959    0.4422    1.9197 H   0  0  0  0  0  0  0  0  0  0  0  0
    2.5643   -0.6757    1.8124 H   0  0  0  0  0  0  0  0  0  0  0  0
    4.4973    0.1047    2.7401 H   0  0  0  0  0  0  0  0  0  0  0  0
    8.2200   -2.4582    3.5945 H   0  0  0  0  0  0  0  0  0  0  0  0
    9.3176   -2.8038    1.3937 H   0  0  0  0  0  0  0  0  0  0  0  0
    8.2750   -1.7891   -0.6278 H   0  0  0  0  0  0  0  0  0  0  0  0
  1  2  1  0
  2  3  1  0
  2  4  1  0
  4  5  1  0
  5  6  2  0
  6  7  1  0
  7  8  2  0
  8  9  1  0
  9 10  2  0
 10 11  1  0
 11 12  1  0
 12 13  1  0
 13 14  1  0
 14 15  1  0
 15 16  1  0
 14 17  1  0
 17 18  1  0
 18 19  1  0
 19 20  1  0
 20 21  1  0
 21 22  1  0
 20 23  1  0
 23 24  1  0
 24 25  2  0
 25 26  1  0
 26 27  2  0
 27 28  1  0
 28 29  2  0
 10  5  1  0
 16 11  1  0
 22 17  1  0
 29 24  1  0
  1 30  1  0
  1 31  1  0
  1 32  1  0
  2 33  1  0
  3 34  1  0
  3 35  1  0
  3 36  1  0
  6 37  1  0
  7 38  1  0
  8 39  1  0
  9 40  1  0
 12 41  1  0
 12 42  1  0
 13 43  1  0
 13 44  1  0
 15 45  1  0
 15 46  1  0
 16 47  1  0
 16 48  1  0
 17 49  1  1
 18 50  1  0
 18 51  1  0
 19 52  1  0
 19 53  1  0
 20 54  1  6
 21 55  1  0
 21 56  1  0
 22 57  1  0
 22 58  1  0
 23 59  1  0
 26 60  1  0
 27 61  1  0
 28 62  1  0
M  END
$$$$
[H]c1nc(C(C#N)(C([H])([H])[H])C([H])([H])[H])c([H])c(C(=O)N([H])c2c([H])c([H])c(C([H])([H])[H])c(-c3nn(C([H])([H])[H])c(=O)c(N4C([H])([H])C([H])([H])OC([H])([H])C4([H])[H])c3[H])c2[H])c1[H]
     RDKit          3D

 63 66  0  0  0  0  0  0  0  0999 V2000
   -2.7681   -0.9754   -3.1775 C   0  0  0  0  0  0  0  0  0  0  0  0
   -1.5871   -1.0268   -2.3163 C   0  0  0  0  0  0  0  0  0  0  0  0
   -0.3666   -0.9743   -3.0332 C   0  0  0  0  0  0  0  0  0  0  0  0
    0.8441   -1.0895   -2.4197 C   0  0  0  0  0  0  0  0  0  0  0  0
    0.9221   -1.2731   -1.0285 C   0  0  0  0  0  0  0  0  0  0  0  0
    2.2451   -1.3950   -0.5124 N   0  0  0  0  0  0  0  0  0  0  0  0
    3.2140   -0.4928   -0.9541 C   0  0  0  0  0  0  0  0  0  0  0  0
    2.8887    0.4767   -1.7565 O   0  0  0  0  0  0  0  0  0  0  0  0
    4.6381   -0.4802   -0.6383 C   0  0  0  0  0  0  0  0  0  0  0  0
    5.4445   -1.5165   -1.1260 C   0  0  0  0  0  0  0  0  0  0  0  0
    6.7900   -1.5303   -0.9389 C   0  0  0  0  0  0  0  0  0  0  0  0
    7.3525   -0.5103   -0.2607 N   0  0  0  0  0  0  0  0  0  0  0  0
    6.6595    0.5148    0.2389 C   0  0  0  0  0  0  0  0  0  0  0  0
    5.2776    0.5270    0.0462 C   0  0  0  0  0  0  0  0  0  0  0  0
    7.3871    1.6374    0.8948 C   0  0  0  0  0  0  0  0  0  0  0  0
    6.5056    2.5571    1.6719 C   0  0  0  0  0  0  0  0  0  0  0  0
    8.5752    1.1994    1.7059 C   0  0  0  0  0  0  0  0  0  0  0  0
    7.9509    2.4976   -0.2110 C   0  0  0  0  0  0  0  0  0  0  0  0
    8.3969    3.1382   -1.0586 N   0  0  0  0  0  0  0  0  0  0  0  0
   -0.2425   -1.3251   -0.3548 C   0  0  0  0  0  0  0  0  0  0  0  0
   -1.5077   -1.1976   -0.9722 C   0  0  0  0  0  0  0  0  0  0  0  0
   -2.7097   -1.2368   -0.1094 C   0  0  0  0  0  0  0  0  0  0  0  0
   -3.8327   -0.5193   -0.3370 C   0  0  0  0  0  0  0  0  0  0  0  0
   -4.8920   -0.5387    0.6006 C   0  0  0  0  0  0  0  0  0  0  0  0
   -5.9977    0.2691    0.3831 N   0  0  0  0  0  0  0  0  0  0  0  0
   -6.3026    0.8240   -0.9468 C   0  0  0  0  0  0  0  0  0  0  0  0
   -6.2377    2.3314   -0.6839 C   0  0  0  0  0  0  0  0  0  0  0  0
   -5.6631    2.6663    0.5118 O   0  0  0  0  0  0  0  0  0  0  0  0
   -6.2106    2.1831    1.6687 C   0  0  0  0  0  0  0  0  0  0  0  0
   -6.8945    0.7999    1.3754 C   0  0  0  0  0  0  0  0  0  0  0  0
   -4.7339   -1.2974    1.7119 C   0  0  0  0  0  0  0  0  0  0  0  0
   -5.5906   -1.4213    2.6132 O   0  0  0  0  0  0  0  0  0  0  0  0
   -3.5897   -2.0049    1.9116 N   0  0  0  0  0  0  0  0  0  0  0  0
   -3.4327   -2.8298    3.1249 C   0  0  0  0  0  0  0  0  0  0  0  0
   -2.6278   -1.9600    1.0217 N   0  0  0  0  0  0  0  0  0  0  0  0
   -2.5086   -1.6650   -4.0822 H   0  0  0  0  0  0  0  0  0  0  0  0
   -3.6912   -1.4045   -2.8020 H   0  0  0  0  0  0  0  0  0  0  0  0
   -2.8418    0.0126   -3.6682 H   0  0  0  0  0  0  0  0  0  0  0  0
   -0.3790   -0.8228   -4.0937 H   0  0  0  0  0  0  0  0  0  0  0  0
    1.7510   -1.0660   -3.0238 H   0  0  0  0  0  0  0  0  0  0  0  0
    2.4837   -2.1397    0.1877 H   0  0  0  0  0  0  0  0  0  0  0  0
    4.9905   -2.3298   -1.6701 H   0  0  0  0  0  0  0  0  0  0  0  0
    7.3622   -2.3570   -1.3403 H   0  0  0  0  0  0  0  0  0  0  0  0
    4.7192    1.3372    0.4627 H   0  0  0  0  0  0  0  0  0  0  0  0
    5.6915    2.9580    1.0211 H   0  0  0  0  0  0  0  0  0  0  0  0
    7.1333    3.4798    1.8730 H   0  0  0  0  0  0  0  0  0  0  0  0
    6.1571    2.1005    2.5975 H   0  0  0  0  0  0  0  0  0  0  0  0
    9.2100    2.1215    1.8163 H   0  0  0  0  0  0  0  0  0  0  0  0
    8.3205    0.8627    2.7108 H   0  0  0  0  0  0  0  0  0  0  0  0
    9.2144    0.4826    1.1235 H   0  0  0  0  0  0  0  0  0  0  0  0
   -0.2580   -1.4717    0.7199 H   0  0  0  0  0  0  0  0  0  0  0  0
   -3.9330    0.1077   -1.1746 H   0  0  0  0  0  0  0  0  0  0  0  0
   -5.7409    0.4579   -1.7615 H   0  0  0  0  0  0  0  0  0  0  0  0
   -7.3916    0.6139   -1.1713 H   0  0  0  0  0  0  0  0  0  0  0  0
   -7.2508    2.7972   -0.7878 H   0  0  0  0  0  0  0  0  0  0  0  0
   -5.6300    2.7747   -1.4863 H   0  0  0  0  0  0  0  0  0  0  0  0
   -6.8161    2.8194    2.2681 H   0  0  0  0  0  0  0  0  0  0  0  0
   -5.3245    1.8374    2.2964 H   0  0  0  0  0  0  0  0  0  0  0  0
   -7.1046    0.2582    2.2604 H   0  0  0  0  0  0  0  0  0  0  0  0
   -7.8870    1.1036    0.8875 H   0  0  0  0  0  0  0  0  0  0  0  0
   -2.9127   -3.7388    2.8134 H   0  0  0  0  0  0  0  0  0  0  0  0
   -4.4349   -2.9514    3.5482 H   0  0  0  0  0  0  0  0  0  0  0  0
   -2.8333   -2.2054    3.8300 H   0  0  0  0  0  0  0  0  0  0  0  0
  1  2  1  0
  2  3  2  0
  3  4  1  0
  4  5  2  0
  5  6  1  0
  6  7  1  0
  7  8  2  0
  7  9  1  0
  9 10  2  0
 10 11  1  0
 11 12  2  0
 12 13  1  0
 13 14  2  0
 13 15  1  0
 15 16  1  0
 15 17  1  0
 15 18  1  0
 18 19  3  0
  5 20  1  0
 20 21  2  0
 21 22  1  0
 22 23  1  0
 23 24  2  0
 24 25  1  0
 25 26  1  0
 26 27  1  0
 27 28  1  0
 28 29  1  0
 29 30  1  0
 24 31  1  0
 31 32  2  0
 31 33  1  0
 33 34  1  0
 33 35  1  0
 21  2  1  0
 35 22  2  0
 14  9  1  0
 30 25  1  0
  1 36  1  0
  1 37  1  0
  1 38  1  0
  3 39  1  0
  4 40  1  0
  6 41  1  0
 10 42  1  0
 11 43  1  0
 14 44  1  0
 16 45  1  0
 16 46  1  0
 16 47  1  0
 17 48  1  0
 17 49  1  0
 17 50  1  0
 20 51  1  0
 23 52  1  0
 26 53  1  0
 26 54  1  0
 27 55  1  0
 27 56  1  0
 29 57  1  0
 29 58  1  0
 30 59  1  0
 30 60  1  0
 34 61  1  0
 34 62  1  0
 34 63  1  0
M  END
$$$$
[H]c1nc2c(N([H])C3([H])C([H])([H])C3([H])[H])nc(N([H])c3c([H])c(C#N)c([H])c(N4C([H])([H])C([H])([H])N(C([H])([H])[H])C([H])([H])C4([H])[H])c3Cl)nn2c1C#N
     RDKit          3D

 53 57  0  0  0  0  0  0  0  0999 V2000
    7.1144   -0.9445    0.6697 C   0  0  0  0  0  0  0  0  0  0  0  0
    6.5071   -0.1563   -0.3849 N   0  0  0  0  0  0  0  0  0  0  0  0
    5.7832    0.9441    0.2201 C   0  0  0  0  0  0  0  0  0  0  0  0
    4.4062    0.4327    0.6547 C   0  0  0  0  0  0  0  0  0  0  0  0
    3.6644    0.1942   -0.5900 N   0  0  0  0  0  0  0  0  0  0  0  0
    4.4617   -0.2040   -1.7338 C   0  0  0  0  0  0  0  0  0  0  0  0
    5.6844   -0.9546   -1.2454 C   0  0  0  0  0  0  0  0  0  0  0  0
    2.2680    0.3441   -0.6621 C   0  0  0  0  0  0  0  0  0  0  0  0
    1.7667    1.2698   -1.5511 C   0  0  0  0  0  0  0  0  0  0  0  0
    0.4063    1.4591   -1.6640 C   0  0  0  0  0  0  0  0  0  0  0  0
   -0.4585    0.7040   -0.8693 C   0  0  0  0  0  0  0  0  0  0  0  0
   -0.0013   -0.2157    0.0162 C   0  0  0  0  0  0  0  0  0  0  0  0
   -0.8444   -0.9900    0.8289 N   0  0  0  0  0  0  0  0  0  0  0  0
   -2.2550   -0.9951    0.9109 C   0  0  0  0  0  0  0  0  0  0  0  0
   -3.1001   -0.2422    0.2115 N   0  0  0  0  0  0  0  0  0  0  0  0
   -4.4250   -0.2867    0.3278 C   0  0  0  0  0  0  0  0  0  0  0  0
   -5.2496    0.5569   -0.4625 N   0  0  0  0  0  0  0  0  0  0  0  0
   -4.7496    1.4919   -1.4156 C   0  0  0  0  0  0  0  0  0  0  0  0
   -5.7911    2.3124   -2.1713 C   0  0  0  0  0  0  0  0  0  0  0  0
   -4.8255    2.9547   -1.2215 C   0  0  0  0  0  0  0  0  0  0  0  0
   -4.9353   -1.1823    1.2425 C   0  0  0  0  0  0  0  0  0  0  0  0
   -6.1855   -1.4609    1.5866 N   0  0  0  0  0  0  0  0  0  0  0  0
   -6.1431   -2.4172    2.5312 C   0  0  0  0  0  0  0  0  0  0  0  0
   -4.8376   -2.7592    2.7986 C   0  0  0  0  0  0  0  0  0  0  0  0
   -4.3238   -3.7261    3.7280 C   0  0  0  0  0  0  0  0  0  0  0  0
   -3.9044   -4.5151    4.4780 N   0  0  0  0  0  0  0  0  0  0  0  0
   -4.0929   -1.9633    1.9699 N   0  0  0  0  0  0  0  0  0  0  0  0
   -2.7987   -1.8778    1.8146 N   0  0  0  0  0  0  0  0  0  0  0  0
    1.3887   -0.3776    0.1005 C   0  0  0  0  0  0  0  0  0  0  0  0
    2.0285   -1.5563    1.2323 Cl  0  0  0  0  0  0  0  0  0  0  0  0
   -0.1005    2.4333   -2.6008 C   0  0  0  0  0  0  0  0  0  0  0  0
   -0.5141    3.2205   -3.3416 N   0  0  0  0  0  0  0  0  0  0  0  0
    6.4520   -1.0985    1.5315 H   0  0  0  0  0  0  0  0  0  0  0  0
    8.0032   -0.3748    1.0294 H   0  0  0  0  0  0  0  0  0  0  0  0
    7.4306   -1.8978    0.2143 H   0  0  0  0  0  0  0  0  0  0  0  0
    6.2656    1.3327    1.1161 H   0  0  0  0  0  0  0  0  0  0  0  0
    5.5958    1.6950   -0.5722 H   0  0  0  0  0  0  0  0  0  0  0  0
    3.8994    1.1913    1.2698 H   0  0  0  0  0  0  0  0  0  0  0  0
    4.5173   -0.5242    1.2107 H   0  0  0  0  0  0  0  0  0  0  0  0
    3.8680   -0.8889   -2.3614 H   0  0  0  0  0  0  0  0  0  0  0  0
    4.7589    0.6580   -2.3644 H   0  0  0  0  0  0  0  0  0  0  0  0
    5.3631   -1.8820   -0.7719 H   0  0  0  0  0  0  0  0  0  0  0  0
    6.3014   -1.2171   -2.1396 H   0  0  0  0  0  0  0  0  0  0  0  0
    2.4105    1.8730   -2.1835 H   0  0  0  0  0  0  0  0  0  0  0  0
   -1.4891    0.9119   -1.0187 H   0  0  0  0  0  0  0  0  0  0  0  0
   -0.3182   -1.6767    1.4802 H   0  0  0  0  0  0  0  0  0  0  0  0
   -6.2978    0.4721   -0.3214 H   0  0  0  0  0  0  0  0  0  0  0  0
   -3.9074    1.1098   -2.0325 H   0  0  0  0  0  0  0  0  0  0  0  0
   -6.8490    2.2659   -1.8237 H   0  0  0  0  0  0  0  0  0  0  0  0
   -5.6733    2.4283   -3.2546 H   0  0  0  0  0  0  0  0  0  0  0  0
   -5.2356    3.4164   -0.3157 H   0  0  0  0  0  0  0  0  0  0  0  0
   -4.0320    3.5716   -1.7053 H   0  0  0  0  0  0  0  0  0  0  0  0
   -7.0072   -2.8591    3.0159 H   0  0  0  0  0  0  0  0  0  0  0  0
  1  2  1  0
  2  3  1  0
  3  4  1  0
  4  5  1  0
  5  6  1  0
  6  7  1  0
  5  8  1  0
  8  9  2  0
  9 10  1  0
 10 11  2  0
 11 12  1  0
 12 13  1  0
 13 14  1  0
 14 15  1  0
 15 16  2  0
 16 17  1  0
 17 18  1  0
 18 19  1  0
 19 20  1  0
 16 21  1  0
 21 22  2  0
 22 23  1  0
 23 24  2  0
 24 25  1  0
 25 26  3  0
 24 27  1  0
 27 28  1  0
 12 29  2  0
 29 30  1  0
 10 31  1  0
 31 32  3  0
  7  2  1  0
 29  8  1  0
 28 14  2  0
 20 18  1  0
 27 21  1  0
  1 33  1  0
  1 34  1  0
  1 35  1  0
  3 36  1  0
  3 37  1  0
  4 38  1  0
  4 39  1  0
  6 40  1  0
  6 41  1  0
  7 42  1  0
  7 43  1  0
  9 44  1  0
 11 45  1  0
 13 46  1  0
 17 47  1  0
 18 48  1  0
 19 49  1  0
 19 50  1  0
 20 51  1  0
 20 52  1  0
 23 53  1  0
M  END
$$$$
[H]c1nn2c(C#Cc3c([H])c(C(=O)N([H])c4c([H])c([H])c(C([H])([H])N5C([H])([H])C([H])([H])N(C([H])([H])[H])C([H])([H])C5([H])[H])c(C(F)(F)F)c4[H])c([H])c([H])c3C([H])([H])[H])c([H])nc2c([H])c1[H]
     RDKit          3D

 66 70  0  0  0  0  0  0  0  0999 V2000
   -9.0141    0.5418    1.2184 C   0  0  0  0  0  0  0  0  0  0  0  0
   -8.8477   -0.5373    0.2497 N   0  0  0  0  0  0  0  0  0  0  0  0
   -8.5827    0.0899   -1.0334 C   0  0  0  0  0  0  0  0  0  0  0  0
   -7.2552    0.7645   -0.9438 C   0  0  0  0  0  0  0  0  0  0  0  0
   -6.2118   -0.1531   -0.5341 N   0  0  0  0  0  0  0  0  0  0  0  0
   -5.0784    0.5515   -0.2211 C   0  0  0  0  0  0  0  0  0  0  0  0
   -3.8319    0.0140    0.2644 C   0  0  0  0  0  0  0  0  0  0  0  0
   -3.5518   -0.6040    1.4571 C   0  0  0  0  0  0  0  0  0  0  0  0
   -2.2394   -0.9318    1.8952 C   0  0  0  0  0  0  0  0  0  0  0  0
   -1.2224   -0.6514    1.1434 C   0  0  0  0  0  0  0  0  0  0  0  0
    0.1776   -0.9147    1.0432 N   0  0  0  0  0  0  0  0  0  0  0  0
    0.9252    0.3673    0.9712 C   0  0  0  0  0  0  0  0  0  0  0  0
    0.3900    1.4501    1.2745 O   0  0  0  0  0  0  0  0  0  0  0  0
    2.2559    0.2272    0.4429 C   0  0  0  0  0  0  0  0  0  0  0  0
    2.2723    0.7699   -0.8934 C   0  0  0  0  0  0  0  0  0  0  0  0
    3.3216    0.5540   -1.7049 C   0  0  0  0  0  0  0  0  0  0  0  0
    4.3564   -0.1799   -1.2160 C   0  0  0  0  0  0  0  0  0  0  0  0
    5.4628   -0.6335   -2.1215 C   0  0  0  0  0  0  0  0  0  0  0  0
    4.3807   -0.7203    0.0965 C   0  0  0  0  0  0  0  0  0  0  0  0
    3.2907   -0.4872    0.8836 C   0  0  0  0  0  0  0  0  0  0  0  0
    5.6656   -1.1744    0.4682 C   0  0  0  0  0  0  0  0  0  0  0  0
    6.8054   -1.3674    0.6644 C   0  0  0  0  0  0  0  0  0  0  0  0
    8.2411   -1.2901    0.7197 C   0  0  0  0  0  0  0  0  0  0  0  0
    9.2492   -2.1485    0.6677 C   0  0  0  0  0  0  0  0  0  0  0  0
   10.4396   -1.4267    0.6587 N   0  0  0  0  0  0  0  0  0  0  0  0
   10.1682   -0.1244    0.7099 C   0  0  0  0  0  0  0  0  0  0  0  0
   10.9607    1.0611    0.7342 C   0  0  0  0  0  0  0  0  0  0  0  0
   10.3443    2.2758    0.7914 C   0  0  0  0  0  0  0  0  0  0  0  0
    8.9568    2.3238    0.8309 C   0  0  0  0  0  0  0  0  0  0  0  0
    8.2433    1.1733    0.8123 N   0  0  0  0  0  0  0  0  0  0  0  0
    8.8461   -0.0136    0.7488 N   0  0  0  0  0  0  0  0  0  0  0  0
   -1.4856    0.0127   -0.1275 C   0  0  0  0  0  0  0  0  0  0  0  0
   -2.7267    0.3329   -0.5464 C   0  0  0  0  0  0  0  0  0  0  0  0
   -2.8951    0.8514   -1.9142 C   0  0  0  0  0  0  0  0  0  0  0  0
   -3.4853    1.9980   -2.1589 F   0  0  0  0  0  0  0  0  0  0  0  0
   -1.5739    0.9910   -2.4785 F   0  0  0  0  0  0  0  0  0  0  0  0
   -3.4174   -0.1983   -2.7307 F   0  0  0  0  0  0  0  0  0  0  0  0
   -6.5996   -1.4045   -0.2114 C   0  0  0  0  0  0  0  0  0  0  0  0
   -7.8275   -1.3914    0.7322 C   0  0  0  0  0  0  0  0  0  0  0  0
   -8.9944    1.5421    0.7561 H   0  0  0  0  0  0  0  0  0  0  0  0
   -9.9404    0.4070    1.7763 H   0  0  0  0  0  0  0  0  0  0  0  0
   -8.1456    0.5266    1.9416 H   0  0  0  0  0  0  0  0  0  0  0  0
   -9.3429    0.9146   -1.1504 H   0  0  0  0  0  0  0  0  0  0  0  0
   -8.5824   -0.5940   -1.8738 H   0  0  0  0  0  0  0  0  0  0  0  0
   -6.9842    1.2855   -1.8653 H   0  0  0  0  0  0  0  0  0  0  0  0
   -7.3084    1.6045   -0.1677 H   0  0  0  0  0  0  0  0  0  0  0  0
   -5.0019    1.5750   -0.6965 H   0  0  0  0  0  0  0  0  0  0  0  0
   -5.4877    1.0414    0.8917 H   0  0  0  0  0  0  0  0  0  0  0  0
   -4.3664   -0.8563    2.1240 H   0  0  0  0  0  0  0  0  0  0  0  0
   -2.1533   -1.4176    2.8772 H   0  0  0  0  0  0  0  0  0  0  0  0
    0.5883   -1.7873    1.0131 H   0  0  0  0  0  0  0  0  0  0  0  0
    1.4249    1.3704   -1.1553 H   0  0  0  0  0  0  0  0  0  0  0  0
    3.3639    1.0029   -2.6930 H   0  0  0  0  0  0  0  0  0  0  0  0
    5.7303   -1.7156   -1.7572 H   0  0  0  0  0  0  0  0  0  0  0  0
    6.3688   -0.0484   -1.9681 H   0  0  0  0  0  0  0  0  0  0  0  0
    5.1536   -0.7782   -3.1765 H   0  0  0  0  0  0  0  0  0  0  0  0
    3.3252   -0.8897    1.9055 H   0  0  0  0  0  0  0  0  0  0  0  0
    9.0998   -3.2243    0.6154 H   0  0  0  0  0  0  0  0  0  0  0  0
   12.0368    1.0199    0.6456 H   0  0  0  0  0  0  0  0  0  0  0  0
   10.9167    3.2214    0.8053 H   0  0  0  0  0  0  0  0  0  0  0  0
    8.3858    3.2423    0.8728 H   0  0  0  0  0  0  0  0  0  0  0  0
   -0.6206    0.2114   -0.7285 H   0  0  0  0  0  0  0  0  0  0  0  0
   -5.8347   -2.0618    0.3018 H   0  0  0  0  0  0  0  0  0  0  0  0
   -6.9602   -2.0806   -1.0664 H   0  0  0  0  0  0  0  0  0  0  0  0
   -8.1424   -2.4295    0.8356 H   0  0  0  0  0  0  0  0  0  0  0  0
   -7.4357   -1.0792    1.7405 H   0  0  0  0  0  0  0  0  0  0  0  0
  1  2  1  0
  2  3  1  0
  3  4  1  0
  4  5  1  0
  5  6  1  0
  6  7  1  0
  7  8  2  0
  8  9  1  0
  9 10  2  0
 10 11  1  0
 11 12  1  0
 12 13  2  0
 12 14  1  0
 14 15  2  0
 15 16  1  0
 16 17  2  0
 17 18  1  0
 17 19  1  0
 19 20  2  0
 19 21  1  0
 21 22  3  0
 22 23  1  0
 23 24  2  0
 24 25  1  0
 25 26  2  0
 26 27  1  0
 27 28  2  0
 28 29  1  0
 29 30  2  0
 30 31  1  0
 10 32  1  0
 32 33  2  0
 33 34  1  0
 34 35  1  0
 34 36  1  0
 34 37  1  0
  5 38  1  0
 38 39  1  0
 39  2  1  0
 33  7  1  0
 20 14  1  0
 31 23  1  0
 31 26  1  0
  1 40  1  0
  1 41  1  0
  1 42  1  0
  3 43  1  0
  3 44  1  0
  4 45  1  0
  4 46  1  0
  6 47  1  0
  6 48  1  0
  8 49  1  0
  9 50  1  0
 11 51  1  0
 15 52  1  0
 16 53  1  0
 18 54  1  0
 18 55  1  0
 18 56  1  0
 20 57  1  0
 24 58  1  0
 27 59  1  0
 28 60  1  0
 29 61  1  0
 32 62  1  0
 38 63  1  0
 38 64  1  0
 39 65  1  0
 39 66  1  0
M  END
$$$$
[H]OC(=O)c1c([H])nc(N([H])C(=O)c2c([H])c(Oc3c([H])c([H])c(S(=O)(=O)C([H])([H])[H])c([H])c3[H])c([H])c(O[C@@]([H])(C([H])([H])[H])C([H])([H])OC([H])([H])[H])c2[H])c([H])c1[H]
     RDKit          3D

 59 61  0  0  0  0  0  0  0  0999 V2000
    1.2930    7.0664    1.3757 C   0  0  0  0  0  0  0  0  0  0  0  0
    0.0890    6.8809    1.9941 O   0  0  0  0  0  0  0  0  0  0  0  0
   -0.3751    5.5979    2.0389 C   0  0  0  0  0  0  0  0  0  0  0  0
   -0.5943    4.9641    0.6769 C   0  0  2  0  0  0  0  0  0  0  0  0
   -1.6399    5.7823   -0.0971 C   0  0  0  0  0  0  0  0  0  0  0  0
   -1.0732    3.6716    0.8846 O   0  0  0  0  0  0  0  0  0  0  0  0
   -0.4881    2.5052    0.4487 C   0  0  0  0  0  0  0  0  0  0  0  0
    0.6729    2.4228   -0.2680 C   0  0  0  0  0  0  0  0  0  0  0  0
    1.1817    1.2041   -0.6606 C   0  0  0  0  0  0  0  0  0  0  0  0
    2.3570    1.1664   -1.3831 O   0  0  0  0  0  0  0  0  0  0  0  0
    2.8679   -0.0501   -1.7723 C   0  0  0  0  0  0  0  0  0  0  0  0
    2.5379   -0.6509   -2.9638 C   0  0  0  0  0  0  0  0  0  0  0  0
    3.0917   -1.8591   -3.2709 C   0  0  0  0  0  0  0  0  0  0  0  0
    3.9746   -2.5156   -2.4393 C   0  0  0  0  0  0  0  0  0  0  0  0
    4.2819   -1.8768   -1.2472 C   0  0  0  0  0  0  0  0  0  0  0  0
    3.7543   -0.6610   -0.8871 C   0  0  0  0  0  0  0  0  0  0  0  0
    4.6698   -4.0741   -2.8670 S   0  0  0  0  0  0  0  0  0  0  0  0
    6.1761   -3.8474   -3.7592 C   0  0  0  0  0  0  0  0  0  0  0  0
    4.9715   -4.7986   -1.5863 O   0  0  0  0  0  0  0  0  0  0  0  0
    3.6563   -4.8641   -3.6216 O   0  0  0  0  0  0  0  0  0  0  0  0
    0.5130    0.0537   -0.3275 C   0  0  0  0  0  0  0  0  0  0  0  0
   -0.6454    0.1302    0.3870 C   0  0  0  0  0  0  0  0  0  0  0  0
   -1.1656    1.3264    0.7855 C   0  0  0  0  0  0  0  0  0  0  0  0
   -1.3259   -1.1316    0.7290 C   0  0  0  0  0  0  0  0  0  0  0  0
   -0.6234   -2.1436    0.7784 O   0  0  0  0  0  0  0  0  0  0  0  0
   -2.6939   -1.1336    0.9749 N   0  0  0  0  0  0  0  0  0  0  0  0
   -3.5184   -2.2286    1.3131 C   0  0  0  0  0  0  0  0  0  0  0  0
   -3.0884   -3.5197    1.4601 C   0  0  0  0  0  0  0  0  0  0  0  0
   -3.9928   -4.5402    1.7992 C   0  0  0  0  0  0  0  0  0  0  0  0
   -5.3180   -4.2297    1.9828 C   0  0  0  0  0  0  0  0  0  0  0  0
   -5.7216   -2.9309    1.8298 C   0  0  0  0  0  0  0  0  0  0  0  0
   -4.8410   -1.9878    1.5084 N   0  0  0  0  0  0  0  0  0  0  0  0
   -6.2904   -5.2688    2.3372 C   0  0  0  0  0  0  0  0  0  0  0  0
   -5.8647   -6.5800    2.4879 O   0  0  0  0  0  0  0  0  0  0  0  0
   -7.4900   -4.9866    2.5035 O   0  0  0  0  0  0  0  0  0  0  0  0
    1.3019    6.7635    0.3206 H   0  0  0  0  0  0  0  0  0  0  0  0
    1.5639    8.1439    1.4817 H   0  0  0  0  0  0  0  0  0  0  0  0
    2.1037    6.5134    1.9302 H   0  0  0  0  0  0  0  0  0  0  0  0
    0.3781    4.9622    2.5543 H   0  0  0  0  0  0  0  0  0  0  0  0
   -1.3395    5.5927    2.5782 H   0  0  0  0  0  0  0  0  0  0  0  0
    0.3409    5.0123    0.1122 H   0  0  0  0  0  0  0  0  0  0  0  0
   -2.1863    6.4131    0.6334 H   0  0  0  0  0  0  0  0  0  0  0  0
   -1.1369    6.4334   -0.8293 H   0  0  0  0  0  0  0  0  0  0  0  0
   -2.2926    5.0565   -0.6134 H   0  0  0  0  0  0  0  0  0  0  0  0
    1.1936    3.3548   -0.5251 H   0  0  0  0  0  0  0  0  0  0  0  0
    1.8469   -0.1482   -3.6263 H   0  0  0  0  0  0  0  0  0  0  0  0
    2.8307   -2.3414   -4.2206 H   0  0  0  0  0  0  0  0  0  0  0  0
    4.9751   -2.3664   -0.5669 H   0  0  0  0  0  0  0  0  0  0  0  0
    4.0077   -0.1748    0.0534 H   0  0  0  0  0  0  0  0  0  0  0  0
    7.0405   -3.9110   -3.0990 H   0  0  0  0  0  0  0  0  0  0  0  0
    6.2531   -4.6364   -4.5167 H   0  0  0  0  0  0  0  0  0  0  0  0
    6.1494   -2.8378   -4.2190 H   0  0  0  0  0  0  0  0  0  0  0  0
    0.8944   -0.9346   -0.6268 H   0  0  0  0  0  0  0  0  0  0  0  0
   -2.0764    1.3972    1.3546 H   0  0  0  0  0  0  0  0  0  0  0  0
   -3.1794   -0.1787    0.8952 H   0  0  0  0  0  0  0  0  0  0  0  0
   -2.0644   -3.8062    1.3262 H   0  0  0  0  0  0  0  0  0  0  0  0
   -3.6316   -5.5637    1.9119 H   0  0  0  0  0  0  0  0  0  0  0  0
   -6.7778   -2.6885    1.9769 H   0  0  0  0  0  0  0  0  0  0  0  0
   -5.5341   -6.9483    3.3589 H   0  0  0  0  0  0  0  0  0  0  0  0
  1  2  1  0
  2  3  1  0
  3  4  1  0
  4  5  1  0
  4  6  1  0
  6  7  1  0
  7  8  2  0
  8  9  1  0
  9 10  1  0
 10 11  1  0
 11 12  2  0
 12 13  1  0
 13 14  2  0
 14 15  1  0
 15 16  2  0
 14 17  1  0
 17 18  1  0
 17 19  2  0
 17 20  2  0
  9 21  2  0
 21 22  1  0
 22 23  2  0
 22 24  1  0
 24 25  2  0
 24 26  1  0
 26 27  1  0
 27 28  2  0
 28 29  1  0
 29 30  2  0
 30 31  1  0
 31 32  2  0
 30 33  1  0
 33 34  1  0
 33 35  2  0
 23  7  1  0
 32 27  1  0
 16 11  1  0
  1 36  1  0
  1 37  1  0
  1 38  1  0
  3 39  1  0
  3 40  1  0
  4 41  1  6
  5 42  1  0
  5 43  1  0
  5 44  1  0
  8 45  1  0
 12 46  1  0
 13 47  1  0
 15 48  1  0
 16 49  1  0
 18 50  1  0
 18 51  1  0
 18 52  1  0
 21 53  1  0
 23 54  1  0
 26 55  1  0
 28 56  1  0
 29 57  1  0
 31 58  1  0
 34 59  1  0
M  END
$$$$
[H]c1nn2c(N([H])C3([H])C([H])([H])C3([H])[H])c([H])c(N([H])c3c([H])c([H])c(N4C([H])([H])C([H])([H])N(C([H])([H])[H])C([H])([H])C4([H])[H])c(N([H])C(=O)C([H])([H])[H])c3[H])nc2c1C#N
     RDKit          3D

 60 64  0  0  0  0  0  0  0  0999 V2000
   -7.9824    0.1067    0.4726 C   0  0  0  0  0  0  0  0  0  0  0  0
   -6.7348   -0.1676    1.1366 N   0  0  0  0  0  0  0  0  0  0  0  0
   -5.8203    0.9377    0.9519 C   0  0  0  0  0  0  0  0  0  0  0  0
   -4.4072    0.5435    1.3944 C   0  0  0  0  0  0  0  0  0  0  0  0
   -3.9754   -0.5076    0.4981 N   0  0  0  0  0  0  0  0  0  0  0  0
   -4.9940   -1.2411   -0.2199 C   0  0  0  0  0  0  0  0  0  0  0  0
   -6.1595   -1.4284    0.7241 C   0  0  0  0  0  0  0  0  0  0  0  0
   -2.5921   -0.7670    0.3670 C   0  0  0  0  0  0  0  0  0  0  0  0
   -2.0965   -1.9086    0.9514 C   0  0  0  0  0  0  0  0  0  0  0  0
   -0.7668   -2.2428    0.9187 C   0  0  0  0  0  0  0  0  0  0  0  0
    0.1510   -1.3962    0.2645 C   0  0  0  0  0  0  0  0  0  0  0  0
    1.5051   -1.8039    0.2348 N   0  0  0  0  0  0  0  0  0  0  0  0
    2.6254   -0.9587    0.0750 C   0  0  0  0  0  0  0  0  0  0  0  0
    3.8930   -1.5652    0.0081 C   0  0  0  0  0  0  0  0  0  0  0  0
    5.0390   -0.7904   -0.1201 C   0  0  0  0  0  0  0  0  0  0  0  0
    6.3039   -1.4454   -0.1759 N   0  0  0  0  0  0  0  0  0  0  0  0
    7.5726   -0.7874   -0.3336 C   0  0  0  0  0  0  0  0  0  0  0  0
    8.8265   -1.6142   -0.2805 C   0  0  0  0  0  0  0  0  0  0  0  0
    8.5357   -0.5924    0.7618 C   0  0  0  0  0  0  0  0  0  0  0  0
    4.8790    0.5391   -0.1753 N   0  0  0  0  0  0  0  0  0  0  0  0
    5.7587    1.5024   -0.2870 N   0  0  0  0  0  0  0  0  0  0  0  0
    5.1817    2.7144   -0.3005 C   0  0  0  0  0  0  0  0  0  0  0  0
    3.8106    2.5202   -0.1879 C   0  0  0  0  0  0  0  0  0  0  0  0
    2.8053    3.5428   -0.1560 C   0  0  0  0  0  0  0  0  0  0  0  0
    2.0078    4.3807   -0.1185 N   0  0  0  0  0  0  0  0  0  0  0  0
    3.6639    1.1401   -0.1121 C   0  0  0  0  0  0  0  0  0  0  0  0
    2.5885    0.3830    0.0093 N   0  0  0  0  0  0  0  0  0  0  0  0
   -0.3614   -0.2654   -0.3122 C   0  0  0  0  0  0  0  0  0  0  0  0
   -1.7033    0.0835   -0.2867 C   0  0  0  0  0  0  0  0  0  0  0  0
   -2.2462    1.2216   -0.9106 N   0  0  0  0  0  0  0  0  0  0  0  0
   -1.6107    2.2671   -1.5801 C   0  0  0  0  0  0  0  0  0  0  0  0
   -2.4445    3.3756   -2.1622 C   0  0  0  0  0  0  0  0  0  0  0  0
   -0.3915    2.3478   -1.7307 O   0  0  0  0  0  0  0  0  0  0  0  0
   -8.8558   -0.2595    1.0131 H   0  0  0  0  0  0  0  0  0  0  0  0
   -7.9337   -0.2285   -0.5907 H   0  0  0  0  0  0  0  0  0  0  0  0
   -8.0819    1.2297    0.4212 H   0  0  0  0  0  0  0  0  0  0  0  0
   -6.1457    1.8275    1.4896 H   0  0  0  0  0  0  0  0  0  0  0  0
   -5.7549    1.1940   -0.1255 H   0  0  0  0  0  0  0  0  0  0  0  0
   -4.4723    0.0957    2.4283 H   0  0  0  0  0  0  0  0  0  0  0  0
   -3.7561    1.4198    1.4258 H   0  0  0  0  0  0  0  0  0  0  0  0
   -4.5724   -2.2410   -0.4465 H   0  0  0  0  0  0  0  0  0  0  0  0
   -5.3029   -0.7097   -1.1310 H   0  0  0  0  0  0  0  0  0  0  0  0
   -6.9540   -1.9812    0.1780 H   0  0  0  0  0  0  0  0  0  0  0  0
   -5.8504   -2.0150    1.5912 H   0  0  0  0  0  0  0  0  0  0  0  0
   -2.8101   -2.5734    1.4639 H   0  0  0  0  0  0  0  0  0  0  0  0
   -0.3885   -3.1444    1.3823 H   0  0  0  0  0  0  0  0  0  0  0  0
    1.7136   -2.8581    0.3430 H   0  0  0  0  0  0  0  0  0  0  0  0
    3.9919   -2.6444    0.0552 H   0  0  0  0  0  0  0  0  0  0  0  0
    6.3344   -2.4924   -0.0975 H   0  0  0  0  0  0  0  0  0  0  0  0
    7.5972    0.0061   -1.1436 H   0  0  0  0  0  0  0  0  0  0  0  0
    9.6309   -1.4425   -1.0100 H   0  0  0  0  0  0  0  0  0  0  0  0
    8.6476   -2.6856   -0.0518 H   0  0  0  0  0  0  0  0  0  0  0  0
    8.2183   -0.9128    1.7759 H   0  0  0  0  0  0  0  0  0  0  0  0
    9.1984    0.2888    0.7750 H   0  0  0  0  0  0  0  0  0  0  0  0
    5.6780    3.6658   -0.3828 H   0  0  0  0  0  0  0  0  0  0  0  0
    0.3025    0.3894   -0.8303 H   0  0  0  0  0  0  0  0  0  0  0  0
   -3.3196    1.3020   -0.8874 H   0  0  0  0  0  0  0  0  0  0  0  0
   -1.9031    3.9095   -2.9502 H   0  0  0  0  0  0  0  0  0  0  0  0
   -2.7215    4.1063   -1.3895 H   0  0  0  0  0  0  0  0  0  0  0  0
   -3.3513    2.9302   -2.6238 H   0  0  0  0  0  0  0  0  0  0  0  0
  1  2  1  0
  2  3  1  0
  3  4  1  0
  4  5  1  0
  5  6  1  0
  6  7  1  0
  5  8  1  0
  8  9  2  0
  9 10  1  0
 10 11  2  0
 11 12  1  0
 12 13  1  0
 13 14  1  0
 14 15  2  0
 15 16  1  0
 16 17  1  0
 17 18  1  0
 18 19  1  0
 15 20  1  0
 20 21  1  0
 21 22  2  0
 22 23  1  0
 23 24  1  0
 24 25  3  0
 23 26  2  0
 26 27  1  0
 11 28  1  0
 28 29  2  0
 29 30  1  0
 30 31  1  0
 31 32  1  0
 31 33  2  0
  7  2  1  0
 29  8  1  0
 27 13  2  0
 19 17  1  0
 26 20  1  0
  1 34  1  0
  1 35  1  0
  1 36  1  0
  3 37  1  0
  3 38  1  0
  4 39  1  0
  4 40  1  0
  6 41  1  0
  6 42  1  0
  7 43  1  0
  7 44  1  0
  9 45  1  0
 10 46  1  0
 12 47  1  0
 14 48  1  0
 16 49  1  0
 17 50  1  0
 18 51  1  0
 18 52  1  0
 19 53  1  0
 19 54  1  0
 22 55  1  0
 28 56  1  0
 30 57  1  0
 32 58  1  0
 32 59  1  0
 32 60  1  0
M  END
$$$$
[H]c1c([H])c([H])c(C([H])([H])Oc2c([H])c([H])c3c(c2[H])C2(OC3=O)C([H])([H])C([H])([H])N(C([H])([H])c3c([H])c([H])c([H])c([H])c3[H])C([H])([H])C2([H])[H])c([H])c1[H]
     RDKit          3D

 55 59  0  0  0  0  0  0  0  0999 V2000
   -0.4184    1.0500    3.3454 O   0  0  0  0  0  0  0  0  0  0  0  0
   -0.3145    0.3786    2.2625 C   0  0  0  0  0  0  0  0  0  0  0  0
   -1.2946   -0.0558    1.4163 O   0  0  0  0  0  0  0  0  0  0  0  0
   -0.7400   -0.7504    0.3575 C   0  0  0  0  0  0  0  0  0  0  0  0
   -0.9757    0.1179   -0.8939 C   0  0  0  0  0  0  0  0  0  0  0  0
   -2.4560    0.4239   -0.9041 C   0  0  0  0  0  0  0  0  0  0  0  0
   -3.1669   -0.7800   -0.8038 N   0  0  0  0  0  0  0  0  0  0  0  0
   -4.3350   -0.7906   -0.0008 C   0  0  0  0  0  0  0  0  0  0  0  0
   -5.4012    0.1138   -0.4235 C   0  0  0  0  0  0  0  0  0  0  0  0
   -5.5451    0.6206   -1.7109 C   0  0  0  0  0  0  0  0  0  0  0  0
   -6.5693    1.4751   -2.0495 C   0  0  0  0  0  0  0  0  0  0  0  0
   -7.5027    1.8670   -1.1195 C   0  0  0  0  0  0  0  0  0  0  0  0
   -7.3642    1.3628    0.1711 C   0  0  0  0  0  0  0  0  0  0  0  0
   -6.3476    0.5094    0.5244 C   0  0  0  0  0  0  0  0  0  0  0  0
   -2.4608   -2.0093   -0.8952 C   0  0  0  0  0  0  0  0  0  0  0  0
   -1.3290   -2.1134    0.1297 C   0  0  0  0  0  0  0  0  0  0  0  0
    0.7065   -0.7515    0.5574 C   0  0  0  0  0  0  0  0  0  0  0  0
    1.7783   -1.2810   -0.1592 C   0  0  0  0  0  0  0  0  0  0  0  0
    3.0760   -1.1264    0.2737 C   0  0  0  0  0  0  0  0  0  0  0  0
    4.0953   -1.6675   -0.4655 O   0  0  0  0  0  0  0  0  0  0  0  0
    5.4520   -1.6106   -0.2175 C   0  0  0  0  0  0  0  0  0  0  0  0
    5.9222   -0.2067   -0.2518 C   0  0  0  0  0  0  0  0  0  0  0  0
    5.2603    0.7971   -0.9223 C   0  0  0  0  0  0  0  0  0  0  0  0
    5.6937    2.0926   -0.9568 C   0  0  0  0  0  0  0  0  0  0  0  0
    6.8667    2.3928   -0.2729 C   0  0  0  0  0  0  0  0  0  0  0  0
    7.5638    1.4172    0.4134 C   0  0  0  0  0  0  0  0  0  0  0  0
    7.0998    0.1203    0.4286 C   0  0  0  0  0  0  0  0  0  0  0  0
    3.3167   -0.4278    1.4498 C   0  0  0  0  0  0  0  0  0  0  0  0
    2.2816    0.1075    2.1805 C   0  0  0  0  0  0  0  0  0  0  0  0
    0.9714   -0.0681    1.7111 C   0  0  0  0  0  0  0  0  0  0  0  0
   -0.4140    1.0655   -0.8024 H   0  0  0  0  0  0  0  0  0  0  0  0
   -0.7367   -0.4692   -1.7727 H   0  0  0  0  0  0  0  0  0  0  0  0
   -2.6191    0.9987   -1.8411 H   0  0  0  0  0  0  0  0  0  0  0  0
   -2.6203    1.1434   -0.0755 H   0  0  0  0  0  0  0  0  0  0  0  0
   -4.1216   -0.6011    1.0798 H   0  0  0  0  0  0  0  0  0  0  0  0
   -4.7555   -1.8365   -0.0323 H   0  0  0  0  0  0  0  0  0  0  0  0
   -4.8099    0.3088   -2.4502 H   0  0  0  0  0  0  0  0  0  0  0  0
   -6.6538    1.8505   -3.0540 H   0  0  0  0  0  0  0  0  0  0  0  0
   -8.3226    2.5370   -1.3458 H   0  0  0  0  0  0  0  0  0  0  0  0
   -8.1032    1.6764    0.8966 H   0  0  0  0  0  0  0  0  0  0  0  0
   -6.2476    0.1200    1.5373 H   0  0  0  0  0  0  0  0  0  0  0  0
   -3.1487   -2.8459   -0.7813 H   0  0  0  0  0  0  0  0  0  0  0  0
   -1.9811   -2.0657   -1.8915 H   0  0  0  0  0  0  0  0  0  0  0  0
   -1.7320   -2.5080    1.0806 H   0  0  0  0  0  0  0  0  0  0  0  0
   -0.5580   -2.7662   -0.3219 H   0  0  0  0  0  0  0  0  0  0  0  0
    1.5192   -1.8149   -1.0677 H   0  0  0  0  0  0  0  0  0  0  0  0
    5.7555   -2.0553    0.7554 H   0  0  0  0  0  0  0  0  0  0  0  0
    6.0231   -2.1456   -1.0165 H   0  0  0  0  0  0  0  0  0  0  0  0
    4.3535    0.5446   -1.4460 H   0  0  0  0  0  0  0  0  0  0  0  0
    5.2073    2.9101   -1.4688 H   0  0  0  0  0  0  0  0  0  0  0  0
    7.2314    3.4160   -0.2857 H   0  0  0  0  0  0  0  0  0  0  0  0
    8.4788    1.6338    0.9512 H   0  0  0  0  0  0  0  0  0  0  0  0
    7.6318   -0.6763    0.9650 H   0  0  0  0  0  0  0  0  0  0  0  0
    4.3222   -0.2878    1.8400 H   0  0  0  0  0  0  0  0  0  0  0  0
    2.4379    0.6604    3.1059 H   0  0  0  0  0  0  0  0  0  0  0  0
  1  2  2  0
  2  3  1  0
  3  4  1  0
  4  5  1  0
  5  6  1  0
  6  7  1  0
  7  8  1  0
  8  9  1  0
  9 10  2  0
 10 11  1  0
 11 12  2  0
 12 13  1  0
 13 14  2  0
  7 15  1  0
 15 16  1  0
  4 17  1  0
 17 18  2  0
 18 19  1  0
 19 20  1  0
 20 21  1  0
 21 22  1  0
 22 23  2  0
 23 24  1  0
 24 25  2  0
 25 26  1  0
 26 27  2  0
 19 28  2  0
 28 29  1  0
 29 30  2  0
 30  2  1  0
 16  4  1  0
 30 17  1  0
 14  9  1  0
 27 22  1  0
  5 31  1  0
  5 32  1  0
  6 33  1  0
  6 34  1  0
  8 35  1  0
  8 36  1  0
 10 37  1  0
 11 38  1  0
 12 39  1  0
 13 40  1  0
 14 41  1  0
 15 42  1  0
 15 43  1  0
 16 44  1  0
 16 45  1  0
 18 46  1  0
 21 47  1  0
 21 48  1  0
 23 49  1  0
 24 50  1  0
 25 51  1  0
 26 52  1  0
 27 53  1  0
 28 54  1  0
 29 55  1  0
M  END
$$$$
[H]OC(=O)C([H])([H])[C@@]([H])(C(=O)N([H])[C@]([H])(C(=O)O[H])C([H])([H])c1c([H])c([H])c(O[H])c([H])c1[H])N([H])C(=O)[C@@]([H])(N([H])C(=O)C([H])([H])[H])C([H])([H])C([H])(C([H])([H])[H])C([H])([H])[H]
     RDKit          3D

 61 61  0  0  0  0  0  0  0  0999 V2000
   -6.2985    1.9174   -1.1609 C   0  0  0  0  0  0  0  0  0  0  0  0
   -5.9320    1.4627    0.2521 C   0  0  0  0  0  0  0  0  0  0  0  0
   -6.9327    0.3972    0.6421 C   0  0  0  0  0  0  0  0  0  0  0  0
   -4.4924    1.0557    0.3513 C   0  0  0  0  0  0  0  0  0  0  0  0
   -4.0334   -0.0666   -0.4621 C   0  0  2  0  0  0  0  0  0  0  0  0
   -4.5840   -1.3647   -0.2434 N   0  0  0  0  0  0  0  0  0  0  0  0
   -3.9725   -2.5226    0.2679 C   0  0  0  0  0  0  0  0  0  0  0  0
   -4.7632   -3.8227    0.3803 C   0  0  0  0  0  0  0  0  0  0  0  0
   -2.7806   -2.5315    0.6418 O   0  0  0  0  0  0  0  0  0  0  0  0
   -2.5908   -0.0744   -0.7017 C   0  0  0  0  0  0  0  0  0  0  0  0
   -2.1206   -1.0269   -1.4349 O   0  0  0  0  0  0  0  0  0  0  0  0
   -1.6224    0.8598   -0.2180 N   0  0  0  0  0  0  0  0  0  0  0  0
   -0.2463    0.7139   -0.5842 C   0  0  1  0  0  0  0  0  0  0  0  0
    0.3044    2.0112   -1.0957 C   0  0  0  0  0  0  0  0  0  0  0  0
    0.2342    3.0949   -0.0929 C   0  0  0  0  0  0  0  0  0  0  0  0
    1.2453    3.3869    0.7839 O   0  0  0  0  0  0  0  0  0  0  0  0
   -0.8281    3.8178   -0.0151 O   0  0  0  0  0  0  0  0  0  0  0  0
    0.6558    0.1799    0.5124 C   0  0  0  0  0  0  0  0  0  0  0  0
    0.0472    0.1726    1.6430 O   0  0  0  0  0  0  0  0  0  0  0  0
    1.9078   -0.2562    0.2727 N   0  0  0  0  0  0  0  0  0  0  0  0
    3.1969   -0.7051    0.0259 C   0  0  1  0  0  0  0  0  0  0  0  0
    4.2291    0.3943    0.0313 C   0  0  0  0  0  0  0  0  0  0  0  0
    5.6172    0.0079   -0.1851 C   0  0  0  0  0  0  0  0  0  0  0  0
    6.4878   -0.0927    0.8995 C   0  0  0  0  0  0  0  0  0  0  0  0
    7.7954   -0.4499    0.7202 C   0  0  0  0  0  0  0  0  0  0  0  0
    8.3460   -0.7300   -0.5015 C   0  0  0  0  0  0  0  0  0  0  0  0
    9.6777   -1.0942   -0.6859 O   0  0  0  0  0  0  0  0  0  0  0  0
    7.4862   -0.6354   -1.6153 C   0  0  0  0  0  0  0  0  0  0  0  0
    6.1672   -0.2719   -1.4050 C   0  0  0  0  0  0  0  0  0  0  0  0
    3.6531   -1.9795    0.6298 C   0  0  0  0  0  0  0  0  0  0  0  0
    4.8625   -2.5892    0.3236 O   0  0  0  0  0  0  0  0  0  0  0  0
    2.8912   -2.5544    1.4761 O   0  0  0  0  0  0  0  0  0  0  0  0
   -6.1799    1.1279   -1.9140 H   0  0  0  0  0  0  0  0  0  0  0  0
   -7.3726    2.2471   -1.1020 H   0  0  0  0  0  0  0  0  0  0  0  0
   -5.6899    2.7883   -1.3949 H   0  0  0  0  0  0  0  0  0  0  0  0
   -6.0941    2.3398    0.9208 H   0  0  0  0  0  0  0  0  0  0  0  0
   -6.5770   -0.3119    1.3591 H   0  0  0  0  0  0  0  0  0  0  0  0
   -7.8204    0.9143    1.1257 H   0  0  0  0  0  0  0  0  0  0  0  0
   -7.4112   -0.0609   -0.2835 H   0  0  0  0  0  0  0  0  0  0  0  0
   -3.9155    1.9789    0.0127 H   0  0  0  0  0  0  0  0  0  0  0  0
   -4.2272    0.9908    1.4366 H   0  0  0  0  0  0  0  0  0  0  0  0
   -4.4385    0.2259   -1.5778 H   0  0  0  0  0  0  0  0  0  0  0  0
   -5.6136   -1.5037   -0.5237 H   0  0  0  0  0  0  0  0  0  0  0  0
   -5.5196   -3.8407   -0.4378 H   0  0  0  0  0  0  0  0  0  0  0  0
   -4.0486   -4.6322    0.2146 H   0  0  0  0  0  0  0  0  0  0  0  0
   -5.2943   -3.9028    1.3228 H   0  0  0  0  0  0  0  0  0  0  0  0
   -1.9505    1.6392    0.3772 H   0  0  0  0  0  0  0  0  0  0  0  0
   -0.1635   -0.1027   -1.3783 H   0  0  0  0  0  0  0  0  0  0  0  0
    1.2884    1.9314   -1.5371 H   0  0  0  0  0  0  0  0  0  0  0  0
   -0.4235    2.3224   -1.9224 H   0  0  0  0  0  0  0  0  0  0  0  0
    1.3102    4.2733    1.2665 H   0  0  0  0  0  0  0  0  0  0  0  0
    1.9924   -0.7117    1.5604 H   0  0  0  0  0  0  0  0  0  0  0  0
    3.1730   -1.0193   -1.1259 H   0  0  0  0  0  0  0  0  0  0  0  0
    3.9178    1.2256   -0.6308 H   0  0  0  0  0  0  0  0  0  0  0  0
    4.1214    0.8655    1.0671 H   0  0  0  0  0  0  0  0  0  0  0  0
    6.1436    0.1551    1.9220 H   0  0  0  0  0  0  0  0  0  0  0  0
    8.5105   -0.5283    1.5653 H   0  0  0  0  0  0  0  0  0  0  0  0
   10.4013   -0.4374   -0.8604 H   0  0  0  0  0  0  0  0  0  0  0  0
    7.8787   -0.8500   -2.5716 H   0  0  0  0  0  0  0  0  0  0  0  0
    5.4865   -0.2068   -2.2775 H   0  0  0  0  0  0  0  0  0  0  0  0
    4.9084   -3.6215    0.2868 H   0  0  0  0  0  0  0  0  0  0  0  0
  1  2  1  0
  2  3  1  0
  2  4  1  0
  4  5  1  0
  5  6  1  0
  6  7  1  0
  7  8  1  0
  7  9  2  0
  5 10  1  0
 10 11  2  0
 10 12  1  0
 12 13  1  0
 13 14  1  0
 14 15  1  0
 15 16  1  0
 15 17  2  0
 13 18  1  0
 18 19  2  0
 18 20  1  0
 20 21  1  0
 21 22  1  0
 22 23  1  0
 23 24  2  0
 24 25  1  0
 25 26  2  0
 26 27  1  0
 26 28  1  0
 28 29  2  0
 21 30  1  0
 30 31  1  0
 30 32  2  0
 29 23  1  0
  1 33  1  0
  1 34  1  0
  1 35  1  0
  2 36  1  0
  3 37  1  0
  3 38  1  0
  3 39  1  0
  4 40  1  0
  4 41  1  0
  5 42  1  6
  6 43  1  0
  8 44  1  0
  8 45  1  0
  8 46  1  0
 12 47  1  0
 13 48  1  6
 14 49  1  0
 14 50  1  0
 16 51  1  0
 20 52  1  0
 21 53  1  6
 22 54  1  0
 22 55  1  0
 24 56  1  0
 25 57  1  0
 27 58  1  0
 28 59  1  0
 29 60  1  0
 31 61  1  0
M  END
$$$$
[H]c1nc([H])c(-c2c([H])c3nc(N([H])C(=O)N([H])C([H])([H])C([H])([H])[H])sc3n(C([H])([H])C3([H])C([H])([H])C3([H])[H])c2=O)c([H])c1[H]
     RDKit          3D

 45 48  0  0  0  0  0  0  0  0999 V2000
    7.8675   -0.5977    1.1364 C   0  0  0  0  0  0  0  0  0  0  0  0
    6.4863   -1.0308    0.7062 C   0  0  0  0  0  0  0  0  0  0  0  0
    5.5014   -0.0337    1.0759 N   0  0  0  0  0  0  0  0  0  0  0  0
    4.1169   -0.1961    0.7854 C   0  0  0  0  0  0  0  0  0  0  0  0
    3.7765   -1.2529    0.1872 O   0  0  0  0  0  0  0  0  0  0  0  0
    3.2066    0.7878    1.1593 N   0  0  0  0  0  0  0  0  0  0  0  0
    1.8101    0.6196    0.8640 C   0  0  0  0  0  0  0  0  0  0  0  0
    1.2015   -0.3790    0.2560 N   0  0  0  0  0  0  0  0  0  0  0  0
   -0.0855   -0.3488    0.0798 C   0  0  0  0  0  0  0  0  0  0  0  0
   -0.9055   -1.3114   -0.5410 C   0  0  0  0  0  0  0  0  0  0  0  0
   -2.2570   -1.1677   -0.6681 C   0  0  0  0  0  0  0  0  0  0  0  0
   -3.0522   -2.2172   -1.3321 C   0  0  0  0  0  0  0  0  0  0  0  0
   -2.8653   -3.5438   -1.0377 C   0  0  0  0  0  0  0  0  0  0  0  0
   -3.6151   -4.5353   -1.6661 C   0  0  0  0  0  0  0  0  0  0  0  0
   -4.5634   -4.1812   -2.6016 C   0  0  0  0  0  0  0  0  0  0  0  0
   -4.7359   -2.8743   -2.8807 N   0  0  0  0  0  0  0  0  0  0  0  0
   -4.0040   -1.8979   -2.2681 C   0  0  0  0  0  0  0  0  0  0  0  0
   -2.8864   -0.0313   -0.1731 C   0  0  0  0  0  0  0  0  0  0  0  0
   -4.1149    0.1257   -0.2746 O   0  0  0  0  0  0  0  0  0  0  0  0
   -2.1176    0.8937    0.4206 N   0  0  0  0  0  0  0  0  0  0  0  0
   -2.7062    2.0980    0.9568 C   0  0  0  0  0  0  0  0  0  0  0  0
   -2.7573    3.2137   -0.0589 C   0  0  0  0  0  0  0  0  0  0  0  0
   -3.3789    4.5155    0.4753 C   0  0  0  0  0  0  0  0  0  0  0  0
   -1.8683    4.4045    0.3058 C   0  0  0  0  0  0  0  0  0  0  0  0
   -0.7637    0.7475    0.5466 C   0  0  0  0  0  0  0  0  0  0  0  0
    0.5130    1.6740    1.2169 S   0  0  0  0  0  0  0  0  0  0  0  0
    8.0930   -0.8848    2.1813 H   0  0  0  0  0  0  0  0  0  0  0  0
    8.0166    0.4971    0.9914 H   0  0  0  0  0  0  0  0  0  0  0  0
    8.6023   -1.1005    0.4616 H   0  0  0  0  0  0  0  0  0  0  0  0
    6.2616   -1.9671    1.2805 H   0  0  0  0  0  0  0  0  0  0  0  0
    6.4343   -1.2155   -0.3816 H   0  0  0  0  0  0  0  0  0  0  0  0
    5.8472    0.8380    1.5789 H   0  0  0  0  0  0  0  0  0  0  0  0
    3.4987    1.6410    1.6448 H   0  0  0  0  0  0  0  0  0  0  0  0
   -0.4651   -2.2239   -0.9481 H   0  0  0  0  0  0  0  0  0  0  0  0
   -2.1384   -3.8762   -0.3152 H   0  0  0  0  0  0  0  0  0  0  0  0
   -3.4866   -5.5843   -1.4517 H   0  0  0  0  0  0  0  0  0  0  0  0
   -5.1631   -4.9495   -3.1065 H   0  0  0  0  0  0  0  0  0  0  0  0
   -4.1692   -0.8766   -2.5167 H   0  0  0  0  0  0  0  0  0  0  0  0
   -2.1583    2.3763    1.8671 H   0  0  0  0  0  0  0  0  0  0  0  0
   -3.7574    1.8669    1.2293 H   0  0  0  0  0  0  0  0  0  0  0  0
   -2.9481    2.9911   -1.1070 H   0  0  0  0  0  0  0  0  0  0  0  0
   -3.7849    4.4974    1.5134 H   0  0  0  0  0  0  0  0  0  0  0  0
   -3.8510    5.1902   -0.2679 H   0  0  0  0  0  0  0  0  0  0  0  0
   -1.3897    4.9509   -0.5301 H   0  0  0  0  0  0  0  0  0  0  0  0
   -1.2443    4.3483    1.2059 H   0  0  0  0  0  0  0  0  0  0  0  0
  1  2  1  0
  2  3  1  0
  3  4  1  0
  4  5  2  0
  4  6  1  0
  6  7  1  0
  7  8  2  0
  8  9  1  0
  9 10  1  0
 10 11  2  0
 11 12  1  0
 12 13  2  0
 13 14  1  0
 14 15  2  0
 15 16  1  0
 16 17  2  0
 11 18  1  0
 18 19  2  0
 18 20  1  0
 20 21  1  0
 21 22  1  0
 22 23  1  0
 23 24  1  0
 20 25  1  0
 25 26  1  0
 26  7  1  0
 25  9  2  0
 17 12  1  0
 24 22  1  0
  1 27  1  0
  1 28  1  0
  1 29  1  0
  2 30  1  0
  2 31  1  0
  3 32  1  0
  6 33  1  0
 10 34  1  0
 13 35  1  0
 14 36  1  0
 15 37  1  0
 17 38  1  0
 21 39  1  0
 21 40  1  0
 22 41  1  0
 23 42  1  0
 23 43  1  0
 24 44  1  0
 24 45  1  0
M  END
$$$$
[H]O[C@@]([H])(C([H])([H])[H])[C@]([H])(c1nnc(-c2c([H])c([H])c([H])c([H])c2[H])o1)N([H])c1c([H])c([H])c([N+]#[C-])c(Cl)c1C([H])([H])[H]
     RDKit          3D

 43 45  0  0  0  0  0  0  0  0999 V2000
   -1.3834   -2.7110   -0.2442 C   0  0  0  0  0  0  0  0  0  0  0  0
   -0.2294   -1.7847   -0.1992 C   0  0  2  0  0  0  0  0  0  0  0  0
    0.2061   -1.7313    1.1495 O   0  0  0  0  0  0  0  0  0  0  0  0
   -0.4411   -0.3981   -0.7185 C   0  0  1  0  0  0  0  0  0  0  0  0
   -1.4147    0.3831   -0.0274 N   0  0  0  0  0  0  0  0  0  0  0  0
   -2.8164    0.3901   -0.2183 C   0  0  0  0  0  0  0  0  0  0  0  0
   -3.4697   -0.2143   -1.2691 C   0  0  0  0  0  0  0  0  0  0  0  0
   -4.8460   -0.1483   -1.4336 C   0  0  0  0  0  0  0  0  0  0  0  0
   -5.6397    0.5356   -0.5416 C   0  0  0  0  0  0  0  0  0  0  0  0
   -7.0123    0.5941   -0.7168 N   0  0  0  0  0  0  0  0  0  0  0  0
   -8.1546    0.6602   -0.8730 C   0  0  0  0  0  0  0  0  0  0  0  0
   -5.0083    1.1485    0.5164 C   0  0  0  0  0  0  0  0  0  0  0  0
   -6.0012    2.0241    1.6621 Cl  0  0  0  0  0  0  0  0  0  0  0  0
   -3.6452    1.0807    0.6764 C   0  0  0  0  0  0  0  0  0  0  0  0
   -2.9859    1.7533    1.8330 C   0  0  0  0  0  0  0  0  0  0  0  0
    0.9068    0.2712   -0.6961 C   0  0  0  0  0  0  0  0  0  0  0  0
    1.1040    1.5678   -0.9396 N   0  0  0  0  0  0  0  0  0  0  0  0
    2.4200    1.7977   -0.8305 N   0  0  0  0  0  0  0  0  0  0  0  0
    3.0183    0.6469   -0.5225 C   0  0  0  0  0  0  0  0  0  0  0  0
    2.0814   -0.2487   -0.4495 O   0  0  0  0  0  0  0  0  0  0  0  0
    4.4618    0.4506   -0.3105 C   0  0  0  0  0  0  0  0  0  0  0  0
    4.9459   -0.8071    0.0060 C   0  0  0  0  0  0  0  0  0  0  0  0
    6.2983   -1.0023    0.2070 C   0  0  0  0  0  0  0  0  0  0  0  0
    7.1784    0.0508    0.0949 C   0  0  0  0  0  0  0  0  0  0  0  0
    6.7076    1.3062   -0.2195 C   0  0  0  0  0  0  0  0  0  0  0  0
    5.3568    1.4882   -0.4176 C   0  0  0  0  0  0  0  0  0  0  0  0
   -2.1641   -2.4503    0.4933 H   0  0  0  0  0  0  0  0  0  0  0  0
   -1.0067   -3.7222    0.0554 H   0  0  0  0  0  0  0  0  0  0  0  0
   -1.7735   -2.8462   -1.2788 H   0  0  0  0  0  0  0  0  0  0  0  0
    0.6219   -2.3002   -0.7245 H   0  0  0  0  0  0  0  0  0  0  0  0
   -0.5527   -1.6094    1.7581 H   0  0  0  0  0  0  0  0  0  0  0  0
   -0.6763   -0.4843   -1.8224 H   0  0  0  0  0  0  0  0  0  0  0  0
   -1.0370    1.0430    0.7233 H   0  0  0  0  0  0  0  0  0  0  0  0
   -2.8895   -0.7489   -2.0093 H   0  0  0  0  0  0  0  0  0  0  0  0
   -5.3386   -0.6408   -2.2811 H   0  0  0  0  0  0  0  0  0  0  0  0
   -2.3179    1.0185    2.3421 H   0  0  0  0  0  0  0  0  0  0  0  0
   -3.7600    2.1177    2.5236 H   0  0  0  0  0  0  0  0  0  0  0  0
   -2.3437    2.5586    1.4185 H   0  0  0  0  0  0  0  0  0  0  0  0
    4.2460   -1.6339    0.0929 H   0  0  0  0  0  0  0  0  0  0  0  0
    6.6945   -1.9615    0.4516 H   0  0  0  0  0  0  0  0  0  0  0  0
    8.2497   -0.0477    0.2426 H   0  0  0  0  0  0  0  0  0  0  0  0
    7.4208    2.1382   -0.3060 H   0  0  0  0  0  0  0  0  0  0  0  0
    4.9897    2.4660   -0.6626 H   0  0  0  0  0  0  0  0  0  0  0  0
  1  2  1  0
  2  3  1  0
  2  4  1  0
  4  5  1  0
  5  6  1  0
  6  7  2  0
  7  8  1  0
  8  9  2  0
  9 10  1  0
 10 11  3  0
  9 12  1  0
 12 13  1  0
 12 14  2  0
 14 15  1  0
  4 16  1  0
 16 17  2  0
 17 18  1  0
 18 19  2  0
 19 20  1  0
 19 21  1  0
 21 22  2  0
 22 23  1  0
 23 24  2  0
 24 25  1  0
 25 26  2  0
 14  6  1  0
 20 16  1  0
 26 21  1  0
  1 27  1  0
  1 28  1  0
  1 29  1  0
  2 30  1  6
  3 31  1  0
  4 32  1  6
  5 33  1  0
  7 34  1  0
  8 35  1  0
 15 36  1  0
 15 37  1  0
 15 38  1  0
 22 39  1  0
 23 40  1  0
 24 41  1  0
 25 42  1  0
 26 43  1  0
M  CHG  2  10   1  11  -1
M  END
$$$$
[H]Oc1c([H])c([H])c(-c2nc3c([H])c(O[H])c([H])c(Br)c3o2)c([H])c1[H]
     RDKit          3D

 26 28  0  0  0  0  0  0  0  0999 V2000
    5.7545    0.5448    0.6543 O   0  0  0  0  0  0  0  0  0  0  0  0
    4.3758    0.4166    0.4486 C   0  0  0  0  0  0  0  0  0  0  0  0
    3.8252    0.6280   -0.7835 C   0  0  0  0  0  0  0  0  0  0  0  0
    2.4478    0.4934   -0.9603 C   0  0  0  0  0  0  0  0  0  0  0  0
    1.6538    0.1525    0.0909 C   0  0  0  0  0  0  0  0  0  0  0  0
    2.2448   -0.0527    1.3180 C   0  0  0  0  0  0  0  0  0  0  0  0
    3.5921    0.0680    1.5391 C   0  0  0  0  0  0  0  0  0  0  0  0
    0.1932   -0.0044   -0.0348 C   0  0  0  0  0  0  0  0  0  0  0  0
   -0.5336    0.1591   -1.1548 N   0  0  0  0  0  0  0  0  0  0  0  0
   -1.8464   -0.0671   -0.8945 C   0  0  0  0  0  0  0  0  0  0  0  0
   -3.0040   -0.0494   -1.6159 C   0  0  0  0  0  0  0  0  0  0  0  0
   -4.2452   -0.3281   -1.0863 C   0  0  0  0  0  0  0  0  0  0  0  0
   -5.4132   -0.3037   -1.8429 O   0  0  0  0  0  0  0  0  0  0  0  0
   -4.2810   -0.6421    0.2684 C   0  0  0  0  0  0  0  0  0  0  0  0
   -3.1203   -0.6649    1.0140 C   0  0  0  0  0  0  0  0  0  0  0  0
   -3.2196   -1.0993    2.8608 Br  0  0  0  0  0  0  0  0  0  0  0  0
   -1.8828   -0.3785    0.4486 C   0  0  0  0  0  0  0  0  0  0  0  0
   -0.6552   -0.3277    0.9090 O   0  0  0  0  0  0  0  0  0  0  0  0
    6.1788    0.3929    1.5551 H   0  0  0  0  0  0  0  0  0  0  0  0
    4.4213    0.8975   -1.6316 H   0  0  0  0  0  0  0  0  0  0  0  0
    1.9839    0.6545   -1.9237 H   0  0  0  0  0  0  0  0  0  0  0  0
    1.6169   -0.3235    2.1546 H   0  0  0  0  0  0  0  0  0  0  0  0
    4.0143   -0.1040    2.5270 H   0  0  0  0  0  0  0  0  0  0  0  0
   -2.9494    0.1969   -2.6640 H   0  0  0  0  0  0  0  0  0  0  0  0
   -5.8981    0.6015   -1.8782 H   0  0  0  0  0  0  0  0  0  0  0  0
   -5.2538   -0.8601    0.6821 H   0  0  0  0  0  0  0  0  0  0  0  0
  1  2  1  0
  2  3  2  0
  3  4  1  0
  4  5  2  0
  5  6  1  0
  6  7  2  0
  5  8  1  0
  8  9  2  0
  9 10  1  0
 10 11  2  0
 11 12  1  0
 12 13  1  0
 12 14  2  0
 14 15  1  0
 15 16  1  0
 15 17  2  0
 17 18  1  0
  7  2  1  0
 18  8  1  0
 17 10  1  0
  1 19  1  0
  3 20  1  0
  4 21  1  0
  6 22  1  0
  7 23  1  0
 11 24  1  0
 13 25  1  0
 14 26  1  0
M  END
$$$$
[H]c1nc(N([H])c2c([H])c([H])c(N3C([H])([H])C([H])([H])C([H])(N4C([H])([H])C([H])([H])N(C([H])([H])[H])C([H])([H])C4([H])[H])C([H])([H])C3([H])[H])c([H])c2OC([H])([H])[H])nc(N([H])c2c([H])c([H])c([H])c([H])c2S(=O)(=O)C([H])(C([H])([H])[H])C([H])([H])[H])c1Cl
     RDKit          3D

 82 86  0  0  0  0  0  0  0  0999 V2000
   -0.1870    3.7228   -1.2569 C   0  0  0  0  0  0  0  0  0  0  0  0
    0.4390    2.5297   -0.8437 O   0  0  0  0  0  0  0  0  0  0  0  0
   -0.3483    1.4775   -0.4024 C   0  0  0  0  0  0  0  0  0  0  0  0
   -1.7220    1.6350   -0.3827 C   0  0  0  0  0  0  0  0  0  0  0  0
   -2.5624    0.6308    0.0436 C   0  0  0  0  0  0  0  0  0  0  0  0
   -1.9599   -0.5357    0.4478 C   0  0  0  0  0  0  0  0  0  0  0  0
   -0.5748   -0.7280    0.4408 C   0  0  0  0  0  0  0  0  0  0  0  0
    0.2576    0.2764    0.0150 C   0  0  0  0  0  0  0  0  0  0  0  0
    1.6540    0.2011   -0.0367 N   0  0  0  0  0  0  0  0  0  0  0  0
    2.4984   -0.8842    0.3177 C   0  0  0  0  0  0  0  0  0  0  0  0
    2.1033   -2.0726    0.7812 N   0  0  0  0  0  0  0  0  0  0  0  0
    2.9559   -3.0558    1.0957 C   0  0  0  0  0  0  0  0  0  0  0  0
    4.3092   -2.8632    0.9451 C   0  0  0  0  0  0  0  0  0  0  0  0
    5.4455   -4.1449    1.3534 Cl  0  0  0  0  0  0  0  0  0  0  0  0
    4.7527   -1.6166    0.4572 C   0  0  0  0  0  0  0  0  0  0  0  0
    6.1380   -1.4466    0.3110 N   0  0  0  0  0  0  0  0  0  0  0  0
    6.9009   -0.3576   -0.1368 C   0  0  0  0  0  0  0  0  0  0  0  0
    6.2766    0.8084   -0.5266 C   0  0  0  0  0  0  0  0  0  0  0  0
    7.0240    1.9039   -0.9778 C   0  0  0  0  0  0  0  0  0  0  0  0
    8.3820    1.8034   -1.0274 C   0  0  0  0  0  0  0  0  0  0  0  0
    9.0024    0.6381   -0.6374 C   0  0  0  0  0  0  0  0  0  0  0  0
    8.2961   -0.4485   -0.1920 C   0  0  0  0  0  0  0  0  0  0  0  0
    9.0842   -1.8926    0.2913 S   0  0  0  0  0  0  0  0  0  0  0  0
    8.6633   -3.0312   -0.6035 O   0  0  0  0  0  0  0  0  0  0  0  0
    8.8235   -2.3045    1.7132 O   0  0  0  0  0  0  0  0  0  0  0  0
   10.8572   -1.7881    0.1370 C   0  0  0  0  0  0  0  0  0  0  0  0
   11.2609   -1.6791   -1.2975 C   0  0  0  0  0  0  0  0  0  0  0  0
   11.4760   -0.7869    1.0544 C   0  0  0  0  0  0  0  0  0  0  0  0
    3.8248   -0.7008    0.1721 N   0  0  0  0  0  0  0  0  0  0  0  0
   -3.9818    0.8060    0.0512 N   0  0  0  0  0  0  0  0  0  0  0  0
   -4.5241    1.9609   -0.5784 C   0  0  0  0  0  0  0  0  0  0  0  0
   -6.0011    1.9283   -0.8544 C   0  0  0  0  0  0  0  0  0  0  0  0
   -6.8245    1.3726    0.2584 C   0  0  0  0  0  0  0  0  0  0  0  0
   -6.0036    0.6088    1.2781 C   0  0  0  0  0  0  0  0  0  0  0  0
   -4.8657   -0.1463    0.6796 C   0  0  0  0  0  0  0  0  0  0  0  0
   -7.9560    0.6086   -0.0875 N   0  0  0  0  0  0  0  0  0  0  0  0
   -7.7905   -0.5856   -0.8057 C   0  0  0  0  0  0  0  0  0  0  0  0
   -9.1362   -1.0235   -1.3907 C   0  0  0  0  0  0  0  0  0  0  0  0
  -10.1390   -0.8718   -0.3544 N   0  0  0  0  0  0  0  0  0  0  0  0
  -10.0361   -1.8235    0.7053 C   0  0  0  0  0  0  0  0  0  0  0  0
  -10.3349    0.4834    0.0484 C   0  0  0  0  0  0  0  0  0  0  0  0
   -9.1475    1.3193   -0.4248 C   0  0  0  0  0  0  0  0  0  0  0  0
    0.5375    4.4499   -1.6799 H   0  0  0  0  0  0  0  0  0  0  0  0
   -0.9481    3.5330   -2.0530 H   0  0  0  0  0  0  0  0  0  0  0  0
   -0.6880    4.2523   -0.4156 H   0  0  0  0  0  0  0  0  0  0  0  0
   -2.1476    2.5764   -0.7105 H   0  0  0  0  0  0  0  0  0  0  0  0
   -2.6020   -1.3517    0.7883 H   0  0  0  0  0  0  0  0  0  0  0  0
   -0.2121   -1.6859    0.7807 H   0  0  0  0  0  0  0  0  0  0  0  0
    2.1500    1.0935   -0.3956 H   0  0  0  0  0  0  0  0  0  0  0  0
    2.6174   -4.0222    1.4737 H   0  0  0  0  0  0  0  0  0  0  0  0
    6.7215   -2.3022    0.5911 H   0  0  0  0  0  0  0  0  0  0  0  0
    5.2202    0.9989   -0.5296 H   0  0  0  0  0  0  0  0  0  0  0  0
    6.5603    2.8305   -1.2896 H   0  0  0  0  0  0  0  0  0  0  0  0
    9.0220    2.6252   -1.3712 H   0  0  0  0  0  0  0  0  0  0  0  0
   10.0936    0.6299   -0.7052 H   0  0  0  0  0  0  0  0  0  0  0  0
   11.2252   -2.8031    0.4806 H   0  0  0  0  0  0  0  0  0  0  0  0
   11.9033   -0.7785   -1.4926 H   0  0  0  0  0  0  0  0  0  0  0  0
   10.3307   -1.5514   -1.9199 H   0  0  0  0  0  0  0  0  0  0  0  0
   11.7765   -2.5763   -1.6995 H   0  0  0  0  0  0  0  0  0  0  0  0
   12.0225   -1.2557    1.8769 H   0  0  0  0  0  0  0  0  0  0  0  0
   12.1781   -0.1622    0.4319 H   0  0  0  0  0  0  0  0  0  0  0  0
   10.7434   -0.0899    1.5079 H   0  0  0  0  0  0  0  0  0  0  0  0
   -4.2803    2.8410    0.0525 H   0  0  0  0  0  0  0  0  0  0  0  0
   -3.9354    2.1199   -1.5269 H   0  0  0  0  0  0  0  0  0  0  0  0
   -6.3084    2.9635   -1.1164 H   0  0  0  0  0  0  0  0  0  0  0  0
   -6.1470    1.3325   -1.7818 H   0  0  0  0  0  0  0  0  0  0  0  0
   -7.2139    2.2642    0.8421 H   0  0  0  0  0  0  0  0  0  0  0  0
   -6.6586   -0.1075    1.8153 H   0  0  0  0  0  0  0  0  0  0  0  0
   -5.5929    1.2907    2.0626 H   0  0  0  0  0  0  0  0  0  0  0  0
   -5.1731   -0.8869   -0.0780 H   0  0  0  0  0  0  0  0  0  0  0  0
   -4.3121   -0.6097    1.5260 H   0  0  0  0  0  0  0  0  0  0  0  0
   -7.5080   -1.4012   -0.0997 H   0  0  0  0  0  0  0  0  0  0  0  0
   -7.0082   -0.5774   -1.5870 H   0  0  0  0  0  0  0  0  0  0  0  0
   -9.4445   -0.3742   -2.2343 H   0  0  0  0  0  0  0  0  0  0  0  0
   -9.0261   -2.0597   -1.7202 H   0  0  0  0  0  0  0  0  0  0  0  0
   -9.1822   -2.5377    0.5321 H   0  0  0  0  0  0  0  0  0  0  0  0
   -9.9814   -1.3564    1.7041 H   0  0  0  0  0  0  0  0  0  0  0  0
  -10.9456   -2.4645    0.6802 H   0  0  0  0  0  0  0  0  0  0  0  0
  -11.2261    0.8855   -0.4545 H   0  0  0  0  0  0  0  0  0  0  0  0
  -10.4517    0.5517    1.1515 H   0  0  0  0  0  0  0  0  0  0  0  0
   -9.2778    1.5186   -1.4917 H   0  0  0  0  0  0  0  0  0  0  0  0
   -9.1611    2.2698    0.1783 H   0  0  0  0  0  0  0  0  0  0  0  0
  1  2  1  0
  2  3  1  0
  3  4  2  0
  4  5  1  0
  5  6  2  0
  6  7  1  0
  7  8  2  0
  8  9  1  0
  9 10  1  0
 10 11  2  0
 11 12  1  0
 12 13  2  0
 13 14  1  0
 13 15  1  0
 15 16  1  0
 16 17  1  0
 17 18  2  0
 18 19  1  0
 19 20  2  0
 20 21  1  0
 21 22  2  0
 22 23  1  0
 23 24  2  0
 23 25  2  0
 23 26  1  0
 26 27  1  0
 26 28  1  0
 15 29  2  0
  5 30  1  0
 30 31  1  0
 31 32  1  0
 32 33  1  0
 33 34  1  0
 34 35  1  0
 33 36  1  0
 36 37  1  0
 37 38  1  0
 38 39  1  0
 39 40  1  0
 39 41  1  0
 41 42  1  0
  8  3  1  0
 29 10  1  0
 35 30  1  0
 42 36  1  0
 22 17  1  0
  1 43  1  0
  1 44  1  0
  1 45  1  0
  4 46  1  0
  6 47  1  0
  7 48  1  0
  9 49  1  0
 12 50  1  0
 16 51  1  0
 18 52  1  0
 19 53  1  0
 20 54  1  0
 21 55  1  0
 26 56  1  0
 27 57  1  0
 27 58  1  0
 27 59  1  0
 28 60  1  0
 28 61  1  0
 28 62  1  0
 31 63  1  0
 31 64  1  0
 32 65  1  0
 32 66  1  0
 33 67  1  0
 34 68  1  0
 34 69  1  0
 35 70  1  0
 35 71  1  0
 37 72  1  0
 37 73  1  0
 38 74  1  0
 38 75  1  0
 40 76  1  0
 40 77  1  0
 40 78  1  0
 41 79  1  0
 41 80  1  0
 42 81  1  0
 42 82  1  0
M  END
$$$$
[H]c1nc2c(N3C([H])([H])C([H])([H])OC([H])([H])C3([H])[H])c([H])c(-c3c([H])c(N([H])C(=O)c4c([H])c([H])c([H])c(C(F)(F)F)c4[H])c([H])c([H])c3C([H])([H])[H])nn2c1[H]
     RDKit          3D

 57 61  0  0  0  0  0  0  0  0999 V2000
   -1.1930    1.7150    1.7598 C   0  0  0  0  0  0  0  0  0  0  0  0
   -0.1493    1.3642    0.7676 C   0  0  0  0  0  0  0  0  0  0  0  0
    1.0387    2.0661    0.7756 C   0  0  0  0  0  0  0  0  0  0  0  0
    2.0862    1.6926   -0.0519 C   0  0  0  0  0  0  0  0  0  0  0  0
    1.9407    0.5757   -0.9091 C   0  0  0  0  0  0  0  0  0  0  0  0
    3.1822    0.2428   -1.5970 N   0  0  0  0  0  0  0  0  0  0  0  0
    4.3088    0.0937   -0.8030 C   0  0  0  0  0  0  0  0  0  0  0  0
    3.9902    0.2108    0.5205 O   0  0  0  0  0  0  0  0  0  0  0  0
    5.6860   -0.1352   -0.9604 C   0  0  0  0  0  0  0  0  0  0  0  0
    6.2937   -0.8878   -1.9514 C   0  0  0  0  0  0  0  0  0  0  0  0
    7.6331   -1.0650   -2.0427 C   0  0  0  0  0  0  0  0  0  0  0  0
    8.4822   -0.4731   -1.1058 C   0  0  0  0  0  0  0  0  0  0  0  0
    7.9484    0.2870   -0.0933 C   0  0  0  0  0  0  0  0  0  0  0  0
    6.6027    0.4411   -0.0451 C   0  0  0  0  0  0  0  0  0  0  0  0
    8.7868    0.9302    0.9911 C   0  0  0  0  0  0  0  0  0  0  0  0
   10.0643    0.4604    0.9355 F   0  0  0  0  0  0  0  0  0  0  0  0
    8.7307    2.3163    0.8363 F   0  0  0  0  0  0  0  0  0  0  0  0
    8.2474    0.6495    2.2043 F   0  0  0  0  0  0  0  0  0  0  0  0
    0.7722   -0.0927   -0.8954 C   0  0  0  0  0  0  0  0  0  0  0  0
   -0.2757    0.2524   -0.0987 C   0  0  0  0  0  0  0  0  0  0  0  0
   -1.5138   -0.5146    0.0116 C   0  0  0  0  0  0  0  0  0  0  0  0
   -2.7617    0.0866   -0.1449 C   0  0  0  0  0  0  0  0  0  0  0  0
   -3.9316   -0.6317    0.0209 C   0  0  0  0  0  0  0  0  0  0  0  0
   -5.1879   -0.0427   -0.1809 N   0  0  0  0  0  0  0  0  0  0  0  0
   -6.4180   -0.7114    0.2268 C   0  0  0  0  0  0  0  0  0  0  0  0
   -7.6344    0.1647    0.0241 C   0  0  0  0  0  0  0  0  0  0  0  0
   -7.4891    1.4282    0.5529 O   0  0  0  0  0  0  0  0  0  0  0  0
   -6.2357    1.9976    0.3052 C   0  0  0  0  0  0  0  0  0  0  0  0
   -5.4317    1.2701   -0.7519 C   0  0  0  0  0  0  0  0  0  0  0  0
   -3.8096   -1.9783    0.3536 C   0  0  0  0  0  0  0  0  0  0  0  0
   -4.7389   -2.9531    0.6222 N   0  0  0  0  0  0  0  0  0  0  0  0
   -4.0808   -4.0967    0.9275 C   0  0  0  0  0  0  0  0  0  0  0  0
   -2.7373   -3.8047    0.8461 C   0  0  0  0  0  0  0  0  0  0  0  0
   -2.5949   -2.4954    0.4896 N   0  0  0  0  0  0  0  0  0  0  0  0
   -1.4805   -1.8064    0.3239 N   0  0  0  0  0  0  0  0  0  0  0  0
   -1.5206    0.7286    2.2911 H   0  0  0  0  0  0  0  0  0  0  0  0
   -0.6496    2.3305    2.5469 H   0  0  0  0  0  0  0  0  0  0  0  0
   -2.0488    2.2415    1.4028 H   0  0  0  0  0  0  0  0  0  0  0  0
    1.1825    2.9308    1.4408 H   0  0  0  0  0  0  0  0  0  0  0  0
    2.9598    2.3126   -0.0613 H   0  0  0  0  0  0  0  0  0  0  0  0
    3.1597    0.1762   -2.6268 H   0  0  0  0  0  0  0  0  0  0  0  0
    5.6245   -1.3343   -2.6912 H   0  0  0  0  0  0  0  0  0  0  0  0
    8.1626   -1.6445   -2.8169 H   0  0  0  0  0  0  0  0  0  0  0  0
    9.5438   -0.5749   -1.1403 H   0  0  0  0  0  0  0  0  0  0  0  0
    6.1845    1.0269    0.7500 H   0  0  0  0  0  0  0  0  0  0  0  0
    0.6551   -0.9497   -1.5605 H   0  0  0  0  0  0  0  0  0  0  0  0
   -2.7672    1.1497   -0.4147 H   0  0  0  0  0  0  0  0  0  0  0  0
   -6.3474   -1.0058    1.2642 H   0  0  0  0  0  0  0  0  0  0  0  0
   -6.5719   -1.5582   -0.5134 H   0  0  0  0  0  0  0  0  0  0  0  0
   -8.4882   -0.3311    0.5250 H   0  0  0  0  0  0  0  0  0  0  0  0
   -7.9038    0.1740   -1.0900 H   0  0  0  0  0  0  0  0  0  0  0  0
   -5.6473    2.0296    1.2539 H   0  0  0  0  0  0  0  0  0  0  0  0
   -6.4411    3.0274   -0.0011 H   0  0  0  0  0  0  0  0  0  0  0  0
   -6.1194    1.2034   -1.6547 H   0  0  0  0  0  0  0  0  0  0  0  0
   -4.5508    1.8520   -0.9556 H   0  0  0  0  0  0  0  0  0  0  0  0
   -4.5992   -5.0120    1.1467 H   0  0  0  0  0  0  0  0  0  0  0  0
   -1.9476   -4.4620    1.0414 H   0  0  0  0  0  0  0  0  0  0  0  0
  1  2  1  0
  2  3  2  0
  3  4  1  0
  4  5  2  0
  5  6  1  0
  6  7  1  0
  7  8  2  0
  7  9  1  0
  9 10  2  0
 10 11  1  0
 11 12  2  0
 12 13  1  0
 13 14  2  0
 13 15  1  0
 15 16  1  0
 15 17  1  0
 15 18  1  0
  5 19  1  0
 19 20  2  0
 20 21  1  0
 21 22  1  0
 22 23  2  0
 23 24  1  0
 24 25  1  0
 25 26  1  0
 26 27  1  0
 27 28  1  0
 28 29  1  0
 23 30  1  0
 30 31  2  0
 31 32  1  0
 32 33  2  0
 33 34  1  0
 34 35  1  0
 20  2  1  0
 35 21  2  0
 14  9  1  0
 29 24  1  0
 34 30  1  0
  1 36  1  0
  1 37  1  0
  1 38  1  0
  3 39  1  0
  4 40  1  0
  6 41  1  0
 10 42  1  0
 11 43  1  0
 12 44  1  0
 14 45  1  0
 19 46  1  0
 22 47  1  0
 25 48  1  0
 25 49  1  0
 26 50  1  0
 26 51  1  0
 28 52  1  0
 28 53  1  0
 29 54  1  0
 29 55  1  0
 32 56  1  0
 33 57  1  0
M  END
$$$$
[H]c1nc2c(C([H])([H])[H])c(C([H])([H])[H])c(-c3c(C([H])(C([H])([H])[H])C([H])([H])[H])c4c([H])c(C5([H])C([H])([H])C([H])([H])N(C(=O)C([H])([H])[H])C([H])([H])C5([H])[H])c([H])c([H])c4n3[H])c([H])n2n1
     RDKit          3D

 63 67  0  0  0  0  0  0  0  0999 V2000
   -0.2665    1.2001    2.5381 C   0  0  0  0  0  0  0  0  0  0  0  0
   -1.0573    1.4151    1.2710 C   0  0  0  0  0  0  0  0  0  0  0  0
   -2.0191    2.5368    1.2828 C   0  0  0  0  0  0  0  0  0  0  0  0
   -1.2210    0.2522    0.4314 C   0  0  0  0  0  0  0  0  0  0  0  0
   -2.3154   -0.4019   -0.1392 C   0  0  0  0  0  0  0  0  0  0  0  0
   -1.8924   -1.3097   -1.0318 N   0  0  0  0  0  0  0  0  0  0  0  0
   -0.5250   -1.2954   -1.0932 C   0  0  0  0  0  0  0  0  0  0  0  0
    0.3361   -2.0210   -1.8811 C   0  0  0  0  0  0  0  0  0  0  0  0
    1.6855   -1.8065   -1.8027 C   0  0  0  0  0  0  0  0  0  0  0  0
    2.1496   -0.8269   -0.9024 C   0  0  0  0  0  0  0  0  0  0  0  0
    1.2543   -0.1347   -0.1409 C   0  0  0  0  0  0  0  0  0  0  0  0
   -0.1191   -0.3529   -0.2091 C   0  0  0  0  0  0  0  0  0  0  0  0
    3.6164   -0.6295   -0.8711 C   0  0  0  0  0  0  0  0  0  0  0  0
    4.1903   -1.5456    0.2195 C   0  0  0  0  0  0  0  0  0  0  0  0
    4.9546   -0.6342    1.1652 C   0  0  0  0  0  0  0  0  0  0  0  0
    5.9803    0.0008    0.3653 N   0  0  0  0  0  0  0  0  0  0  0  0
    5.5471    0.9150   -0.6533 C   0  0  0  0  0  0  0  0  0  0  0  0
    4.0032    0.7923   -0.6970 C   0  0  0  0  0  0  0  0  0  0  0  0
    7.3417   -0.2634    0.5636 C   0  0  0  0  0  0  0  0  0  0  0  0
    8.3593    0.3980   -0.2667 C   0  0  0  0  0  0  0  0  0  0  0  0
    7.6729   -1.0872    1.4874 O   0  0  0  0  0  0  0  0  0  0  0  0
   -3.7040   -0.1467    0.1384 C   0  0  0  0  0  0  0  0  0  0  0  0
   -4.1742    0.1625    1.3898 C   0  0  0  0  0  0  0  0  0  0  0  0
   -5.4664    0.4365    1.6186 N   0  0  0  0  0  0  0  0  0  0  0  0
   -6.1287    0.7863    2.7234 N   0  0  0  0  0  0  0  0  0  0  0  0
   -7.4333    0.9932    2.4627 C   0  0  0  0  0  0  0  0  0  0  0  0
   -7.5686    0.7526    1.1219 N   0  0  0  0  0  0  0  0  0  0  0  0
   -6.3477    0.4053    0.5896 C   0  0  0  0  0  0  0  0  0  0  0  0
   -5.9847    0.1054   -0.6960 C   0  0  0  0  0  0  0  0  0  0  0  0
   -7.0324    0.0085   -1.7137 C   0  0  0  0  0  0  0  0  0  0  0  0
   -4.6367   -0.1677   -0.9027 C   0  0  0  0  0  0  0  0  0  0  0  0
   -4.2583   -0.3840   -2.3307 C   0  0  0  0  0  0  0  0  0  0  0  0
   -0.9949    0.8922    3.3742 H   0  0  0  0  0  0  0  0  0  0  0  0
    0.1890    2.1392    2.8671 H   0  0  0  0  0  0  0  0  0  0  0  0
    0.4669    0.4289    2.3931 H   0  0  0  0  0  0  0  0  0  0  0  0
   -0.1516    1.9993    0.6597 H   0  0  0  0  0  0  0  0  0  0  0  0
   -1.4963    3.5748    1.2359 H   0  0  0  0  0  0  0  0  0  0  0  0
   -2.6641    2.5996    0.3820 H   0  0  0  0  0  0  0  0  0  0  0  0
   -2.5377    2.6092    2.2456 H   0  0  0  0  0  0  0  0  0  0  0  0
   -2.4342   -2.0030   -1.6268 H   0  0  0  0  0  0  0  0  0  0  0  0
   -0.0598   -2.7866   -2.5932 H   0  0  0  0  0  0  0  0  0  0  0  0
    2.3834   -2.3829   -2.4075 H   0  0  0  0  0  0  0  0  0  0  0  0
    1.6157    0.6318    0.5490 H   0  0  0  0  0  0  0  0  0  0  0  0
    4.0743   -1.0048   -1.8280 H   0  0  0  0  0  0  0  0  0  0  0  0
    4.8824   -2.2891   -0.1956 H   0  0  0  0  0  0  0  0  0  0  0  0
    3.3953   -2.0482    0.7566 H   0  0  0  0  0  0  0  0  0  0  0  0
    4.2753    0.0525    1.6616 H   0  0  0  0  0  0  0  0  0  0  0  0
    5.4646   -1.3286    1.8967 H   0  0  0  0  0  0  0  0  0  0  0  0
    5.9961    0.6985   -1.6289 H   0  0  0  0  0  0  0  0  0  0  0  0
    5.7474    1.9562   -0.3432 H   0  0  0  0  0  0  0  0  0  0  0  0
    3.6074    1.3883   -1.5560 H   0  0  0  0  0  0  0  0  0  0  0  0
    3.6496    1.2934    0.2039 H   0  0  0  0  0  0  0  0  0  0  0  0
    8.8112   -0.3685   -0.9619 H   0  0  0  0  0  0  0  0  0  0  0  0
    9.1696    0.7324    0.4272 H   0  0  0  0  0  0  0  0  0  0  0  0
    7.9095    1.2375   -0.8039 H   0  0  0  0  0  0  0  0  0  0  0  0
   -3.5019    0.1771    2.2684 H   0  0  0  0  0  0  0  0  0  0  0  0
   -8.2017    1.2980    3.1469 H   0  0  0  0  0  0  0  0  0  0  0  0
   -6.6254   -0.4209   -2.6719 H   0  0  0  0  0  0  0  0  0  0  0  0
   -7.5616    0.9629   -1.8782 H   0  0  0  0  0  0  0  0  0  0  0  0
   -7.7722   -0.7920   -1.3919 H   0  0  0  0  0  0  0  0  0  0  0  0
   -4.4599   -1.4097   -2.6548 H   0  0  0  0  0  0  0  0  0  0  0  0
   -4.8858    0.2882   -2.9933 H   0  0  0  0  0  0  0  0  0  0  0  0
   -3.2312   -0.0186   -2.5698 H   0  0  0  0  0  0  0  0  0  0  0  0
  1  2  1  0
  2  3  1  0
  2  4  1  0
  4  5  2  0
  5  6  1  0
  6  7  1  0
  7  8  2  0
  8  9  1  0
  9 10  2  0
 10 11  1  0
 11 12  2  0
 10 13  1  0
 13 14  1  0
 14 15  1  0
 15 16  1  0
 16 17  1  0
 17 18  1  0
 16 19  1  0
 19 20  1  0
 19 21  2  0
  5 22  1  0
 22 23  2  0
 23 24  1  0
 24 25  1  0
 25 26  2  0
 26 27  1  0
 27 28  2  0
 28 29  1  0
 29 30  1  0
 29 31  2  0
 31 32  1  0
 12  4  1  0
 18 13  1  0
 31 22  1  0
 12  7  1  0
 28 24  1  0
  1 33  1  0
  1 34  1  0
  1 35  1  0
  2 36  1  0
  3 37  1  0
  3 38  1  0
  3 39  1  0
  6 40  1  0
  8 41  1  0
  9 42  1  0
 11 43  1  0
 13 44  1  0
 14 45  1  0
 14 46  1  0
 15 47  1  0
 15 48  1  0
 17 49  1  0
 17 50  1  0
 18 51  1  0
 18 52  1  0
 20 53  1  0
 20 54  1  0
 20 55  1  0
 23 56  1  0
 26 57  1  0
 30 58  1  0
 30 59  1  0
 30 60  1  0
 32 61  1  0
 32 62  1  0
 32 63  1  0
M  END
$$$$
[H]OC(=O)C([H])([H])C([H])([H])[C@@]([H])(C([H])([H])[H])[C@@]1([H])C([H])([H])C([H])([H])[C@@]2([H])[C@@]3([H])[C@]([H])(C([H])([H])C([H])([H])[C@@]21C([H])([H])[H])[C@@]1(C([H])([H])[H])C([H])([H])C([H])([H])[C@@]([H])(O[H])[C@@]1([H])C([H])([H])[C@@]3([H])O[H]
     RDKit          3D

 65 68  0  0  0  0  0  0  0  0999 V2000
   -4.6053   -1.7963    0.1947 C   0  0  0  0  0  0  0  0  0  0  0  0
   -3.5276   -0.7390    0.5922 C   0  0  2  0  0  0  0  0  0  0  0  0
   -4.1533    0.5611    0.2021 C   0  0  0  0  0  0  0  0  0  0  0  0
   -5.4573    0.6792    1.0092 C   0  0  0  0  0  0  0  0  0  0  0  0
   -6.0746    1.9728    0.6184 C   0  0  0  0  0  0  0  0  0  0  0  0
   -7.2917    2.3988    1.1743 O   0  0  0  0  0  0  0  0  0  0  0  0
   -5.5579    2.7513   -0.2166 O   0  0  0  0  0  0  0  0  0  0  0  0
   -2.2813   -1.1246   -0.1014 C   0  0  1  0  0  0  0  0  0  0  0  0
   -2.3597   -1.1135   -1.5937 C   0  0  0  0  0  0  0  0  0  0  0  0
   -1.1393   -0.2771   -2.0490 C   0  0  0  0  0  0  0  0  0  0  0  0
   -0.1783   -0.6731   -0.9819 C   0  0  1  0  0  0  0  0  0  0  0  0
    1.0655    0.0984   -0.8337 C   0  0  2  0  0  0  0  0  0  0  0  0
    1.8041    0.2901   -2.1542 C   0  0  2  0  0  0  0  0  0  0  0  0
    1.8999   -0.8976   -2.8703 O   0  0  0  0  0  0  0  0  0  0  0  0
    3.1215    0.9387   -1.9148 C   0  0  0  0  0  0  0  0  0  0  0  0
    3.4480    1.1860   -0.4770 C   0  0  2  0  0  0  0  0  0  0  0  0
    4.9615    1.4224   -0.4024 C   0  0  2  0  0  0  0  0  0  0  0  0
    5.3772    2.1504   -1.5359 O   0  0  0  0  0  0  0  0  0  0  0  0
    5.5104    0.0299   -0.4263 C   0  0  0  0  0  0  0  0  0  0  0  0
    4.4262   -0.8909    0.0291 C   0  0  0  0  0  0  0  0  0  0  0  0
    3.2387   -0.0218    0.3954 C   0  0  1  0  0  0  0  0  0  0  0  0
    3.4273    0.3922    1.8391 C   0  0  0  0  0  0  0  0  0  0  0  0
    1.9312   -0.7003    0.1350 C   0  0  1  0  0  0  0  0  0  0  0  0
    1.2009   -0.9882    1.3897 C   0  0  0  0  0  0  0  0  0  0  0  0
   -0.2200   -1.3852    1.2930 C   0  0  0  0  0  0  0  0  0  0  0  0
   -0.9988   -0.5113    0.2881 C   0  0  2  0  0  0  0  0  0  0  0  0
   -1.0506    0.9002    0.7916 C   0  0  0  0  0  0  0  0  0  0  0  0
   -5.3060   -1.9613    1.0088 H   0  0  0  0  0  0  0  0  0  0  0  0
   -4.0662   -2.7580    0.0112 H   0  0  0  0  0  0  0  0  0  0  0  0
   -5.0305   -1.4728   -0.7607 H   0  0  0  0  0  0  0  0  0  0  0  0
   -3.4415   -0.8105    1.6803 H   0  0  0  0  0  0  0  0  0  0  0  0
   -4.5098    0.4336   -0.8558 H   0  0  0  0  0  0  0  0  0  0  0  0
   -3.6229    1.4733    0.3771 H   0  0  0  0  0  0  0  0  0  0  0  0
   -5.1952    0.7178    2.0729 H   0  0  0  0  0  0  0  0  0  0  0  0
   -6.1644   -0.1318    0.7456 H   0  0  0  0  0  0  0  0  0  0  0  0
   -7.3653    2.3883    2.1951 H   0  0  0  0  0  0  0  0  0  0  0  0
   -2.1381   -2.2485    0.1484 H   0  0  0  0  0  0  0  0  0  0  0  0
   -2.2669   -2.1203   -2.0384 H   0  0  0  0  0  0  0  0  0  0  0  0
   -3.2294   -0.6337   -2.0251 H   0  0  0  0  0  0  0  0  0  0  0  0
   -0.7817   -0.6696   -3.0222 H   0  0  0  0  0  0  0  0  0  0  0  0
   -1.3753    0.7810   -2.1130 H   0  0  0  0  0  0  0  0  0  0  0  0
   -0.0099   -1.7735   -1.0770 H   0  0  0  0  0  0  0  0  0  0  0  0
    0.9070    1.1204   -0.4483 H   0  0  0  0  0  0  0  0  0  0  0  0
    1.1746    0.9827   -2.7513 H   0  0  0  0  0  0  0  0  0  0  0  0
    1.5643   -1.6777   -2.3716 H   0  0  0  0  0  0  0  0  0  0  0  0
    3.9244    0.2672   -2.3350 H   0  0  0  0  0  0  0  0  0  0  0  0
    3.2410    1.8987   -2.4574 H   0  0  0  0  0  0  0  0  0  0  0  0
    2.9052    2.0304   -0.0321 H   0  0  0  0  0  0  0  0  0  0  0  0
    5.2479    2.0100    0.4689 H   0  0  0  0  0  0  0  0  0  0  0  0
    6.1583    2.7266   -1.3244 H   0  0  0  0  0  0  0  0  0  0  0  0
    6.4170   -0.0209    0.2290 H   0  0  0  0  0  0  0  0  0  0  0  0
    5.8597   -0.1765   -1.4583 H   0  0  0  0  0  0  0  0  0  0  0  0
    4.7649   -1.4239    0.9480 H   0  0  0  0  0  0  0  0  0  0  0  0
    4.1636   -1.6716   -0.7062 H   0  0  0  0  0  0  0  0  0  0  0  0
    4.5071    0.7070    1.9239 H   0  0  0  0  0  0  0  0  0  0  0  0
    3.2921   -0.4337    2.5469 H   0  0  0  0  0  0  0  0  0  0  0  0
    2.8449    1.3003    2.1000 H   0  0  0  0  0  0  0  0  0  0  0  0
    2.1705   -1.6534   -0.4235 H   0  0  0  0  0  0  0  0  0  0  0  0
    1.7344   -1.8594    1.8892 H   0  0  0  0  0  0  0  0  0  0  0  0
    1.3052   -0.1387    2.0987 H   0  0  0  0  0  0  0  0  0  0  0  0
   -0.7128   -1.2107    2.2731 H   0  0  0  0  0  0  0  0  0  0  0  0
   -0.3984   -2.4416    1.0253 H   0  0  0  0  0  0  0  0  0  0  0  0
   -1.7542    1.0290    1.6362 H   0  0  0  0  0  0  0  0  0  0  0  0
   -1.2865    1.6566    0.0293 H   0  0  0  0  0  0  0  0  0  0  0  0
   -0.0440    1.1121    1.2732 H   0  0  0  0  0  0  0  0  0  0  0  0
  1  2  1  0
  2  3  1  0
  3  4  1  0
  4  5  1  0
  5  6  1  0
  5  7  2  0
  2  8  1  0
  8  9  1  0
  9 10  1  0
 10 11  1  0
 11 12  1  0
 12 13  1  0
 13 14  1  0
 13 15  1  0
 15 16  1  0
 16 17  1  0
 17 18  1  0
 17 19  1  0
 19 20  1  0
 20 21  1  0
 21 22  1  1
 21 23  1  0
 23 24  1  0
 24 25  1  0
 25 26  1  0
 26 27  1  1
 26  8  1  0
 26 11  1  0
 23 12  1  0
 21 16  1  0
  1 28  1  0
  1 29  1  0
  1 30  1  0
  2 31  1  1
  3 32  1  0
  3 33  1  0
  4 34  1  0
  4 35  1  0
  6 36  1  0
  8 37  1  1
  9 38  1  0
  9 39  1  0
 10 40  1  0
 10 41  1  0
 11 42  1  6
 12 43  1  1
 13 44  1  6
 14 45  1  0
 15 46  1  0
 15 47  1  0
 16 48  1  1
 17 49  1  1
 18 50  1  0
 19 51  1  0
 19 52  1  0
 20 53  1  0
 20 54  1  0
 22 55  1  0
 22 56  1  0
 22 57  1  0
 23 58  1  6
 24 59  1  0
 24 60  1  0
 25 61  1  0
 25 62  1  0
 27 63  1  0
 27 64  1  0
 27 65  1  0
M  END
$$$$
[H]OC(=O)C([H])([H])C([H])([H])[C@@]([H])(C([H])([H])[H])[C@@]1([H])C([H])([H])C([H])([H])[C@@]2([H])[C@@]3([H])[C@]([H])(C([H])([H])C([H])([H])[C@@]21C([H])([H])[H])[C@@]1(C([H])([H])[H])C([H])([H])C([H])([H])[C@@]([H])(O[H])C([H])([H])[C@@]31[H]
     RDKit          3D

 61 64  0  0  0  0  0  0  0  0999 V2000
    3.5433   -1.1015    1.5601 C   0  0  0  0  0  0  0  0  0  0  0  0
    3.2084   -0.4090    0.2918 C   0  0  2  0  0  0  0  0  0  0  0  0
    4.2427    0.6674    0.0238 C   0  0  0  0  0  0  0  0  0  0  0  0
    5.6504    0.1027   -0.1008 C   0  0  0  0  0  0  0  0  0  0  0  0
    6.5363    1.2515   -0.3753 C   0  0  0  0  0  0  0  0  0  0  0  0
    7.6192    1.5206    0.4486 O   0  0  0  0  0  0  0  0  0  0  0  0
    6.3167    1.9961   -1.3543 O   0  0  0  0  0  0  0  0  0  0  0  0
    1.8580    0.1805    0.1827 C   0  0  1  0  0  0  0  0  0  0  0  0
    1.7757    0.8515   -1.2055 C   0  0  0  0  0  0  0  0  0  0  0  0
    0.3072    0.9193   -1.5527 C   0  0  0  0  0  0  0  0  0  0  0  0
   -0.3504    0.3345   -0.3832 C   0  0  1  0  0  0  0  0  0  0  0  0
   -1.5856   -0.4025   -0.5386 C   0  0  2  0  0  0  0  0  0  0  0  0
   -2.9059    0.1910   -0.7284 C   0  0  2  0  0  0  0  0  0  0  0  0
   -3.0421    1.6334   -0.3652 C   0  0  0  0  0  0  0  0  0  0  0  0
   -4.5153    1.9875   -0.4630 C   0  0  2  0  0  0  0  0  0  0  0  0
   -4.7266    3.2595    0.0300 O   0  0  0  0  0  0  0  0  0  0  0  0
   -5.2748    0.9320    0.2914 C   0  0  0  0  0  0  0  0  0  0  0  0
   -4.3623    0.1417    1.2236 C   0  0  0  0  0  0  0  0  0  0  0  0
   -3.3837   -0.7174    0.4245 C   0  0  1  0  0  0  0  0  0  0  0  0
   -3.9389   -2.0055   -0.0675 C   0  0  0  0  0  0  0  0  0  0  0  0
   -2.0241   -0.6486    0.9239 C   0  0  1  0  0  0  0  0  0  0  0  0
   -1.2288   -1.7851    1.3681 C   0  0  0  0  0  0  0  0  0  0  0  0
    0.2367   -1.3162    1.4164 C   0  0  0  0  0  0  0  0  0  0  0  0
    0.6840   -0.7036    0.1184 C   0  0  2  0  0  0  0  0  0  0  0  0
    0.7423   -1.7549   -0.9407 C   0  0  0  0  0  0  0  0  0  0  0  0
    4.3506   -0.5091    2.0856 H   0  0  0  0  0  0  0  0  0  0  0  0
    2.7298   -1.1444    2.3068 H   0  0  0  0  0  0  0  0  0  0  0  0
    4.0188   -2.1190    1.4226 H   0  0  0  0  0  0  0  0  0  0  0  0
    3.3470   -1.1557   -0.5371 H   0  0  0  0  0  0  0  0  0  0  0  0
    4.0786    1.1972   -0.9514 H   0  0  0  0  0  0  0  0  0  0  0  0
    4.2638    1.4428    0.8063 H   0  0  0  0  0  0  0  0  0  0  0  0
    5.9137   -0.3600    0.8664 H   0  0  0  0  0  0  0  0  0  0  0  0
    5.6853   -0.6531   -0.9393 H   0  0  0  0  0  0  0  0  0  0  0  0
    7.5091    1.7097    1.4462 H   0  0  0  0  0  0  0  0  0  0  0  0
    1.6699    1.0119    0.8942 H   0  0  0  0  0  0  0  0  0  0  0  0
    2.2521    0.1690   -1.9349 H   0  0  0  0  0  0  0  0  0  0  0  0
    2.2302    1.8669   -1.1666 H   0  0  0  0  0  0  0  0  0  0  0  0
    0.0362    2.0156   -1.5914 H   0  0  0  0  0  0  0  0  0  0  0  0
    0.0658    0.5142   -2.5434 H   0  0  0  0  0  0  0  0  0  0  0  0
   -0.3817    1.0837    0.4464 H   0  0  0  0  0  0  0  0  0  0  0  0
   -1.4877   -1.3818   -1.0631 H   0  0  0  0  0  0  0  0  0  0  0  0
   -3.3865   -0.0405   -1.6837 H   0  0  0  0  0  0  0  0  0  0  0  0
   -2.4310    2.2203   -1.0979 H   0  0  0  0  0  0  0  0  0  0  0  0
   -2.6417    1.8630    0.6302 H   0  0  0  0  0  0  0  0  0  0  0  0
   -4.7943    1.9098   -1.5289 H   0  0  0  0  0  0  0  0  0  0  0  0
   -3.9313    3.8649   -0.0802 H   0  0  0  0  0  0  0  0  0  0  0  0
   -5.8588    0.2510   -0.3643 H   0  0  0  0  0  0  0  0  0  0  0  0
   -5.9821    1.4685    0.9550 H   0  0  0  0  0  0  0  0  0  0  0  0
   -5.0170   -0.5933    1.7486 H   0  0  0  0  0  0  0  0  0  0  0  0
   -3.8683    0.8424    1.8967 H   0  0  0  0  0  0  0  0  0  0  0  0
   -4.3955   -1.8069   -1.0823 H   0  0  0  0  0  0  0  0  0  0  0  0
   -3.2153   -2.8274   -0.1323 H   0  0  0  0  0  0  0  0  0  0  0  0
   -4.8110   -2.3100    0.5613 H   0  0  0  0  0  0  0  0  0  0  0  0
   -1.8625    0.2468    1.5693 H   0  0  0  0  0  0  0  0  0  0  0  0
   -1.5010   -2.0627    2.4121 H   0  0  0  0  0  0  0  0  0  0  0  0
   -1.3333   -2.7016    0.7693 H   0  0  0  0  0  0  0  0  0  0  0  0
    0.7923   -2.2723    1.5524 H   0  0  0  0  0  0  0  0  0  0  0  0
    0.4044   -0.7064    2.3009 H   0  0  0  0  0  0  0  0  0  0  0  0
    1.7407   -2.1522   -1.1437 H   0  0  0  0  0  0  0  0  0  0  0  0
    0.3547   -1.3907   -1.9308 H   0  0  0  0  0  0  0  0  0  0  0  0
    0.0736   -2.6159   -0.6944 H   0  0  0  0  0  0  0  0  0  0  0  0
  1  2  1  0
  2  3  1  0
  3  4  1  0
  4  5  1  0
  5  6  1  0
  5  7  2  0
  2  8  1  0
  8  9  1  0
  9 10  1  0
 10 11  1  0
 11 12  1  0
 12 13  1  0
 13 14  1  0
 14 15  1  0
 15 16  1  0
 15 17  1  0
 17 18  1  0
 18 19  1  0
 19 20  1  6
 19 21  1  0
 21 22  1  0
 22 23  1  0
 23 24  1  0
 24 25  1  6
 24  8  1  0
 24 11  1  0
 21 12  1  0
 19 13  1  0
  1 26  1  0
  1 27  1  0
  1 28  1  0
  2 29  1  6
  3 30  1  0
  3 31  1  0
  4 32  1  0
  4 33  1  0
  6 34  1  0
  8 35  1  1
  9 36  1  0
  9 37  1  0
 10 38  1  0
 10 39  1  0
 11 40  1  1
 12 41  1  6
 13 42  1  6
 14 43  1  0
 14 44  1  0
 15 45  1  6
 16 46  1  0
 17 47  1  0
 17 48  1  0
 18 49  1  0
 18 50  1  0
 20 51  1  0
 20 52  1  0
 20 53  1  0
 21 54  1  1
 22 55  1  0
 22 56  1  0
 23 57  1  0
 23 58  1  0
 25 59  1  0
 25 60  1  0
 25 61  1  0
M  END
$$$$
[H]c1c([H])c([H])c2c([H])c(C(=O)N([H])[C@@]3([H])C([H])([H])N4C([H])([H])C([H])([H])C3([H])C([H])([H])C4([H])[H])sc2c1[H]
     RDKit          3D

 38 41  0  0  0  0  0  0  0  0999 V2000
    0.1674   -2.0388   -1.4729 O   0  0  0  0  0  0  0  0  0  0  0  0
    0.4764   -1.1868   -0.6313 C   0  0  0  0  0  0  0  0  0  0  0  0
   -0.4824   -0.3742   -0.0100 N   0  0  0  0  0  0  0  0  0  0  0  0
   -1.8867   -0.5375   -0.3659 C   0  0  1  0  0  0  0  0  0  0  0  0
   -2.7574   -0.8012    0.8473 C   0  0  0  0  0  0  0  0  0  0  0  0
   -4.0680   -0.1696    0.6865 N   0  0  0  0  0  0  0  0  0  0  0  0
   -3.9459    1.2798    0.8775 C   0  0  0  0  0  0  0  0  0  0  0  0
   -2.5997    1.7019    0.2844 C   0  0  0  0  0  0  0  0  0  0  0  0
   -2.3466    0.8220   -0.9093 C   0  0  0  0  0  0  0  0  0  0  0  0
   -3.6931    0.6265   -1.6013 C   0  0  0  0  0  0  0  0  0  0  0  0
   -4.4681   -0.3438   -0.7092 C   0  0  0  0  0  0  0  0  0  0  0  0
    1.8907   -1.0301   -0.2801 C   0  0  0  0  0  0  0  0  0  0  0  0
    2.4555   -0.1596    0.6159 C   0  0  0  0  0  0  0  0  0  0  0  0
    3.7997   -0.2071    0.7661 C   0  0  0  0  0  0  0  0  0  0  0  0
    4.5651    0.6001    1.6320 C   0  0  0  0  0  0  0  0  0  0  0  0
    5.9178    0.4432    1.6810 C   0  0  0  0  0  0  0  0  0  0  0  0
    6.6320   -0.4726    0.9277 C   0  0  0  0  0  0  0  0  0  0  0  0
    5.8756   -1.2591    0.0825 C   0  0  0  0  0  0  0  0  0  0  0  0
    4.4806   -1.1152    0.0151 C   0  0  0  0  0  0  0  0  0  0  0  0
    3.2567   -1.8829   -0.8801 S   0  0  0  0  0  0  0  0  0  0  0  0
   -0.2300    0.3521    0.7059 H   0  0  0  0  0  0  0  0  0  0  0  0
   -2.0304   -1.3226   -1.1190 H   0  0  0  0  0  0  0  0  0  0  0  0
   -2.9490   -1.8971    0.9129 H   0  0  0  0  0  0  0  0  0  0  0  0
   -2.2665   -0.4757    1.7852 H   0  0  0  0  0  0  0  0  0  0  0  0
   -4.7395    1.8025    0.2953 H   0  0  0  0  0  0  0  0  0  0  0  0
   -3.9541    1.5543    1.9386 H   0  0  0  0  0  0  0  0  0  0  0  0
   -2.6376    2.7721   -0.0214 H   0  0  0  0  0  0  0  0  0  0  0  0
   -1.8549    1.5231    1.0744 H   0  0  0  0  0  0  0  0  0  0  0  0
   -1.5743    1.1815   -1.5872 H   0  0  0  0  0  0  0  0  0  0  0  0
   -4.1904    1.6012   -1.6724 H   0  0  0  0  0  0  0  0  0  0  0  0
   -3.5334    0.1166   -2.5630 H   0  0  0  0  0  0  0  0  0  0  0  0
   -5.5514   -0.1573   -0.8186 H   0  0  0  0  0  0  0  0  0  0  0  0
   -4.2152   -1.3883   -0.9810 H   0  0  0  0  0  0  0  0  0  0  0  0
    1.7637    0.5336    1.1643 H   0  0  0  0  0  0  0  0  0  0  0  0
    4.1289    1.3514    2.2716 H   0  0  0  0  0  0  0  0  0  0  0  0
    6.5016    1.0748    2.3563 H   0  0  0  0  0  0  0  0  0  0  0  0
    7.7037   -0.5311    1.0282 H   0  0  0  0  0  0  0  0  0  0  0  0
    6.3590   -1.9859   -0.5274 H   0  0  0  0  0  0  0  0  0  0  0  0
  1  2  2  0
  2  3  1  0
  3  4  1  0
  4  5  1  0
  5  6  1  0
  6  7  1  0
  7  8  1  0
  8  9  1  0
  9 10  1  0
 10 11  1  0
  2 12  1  0
 12 13  2  0
 13 14  1  0
 14 15  2  0
 15 16  1  0
 16 17  2  0
 17 18  1  0
 18 19  2  0
 19 20  1  0
  9  4  1  0
 20 12  1  0
 11  6  1  0
 19 14  1  0
  3 21  1  0
  4 22  1  6
  5 23  1  0
  5 24  1  0
  7 25  1  0
  7 26  1  0
  8 27  1  0
  8 28  1  0
  9 29  1  0
 10 30  1  0
 10 31  1  0
 11 32  1  0
 11 33  1  0
 13 34  1  0
 15 35  1  0
 16 36  1  0
 17 37  1  0
 18 38  1  0
M  END
$$$$
[H]OC(=O)C([H])([H])C([H])([H])[C@@]([H])(C(=O)O[H])N([H])C(=O)[C@@]([H])(N([H])C(=O)[C@@]([H])(N([H])C(=O)[C@@]([H])(N([H])C(=O)[C@@]([H])(N([H])C(=O)[C@@]([H])(N([H])[H])C([H])([H])[H])C([H])([H])C([H])([H])C(=O)O[H])C([H])([H])C([H])([H])C(=O)O[H])C([H])([H])C([H])([H])C(=O)O[H])C([H])([H])C([H])([H])C(=O)O[H]
     RDKit          3D

 93 92  0  0  0  0  0  0  0  0999 V2000
   -9.3540    0.2939   -2.4782 C   0  0  0  0  0  0  0  0  0  0  0  0
   -9.5356    1.3093   -1.3450 C   0  0  2  0  0  0  0  0  0  0  0  0
   -9.9939    2.5923   -1.8730 N   0  0  0  0  0  0  0  0  0  0  0  0
   -8.2640    1.5043   -0.6603 C   0  0  0  0  0  0  0  0  0  0  0  0
   -7.7725    2.6891   -0.6098 O   0  0  0  0  0  0  0  0  0  0  0  0
   -7.4896    0.5128   -0.0271 N   0  0  0  0  0  0  0  0  0  0  0  0
   -6.2104    0.8471    0.6338 C   0  0  1  0  0  0  0  0  0  0  0  0
   -6.4855    0.5099    2.1090 C   0  0  0  0  0  0  0  0  0  0  0  0
   -5.2661    0.7892    2.9253 C   0  0  0  0  0  0  0  0  0  0  0  0
   -5.4433    0.5179    4.3473 C   0  0  0  0  0  0  0  0  0  0  0  0
   -6.6274    0.0870    4.9450 O   0  0  0  0  0  0  0  0  0  0  0  0
   -4.4186    0.6936    5.0940 O   0  0  0  0  0  0  0  0  0  0  0  0
   -5.0793    0.0877    0.0897 C   0  0  0  0  0  0  0  0  0  0  0  0
   -5.2547   -1.0864   -0.3084 O   0  0  0  0  0  0  0  0  0  0  0  0
   -3.7807    0.6443   -0.0034 N   0  0  0  0  0  0  0  0  0  0  0  0
   -2.6230   -0.0328   -0.5239 C   0  0  1  0  0  0  0  0  0  0  0  0
   -2.0704    0.5781   -1.7782 C   0  0  0  0  0  0  0  0  0  0  0  0
   -2.9930    0.6402   -2.9385 C   0  0  0  0  0  0  0  0  0  0  0  0
   -3.5112   -0.6229   -3.4528 C   0  0  0  0  0  0  0  0  0  0  0  0
   -3.0230   -1.8220   -2.9494 O   0  0  0  0  0  0  0  0  0  0  0  0
   -4.3949   -0.7064   -4.3496 O   0  0  0  0  0  0  0  0  0  0  0  0
   -1.5200    0.0414    0.5245 C   0  0  0  0  0  0  0  0  0  0  0  0
   -1.9436    0.7118    1.5652 O   0  0  0  0  0  0  0  0  0  0  0  0
   -0.3028   -0.5067    0.3976 N   0  0  0  0  0  0  0  0  0  0  0  0
    0.9636   -1.0750    0.2696 C   0  0  1  0  0  0  0  0  0  0  0  0
    1.0839   -1.9182   -0.9812 C   0  0  0  0  0  0  0  0  0  0  0  0
    0.1321   -3.0589   -1.0646 C   0  0  0  0  0  0  0  0  0  0  0  0
    0.2171   -4.0401    0.0086 C   0  0  0  0  0  0  0  0  0  0  0  0
    0.7748   -5.2774   -0.1842 O   0  0  0  0  0  0  0  0  0  0  0  0
   -0.2358   -3.7296    1.1387 O   0  0  0  0  0  0  0  0  0  0  0  0
    2.0536   -0.0008    0.2000 C   0  0  0  0  0  0  0  0  0  0  0  0
    1.6329    1.1890    0.1056 O   0  0  0  0  0  0  0  0  0  0  0  0
    3.3889   -0.3290    0.2411 N   0  0  0  0  0  0  0  0  0  0  0  0
    4.6116    0.3703    0.2049 C   0  0  1  0  0  0  0  0  0  0  0  0
    5.1228    0.9778    1.4749 C   0  0  0  0  0  0  0  0  0  0  0  0
    4.1810    2.0279    2.0708 C   0  0  0  0  0  0  0  0  0  0  0  0
    4.8193    2.6377    3.2818 C   0  0  0  0  0  0  0  0  0  0  0  0
    5.5467    3.8143    3.1474 O   0  0  0  0  0  0  0  0  0  0  0  0
    4.7226    2.1216    4.4118 O   0  0  0  0  0  0  0  0  0  0  0  0
    5.6582   -0.2376   -0.6150 C   0  0  0  0  0  0  0  0  0  0  0  0
    5.4295   -0.6478   -1.7716 O   0  0  0  0  0  0  0  0  0  0  0  0
    6.9740   -0.3860   -0.0970 N   0  0  0  0  0  0  0  0  0  0  0  0
    8.0131   -0.9787   -0.8877 C   0  0  1  0  0  0  0  0  0  0  0  0
    9.3943   -0.8854   -0.4088 C   0  0  0  0  0  0  0  0  0  0  0  0
    9.9678    0.4619   -0.2650 C   0  0  0  0  0  0  0  0  0  0  0  0
    9.3278    1.3506    0.6817 C   0  0  0  0  0  0  0  0  0  0  0  0
    8.5674    2.4585    0.2857 O   0  0  0  0  0  0  0  0  0  0  0  0
    9.4418    1.1543    1.9325 O   0  0  0  0  0  0  0  0  0  0  0  0
    7.7218   -2.4756   -1.0134 C   0  0  0  0  0  0  0  0  0  0  0  0
    8.6042   -3.2789   -1.7627 O   0  0  0  0  0  0  0  0  0  0  0  0
    6.7405   -2.9778   -0.4770 O   0  0  0  0  0  0  0  0  0  0  0  0
   -8.3654    0.4526   -2.9708 H   0  0  0  0  0  0  0  0  0  0  0  0
  -10.1827    0.4454   -3.1910 H   0  0  0  0  0  0  0  0  0  0  0  0
   -9.4310   -0.7024   -2.0080 H   0  0  0  0  0  0  0  0  0  0  0  0
  -10.3426    0.9201   -0.7239 H   0  0  0  0  0  0  0  0  0  0  0  0
  -10.5666    3.1015   -1.1540 H   0  0  0  0  0  0  0  0  0  0  0  0
   -9.1196    3.1356   -2.0919 H   0  0  0  0  0  0  0  0  0  0  0  0
   -7.7883   -0.4692   -0.0091 H   0  0  0  0  0  0  0  0  0  0  0  0
   -6.0941    1.9446    0.5196 H   0  0  0  0  0  0  0  0  0  0  0  0
   -6.6934   -0.6023    2.1290 H   0  0  0  0  0  0  0  0  0  0  0  0
   -7.4114    0.9765    2.4491 H   0  0  0  0  0  0  0  0  0  0  0  0
   -4.9266    1.8295    2.7381 H   0  0  0  0  0  0  0  0  0  0  0  0
   -4.4738    0.0690    2.5312 H   0  0  0  0  0  0  0  0  0  0  0  0
   -7.4825    0.2235    4.3883 H   0  0  0  0  0  0  0  0  0  0  0  0
   -3.6571    1.6292    0.3395 H   0  0  0  0  0  0  0  0  0  0  0  0
   -2.9253   -1.0955   -0.6729 H   0  0  0  0  0  0  0  0  0  0  0  0
   -1.1531    0.0063   -2.1135 H   0  0  0  0  0  0  0  0  0  0  0  0
   -1.7124    1.6167   -1.5187 H   0  0  0  0  0  0  0  0  0  0  0  0
   -2.4047    1.1060   -3.7897 H   0  0  0  0  0  0  0  0  0  0  0  0
   -3.8572    1.3259   -2.7910 H   0  0  0  0  0  0  0  0  0  0  0  0
   -3.3004   -2.7440   -3.2535 H   0  0  0  0  0  0  0  0  0  0  0  0
    0.0377    0.0184    1.6349 H   0  0  0  0  0  0  0  0  0  0  0  0
    1.2606   -1.6283    1.1975 H   0  0  0  0  0  0  0  0  0  0  0  0
    1.0355   -1.2966   -1.8948 H   0  0  0  0  0  0  0  0  0  0  0  0
    2.1399   -2.3266   -0.9708 H   0  0  0  0  0  0  0  0  0  0  0  0
    0.2603   -3.5136   -2.0933 H   0  0  0  0  0  0  0  0  0  0  0  0
   -0.9209   -2.6328   -1.1132 H   0  0  0  0  0  0  0  0  0  0  0  0
    0.7891   -5.8389   -0.9981 H   0  0  0  0  0  0  0  0  0  0  0  0
    3.5554   -1.4314    0.2950 H   0  0  0  0  0  0  0  0  0  0  0  0
    4.3387    1.3445   -0.4022 H   0  0  0  0  0  0  0  0  0  0  0  0
    6.0753    1.5167    1.3162 H   0  0  0  0  0  0  0  0  0  0  0  0
    5.3301    0.2009    2.2674 H   0  0  0  0  0  0  0  0  0  0  0  0
    3.9807    2.8024    1.3256 H   0  0  0  0  0  0  0  0  0  0  0  0
    3.2341    1.5840    2.4496 H   0  0  0  0  0  0  0  0  0  0  0  0
    6.5138    3.7267    2.8524 H   0  0  0  0  0  0  0  0  0  0  0  0
    7.1470   -0.0841    0.8795 H   0  0  0  0  0  0  0  0  0  0  0  0
    7.8379   -0.6470   -1.9452 H   0  0  0  0  0  0  0  0  0  0  0  0
   10.1127   -1.4580   -1.0994 H   0  0  0  0  0  0  0  0  0  0  0  0
    9.4964   -1.4988    0.5500 H   0  0  0  0  0  0  0  0  0  0  0  0
   10.0508    0.9399   -1.2786 H   0  0  0  0  0  0  0  0  0  0  0  0
   11.0526    0.3028    0.0785 H   0  0  0  0  0  0  0  0  0  0  0  0
    8.7569    2.9084   -0.5991 H   0  0  0  0  0  0  0  0  0  0  0  0
    8.3050   -3.6979   -2.6393 H   0  0  0  0  0  0  0  0  0  0  0  0
  1  2  1  0
  2  3  1  0
  2  4  1  0
  4  5  2  0
  4  6  1  0
  6  7  1  0
  7  8  1  0
  8  9  1  0
  9 10  1  0
 10 11  1  0
 10 12  2  0
  7 13  1  0
 13 14  2  0
 13 15  1  0
 15 16  1  0
 16 17  1  0
 17 18  1  0
 18 19  1  0
 19 20  1  0
 19 21  2  0
 16 22  1  0
 22 23  2  0
 22 24  1  0
 24 25  1  0
 25 26  1  0
 26 27  1  0
 27 28  1  0
 28 29  1  0
 28 30  2  0
 25 31  1  0
 31 32  2  0
 31 33  1  0
 33 34  1  0
 34 35  1  0
 35 36  1  0
 36 37  1  0
 37 38  1  0
 37 39  2  0
 34 40  1  0
 40 41  2  0
 40 42  1  0
 42 43  1  0
 43 44  1  0
 44 45  1  0
 45 46  1  0
 46 47  1  0
 46 48  2  0
 43 49  1  0
 49 50  1  0
 49 51  2  0
  1 52  1  0
  1 53  1  0
  1 54  1  0
  2 55  1  1
  3 56  1  0
  3 57  1  0
  6 58  1  0
  7 59  1  1
  8 60  1  0
  8 61  1  0
  9 62  1  0
  9 63  1  0
 11 64  1  0
 15 65  1  0
 16 66  1  6
 17 67  1  0
 17 68  1  0
 18 69  1  0
 18 70  1  0
 20 71  1  0
 24 72  1  0
 25 73  1  1
 26 74  1  0
 26 75  1  0
 27 76  1  0
 27 77  1  0
 29 78  1  0
 33 79  1  0
 34 80  1  6
 35 81  1  0
 35 82  1  0
 36 83  1  0
 36 84  1  0
 38 85  1  0
 42 86  1  0
 43 87  1  6
 44 88  1  0
 44 89  1  0
 45 90  1  0
 45 91  1  0
 47 92  1  0
 50 93  1  0
M  END
$$$$
[H]OC(=O)C([H])([H])C([H])([H])[C@@]([H])(C(=O)N([H])[C@]([H])(C(=O)O[H])C([H])([H])c1c([H])c([H])c([H])c([H])c1[H])N([H])C(=O)[C@@]([H])(N([H])C(=O)C([H])([H])[H])C([H])([H])C([H])(C([H])([H])[H])C([H])([H])[H]
     RDKit          3D

 63 63  0  0  0  0  0  0  0  0999 V2000
   -5.4245    2.6080    0.2204 C   0  0  0  0  0  0  0  0  0  0  0  0
   -5.5041    1.1484    0.6061 C   0  0  0  0  0  0  0  0  0  0  0  0
   -6.3127    1.0363    1.8727 C   0  0  0  0  0  0  0  0  0  0  0  0
   -4.1533    0.5455    0.8355 C   0  0  0  0  0  0  0  0  0  0  0  0
   -3.2662    0.6011   -0.4014 C   0  0  2  0  0  0  0  0  0  0  0  0
   -3.8550   -0.1153   -1.4966 N   0  0  0  0  0  0  0  0  0  0  0  0
   -4.3960   -0.7502   -2.4956 C   0  0  0  0  0  0  0  0  0  0  0  0
   -4.2182   -2.2671   -2.7321 C   0  0  0  0  0  0  0  0  0  0  0  0
   -5.1451   -0.2745   -3.4273 O   0  0  0  0  0  0  0  0  0  0  0  0
   -1.9146    0.0590   -0.0524 C   0  0  0  0  0  0  0  0  0  0  0  0
   -1.5303   -0.9083   -0.7379 O   0  0  0  0  0  0  0  0  0  0  0  0
   -1.0938    0.5752    0.9652 N   0  0  0  0  0  0  0  0  0  0  0  0
    0.2023    0.1770    1.3723 C   0  0  1  0  0  0  0  0  0  0  0  0
    0.3267   -0.8619    2.4153 C   0  0  0  0  0  0  0  0  0  0  0  0
   -0.2661   -0.5467    3.7549 C   0  0  0  0  0  0  0  0  0  0  0  0
   -1.7169   -0.3436    3.7844 C   0  0  0  0  0  0  0  0  0  0  0  0
   -2.2948    0.8345    4.2254 O   0  0  0  0  0  0  0  0  0  0  0  0
   -2.4736   -1.2700    3.3971 O   0  0  0  0  0  0  0  0  0  0  0  0
    1.1896    0.0099    0.2427 C   0  0  0  0  0  0  0  0  0  0  0  0
    0.9083    0.2257   -0.9612 O   0  0  0  0  0  0  0  0  0  0  0  0
    2.4899   -0.4027    0.5316 N   0  0  0  0  0  0  0  0  0  0  0  0
    3.5425   -0.5966   -0.4941 C   0  0  1  0  0  0  0  0  0  0  0  0
    4.6922    0.2428   -0.0744 C   0  0  0  0  0  0  0  0  0  0  0  0
    5.8874    0.2214   -0.9302 C   0  0  0  0  0  0  0  0  0  0  0  0
    6.9130   -0.6523   -0.6393 C   0  0  0  0  0  0  0  0  0  0  0  0
    8.0544   -0.6798   -1.4309 C   0  0  0  0  0  0  0  0  0  0  0  0
    8.1776    0.1685   -2.5220 C   0  0  0  0  0  0  0  0  0  0  0  0
    7.1675    1.0327   -2.8144 C   0  0  0  0  0  0  0  0  0  0  0  0
    6.0236    1.0533   -2.0121 C   0  0  0  0  0  0  0  0  0  0  0  0
    3.7630   -2.0502   -0.5534 C   0  0  0  0  0  0  0  0  0  0  0  0
    4.7288   -2.5811   -1.4169 O   0  0  0  0  0  0  0  0  0  0  0  0
    3.1155   -2.8588    0.1454 O   0  0  0  0  0  0  0  0  0  0  0  0
   -6.1312    3.2233    0.8585 H   0  0  0  0  0  0  0  0  0  0  0  0
   -4.4056    3.0066    0.2713 H   0  0  0  0  0  0  0  0  0  0  0  0
   -5.7848    2.7784   -0.8175 H   0  0  0  0  0  0  0  0  0  0  0  0
   -6.0795    0.6340   -0.1883 H   0  0  0  0  0  0  0  0  0  0  0  0
   -5.9871    1.8073    2.5931 H   0  0  0  0  0  0  0  0  0  0  0  0
   -6.2802   -0.0024    2.2871 H   0  0  0  0  0  0  0  0  0  0  0  0
   -7.3816    1.2321    1.6598 H   0  0  0  0  0  0  0  0  0  0  0  0
   -3.6403    1.1604    1.6061 H   0  0  0  0  0  0  0  0  0  0  0  0
   -4.2665   -0.4635    1.2266 H   0  0  0  0  0  0  0  0  0  0  0  0
   -3.1265    1.6637   -0.6028 H   0  0  0  0  0  0  0  0  0  0  0  0
   -4.5033    1.0354   -1.8322 H   0  0  0  0  0  0  0  0  0  0  0  0
   -5.2077   -2.7173   -2.9075 H   0  0  0  0  0  0  0  0  0  0  0  0
   -3.6414   -2.3287   -3.6731 H   0  0  0  0  0  0  0  0  0  0  0  0
   -3.6411   -2.7153   -1.9142 H   0  0  0  0  0  0  0  0  0  0  0  0
   -1.5393    1.3936    1.5051 H   0  0  0  0  0  0  0  0  0  0  0  0
    0.6563    1.1457    1.8605 H   0  0  0  0  0  0  0  0  0  0  0  0
   -0.1508   -1.8400    2.1089 H   0  0  0  0  0  0  0  0  0  0  0  0
    1.3908   -1.1085    2.6006 H   0  0  0  0  0  0  0  0  0  0  0  0
    0.2092    0.3516    4.2145 H   0  0  0  0  0  0  0  0  0  0  0  0
    0.0434   -1.3992    4.4286 H   0  0  0  0  0  0  0  0  0  0  0  0
   -1.9667    1.7371    3.8558 H   0  0  0  0  0  0  0  0  0  0  0  0
    2.8283   -0.5970    1.4852 H   0  0  0  0  0  0  0  0  0  0  0  0
    3.1019   -0.2321   -1.4760 H   0  0  0  0  0  0  0  0  0  0  0  0
    4.9638    0.0135    1.0060 H   0  0  0  0  0  0  0  0  0  0  0  0
    4.2877    1.3026    0.0181 H   0  0  0  0  0  0  0  0  0  0  0  0
    6.8570   -1.3440    0.2073 H   0  0  0  0  0  0  0  0  0  0  0  0
    8.8723   -1.3450   -1.2230 H   0  0  0  0  0  0  0  0  0  0  0  0
    9.0771    0.1485   -3.1490 H   0  0  0  0  0  0  0  0  0  0  0  0
    7.2735    1.6876   -3.6709 H   0  0  0  0  0  0  0  0  0  0  0  0
    5.2556    1.7658   -2.2922 H   0  0  0  0  0  0  0  0  0  0  0  0
    5.2998   -3.3741   -1.2243 H   0  0  0  0  0  0  0  0  0  0  0  0
  1  2  1  0
  2  3  1  0
  2  4  1  0
  4  5  1  0
  5  6  1  0
  6  7  1  0
  7  8  1  0
  7  9  2  0
  5 10  1  0
 10 11  2  0
 10 12  1  0
 12 13  1  0
 13 14  1  0
 14 15  1  0
 15 16  1  0
 16 17  1  0
 16 18  2  0
 13 19  1  0
 19 20  2  0
 19 21  1  0
 21 22  1  0
 22 23  1  0
 23 24  1  0
 24 25  2  0
 25 26  1  0
 26 27  2  0
 27 28  1  0
 28 29  2  0
 22 30  1  0
 30 31  1  0
 30 32  2  0
 29 24  1  0
  1 33  1  0
  1 34  1  0
  1 35  1  0
  2 36  1  0
  3 37  1  0
  3 38  1  0
  3 39  1  0
  4 40  1  0
  4 41  1  0
  5 42  1  6
  6 43  1  0
  8 44  1  0
  8 45  1  0
  8 46  1  0
 12 47  1  0
 13 48  1  1
 14 49  1  0
 14 50  1  0
 15 51  1  0
 15 52  1  0
 17 53  1  0
 21 54  1  0
 22 55  1  6
 23 56  1  0
 23 57  1  0
 25 58  1  0
 26 59  1  0
 27 60  1  0
 28 61  1  0
 29 62  1  0
 31 63  1  0
M  END
$$$$
[H]c1nc(C([H])([H])[H])c([H])c(-c2nc(-c3c([H])c([H])c(F)c(C([H])([H])[H])c3[H])n3c2C([H])([H])C([H])([H])O[C@]([H])(C([H])([H])[H])C3([H])[H])c1[H]
     RDKit          3D

 48 51  0  0  0  0  0  0  0  0999 V2000
   -1.0094   -4.3679    1.2760 C   0  0  0  0  0  0  0  0  0  0  0  0
   -0.3484   -3.2555    0.5102 C   0  0  2  0  0  0  0  0  0  0  0  0
   -1.3368   -2.1314    0.1785 C   0  0  0  0  0  0  0  0  0  0  0  0
   -0.6202   -0.9308   -0.0968 N   0  0  0  0  0  0  0  0  0  0  0  0
    0.7280   -0.8967   -0.3216 C   0  0  0  0  0  0  0  0  0  0  0  0
    1.7703   -1.9118   -0.3976 C   0  0  0  0  0  0  0  0  0  0  0  0
    1.4056   -3.2639   -0.8610 C   0  0  0  0  0  0  0  0  0  0  0  0
    0.1136   -3.6669   -0.7356 O   0  0  0  0  0  0  0  0  0  0  0  0
    1.0218    0.4415   -0.5063 C   0  0  0  0  0  0  0  0  0  0  0  0
   -0.1264    1.1228   -0.3888 N   0  0  0  0  0  0  0  0  0  0  0  0
   -1.1528    0.2781   -0.1351 C   0  0  0  0  0  0  0  0  0  0  0  0
   -2.5111    0.7711    0.0648 C   0  0  0  0  0  0  0  0  0  0  0  0
   -3.6471    0.0176    0.1188 C   0  0  0  0  0  0  0  0  0  0  0  0
   -4.8849    0.6324    0.3648 C   0  0  0  0  0  0  0  0  0  0  0  0
   -5.0076    1.9888    0.5568 C   0  0  0  0  0  0  0  0  0  0  0  0
   -6.2097    2.5566    0.7919 F   0  0  0  0  0  0  0  0  0  0  0  0
   -3.8823    2.7555    0.5047 C   0  0  0  0  0  0  0  0  0  0  0  0
   -3.9424    4.2251    0.7028 C   0  0  0  0  0  0  0  0  0  0  0  0
   -2.6954    2.1533    0.2677 C   0  0  0  0  0  0  0  0  0  0  0  0
    2.2783    1.0886   -0.7827 C   0  0  0  0  0  0  0  0  0  0  0  0
    2.3746    2.0285   -1.7820 C   0  0  0  0  0  0  0  0  0  0  0  0
    3.5949    2.6706   -2.0426 C   0  0  0  0  0  0  0  0  0  0  0  0
    4.6653    2.3468   -1.2952 N   0  0  0  0  0  0  0  0  0  0  0  0
    4.6168    1.4264   -0.2999 C   0  0  0  0  0  0  0  0  0  0  0  0
    5.8173    1.0958    0.5031 C   0  0  0  0  0  0  0  0  0  0  0  0
    3.3974    0.7956   -0.0511 C   0  0  0  0  0  0  0  0  0  0  0  0
   -1.0682   -5.2644    0.6105 H   0  0  0  0  0  0  0  0  0  0  0  0
   -1.9832   -4.0834    1.7052 H   0  0  0  0  0  0  0  0  0  0  0  0
   -0.3840   -4.7089    2.1498 H   0  0  0  0  0  0  0  0  0  0  0  0
    0.4278   -2.7983    1.1526 H   0  0  0  0  0  0  0  0  0  0  0  0
   -2.0107   -2.0749    1.0768 H   0  0  0  0  0  0  0  0  0  0  0  0
   -1.9551   -2.4128   -0.6841 H   0  0  0  0  0  0  0  0  0  0  0  0
    2.6403   -1.5316   -1.0190 H   0  0  0  0  0  0  0  0  0  0  0  0
    2.2199   -2.0140    0.6289 H   0  0  0  0  0  0  0  0  0  0  0  0
    1.6640   -3.3298   -1.9605 H   0  0  0  0  0  0  0  0  0  0  0  0
    2.0462   -4.0565   -0.3860 H   0  0  0  0  0  0  0  0  0  0  0  0
   -3.6479   -1.0402   -0.0433 H   0  0  0  0  0  0  0  0  0  0  0  0
   -5.7613   -0.0124    0.3992 H   0  0  0  0  0  0  0  0  0  0  0  0
   -4.7922    4.6648    0.1782 H   0  0  0  0  0  0  0  0  0  0  0  0
   -3.9773    4.4172    1.7968 H   0  0  0  0  0  0  0  0  0  0  0  0
   -3.0022    4.6906    0.3340 H   0  0  0  0  0  0  0  0  0  0  0  0
   -1.8063    2.7740    0.2301 H   0  0  0  0  0  0  0  0  0  0  0  0
    1.5546    2.3210   -2.4036 H   0  0  0  0  0  0  0  0  0  0  0  0
    3.7234    3.4112   -2.8108 H   0  0  0  0  0  0  0  0  0  0  0  0
    6.0481    1.9037    1.2360 H   0  0  0  0  0  0  0  0  0  0  0  0
    5.5849    0.1818    1.0861 H   0  0  0  0  0  0  0  0  0  0  0  0
    6.6982    0.9215   -0.1600 H   0  0  0  0  0  0  0  0  0  0  0  0
    3.3714    0.0712    0.7394 H   0  0  0  0  0  0  0  0  0  0  0  0
  1  2  1  0
  2  3  1  0
  3  4  1  0
  4  5  1  0
  5  6  1  0
  6  7  1  0
  7  8  1  0
  5  9  2  0
  9 10  1  0
 10 11  2  0
 11 12  1  0
 12 13  2  0
 13 14  1  0
 14 15  2  0
 15 16  1  0
 15 17  1  0
 17 18  1  0
 17 19  2  0
  9 20  1  0
 20 21  2  0
 21 22  1  0
 22 23  2  0
 23 24  1  0
 24 25  1  0
 24 26  2  0
  8  2  1  0
 19 12  1  0
 26 20  1  0
 11  4  1  0
  1 27  1  0
  1 28  1  0
  1 29  1  0
  2 30  1  1
  3 31  1  0
  3 32  1  0
  6 33  1  0
  6 34  1  0
  7 35  1  0
  7 36  1  0
 13 37  1  0
 14 38  1  0
 18 39  1  0
 18 40  1  0
 18 41  1  0
 19 42  1  0
 21 43  1  0
 22 44  1  0
 25 45  1  0
 25 46  1  0
 25 47  1  0
 26 48  1  0
M  END
$$$$
[H]N=C(N([H])[H])N([H])C([H])([H])C([H])([H])C([H])([H])[C@@]([H])(C([H])=O)N([H])C(=O)[C@@]([H])(N([H])C(=O)[C@]([H])(N([H])S(=O)(=O)C([H])([H])c1c([H])c([H])c([H])c([H])c1[H])C([H])([H])O[H])C([H])([H])C([H])(C([H])([H])[H])C([H])([H])[H]
     RDKit          3D

 71 71  0  0  0  0  0  0  0  0999 V2000
   -0.8492   -3.0755    0.9500 C   0  0  0  0  0  0  0  0  0  0  0  0
    0.6234   -2.7862    1.1131 C   0  0  0  0  0  0  0  0  0  0  0  0
    1.4018   -3.0475   -0.1419 C   0  0  0  0  0  0  0  0  0  0  0  0
    0.9550   -1.5601    1.8602 C   0  0  0  0  0  0  0  0  0  0  0  0
    0.5321   -0.2368    1.4238 C   0  0  2  0  0  0  0  0  0  0  0  0
   -0.8683    0.0022    1.3063 N   0  0  0  0  0  0  0  0  0  0  0  0
   -1.5724    0.1714    0.1052 C   0  0  0  0  0  0  0  0  0  0  0  0
   -1.0883    0.1219   -1.0411 O   0  0  0  0  0  0  0  0  0  0  0  0
   -3.0830    0.4463    0.1565 C   0  0  1  0  0  0  0  0  0  0  0  0
   -3.3051    1.6693    0.9582 C   0  0  0  0  0  0  0  0  0  0  0  0
   -4.6388    1.9846    1.0361 O   0  0  0  0  0  0  0  0  0  0  0  0
   -3.5197    0.5804   -1.2005 N   0  0  0  0  0  0  0  0  0  0  0  0
   -4.4563   -0.7348   -1.7307 S   0  0  0  0  0  0  0  0  0  0  0  0
   -4.5394   -1.7296   -0.5753 O   0  0  0  0  0  0  0  0  0  0  0  0
   -3.7379   -1.4582   -2.8656 O   0  0  0  0  0  0  0  0  0  0  0  0
   -6.0742   -0.3785   -2.2564 C   0  0  0  0  0  0  0  0  0  0  0  0
   -6.9599    0.2467   -1.2957 C   0  0  0  0  0  0  0  0  0  0  0  0
   -7.1464    1.6357   -1.3555 C   0  0  0  0  0  0  0  0  0  0  0  0
   -7.9732    2.3051   -0.4876 C   0  0  0  0  0  0  0  0  0  0  0  0
   -8.6495    1.5985    0.4811 C   0  0  0  0  0  0  0  0  0  0  0  0
   -8.4867    0.2436    0.5626 C   0  0  0  0  0  0  0  0  0  0  0  0
   -7.6515   -0.4247   -0.3156 C   0  0  0  0  0  0  0  0  0  0  0  0
    1.4101    0.5214    0.5109 C   0  0  0  0  0  0  0  0  0  0  0  0
    0.9643    1.4953   -0.1326 O   0  0  0  0  0  0  0  0  0  0  0  0
    2.7665    0.2044    0.3130 N   0  0  0  0  0  0  0  0  0  0  0  0
    3.6188    0.9663   -0.5781 C   0  0  1  0  0  0  0  0  0  0  0  0
    4.8117    1.5683    0.0629 C   0  0  0  0  0  0  0  0  0  0  0  0
    5.7886    0.6671    0.7054 C   0  0  0  0  0  0  0  0  0  0  0  0
    6.4810   -0.3300   -0.1530 C   0  0  0  0  0  0  0  0  0  0  0  0
    7.2435    0.2995   -1.1887 N   0  0  0  0  0  0  0  0  0  0  0  0
    8.3943    1.0500   -0.8217 C   0  0  0  0  0  0  0  0  0  0  0  0
    9.5926    0.3655   -0.4153 N   0  0  0  0  0  0  0  0  0  0  0  0
    8.4245    2.3295   -0.8365 N   0  0  0  0  0  0  0  0  0  0  0  0
    3.9260    0.2522   -1.8449 C   0  0  0  0  0  0  0  0  0  0  0  0
    3.4837   -0.8484   -2.1268 O   0  0  0  0  0  0  0  0  0  0  0  0
   -1.3904   -2.5004    1.7235 H   0  0  0  0  0  0  0  0  0  0  0  0
   -1.0416   -4.1556    1.2150 H   0  0  0  0  0  0  0  0  0  0  0  0
   -1.2089   -2.9177   -0.0831 H   0  0  0  0  0  0  0  0  0  0  0  0
    0.9843   -3.6246    1.7981 H   0  0  0  0  0  0  0  0  0  0  0  0
    2.4830   -3.0771    0.0681 H   0  0  0  0  0  0  0  0  0  0  0  0
    1.2123   -2.3809   -0.9675 H   0  0  0  0  0  0  0  0  0  0  0  0
    1.1269   -4.0838   -0.4743 H   0  0  0  0  0  0  0  0  0  0  0  0
    2.0361   -1.5531    2.1061 H   0  0  0  0  0  0  0  0  0  0  0  0
    0.4843   -1.7245    2.9002 H   0  0  0  0  0  0  0  0  0  0  0  0
    0.7668    0.4136    2.4091 H   0  0  0  0  0  0  0  0  0  0  0  0
   -1.4842    0.0607    2.1845 H   0  0  0  0  0  0  0  0  0  0  0  0
   -3.5068   -0.4557    0.6459 H   0  0  0  0  0  0  0  0  0  0  0  0
   -2.8850    1.5185    1.9907 H   0  0  0  0  0  0  0  0  0  0  0  0
   -2.7434    2.5264    0.5064 H   0  0  0  0  0  0  0  0  0  0  0  0
   -4.8393    2.8795    1.3858 H   0  0  0  0  0  0  0  0  0  0  0  0
   -2.7939    0.8917   -1.8587 H   0  0  0  0  0  0  0  0  0  0  0  0
   -6.0276    0.2747   -3.1854 H   0  0  0  0  0  0  0  0  0  0  0  0
   -6.5487   -1.3541   -2.5664 H   0  0  0  0  0  0  0  0  0  0  0  0
   -6.6073    2.1863   -2.1243 H   0  0  0  0  0  0  0  0  0  0  0  0
   -8.0731    3.3952   -0.5893 H   0  0  0  0  0  0  0  0  0  0  0  0
   -9.3111    2.0944    1.1835 H   0  0  0  0  0  0  0  0  0  0  0  0
   -9.0110   -0.3366    1.3202 H   0  0  0  0  0  0  0  0  0  0  0  0
   -7.5276   -1.5040   -0.2427 H   0  0  0  0  0  0  0  0  0  0  0  0
    3.1713   -0.6034    0.8218 H   0  0  0  0  0  0  0  0  0  0  0  0
    2.9491    1.8293   -0.9214 H   0  0  0  0  0  0  0  0  0  0  0  0
    5.3228    2.2769   -0.6259 H   0  0  0  0  0  0  0  0  0  0  0  0
    4.4174    2.2465    0.8848 H   0  0  0  0  0  0  0  0  0  0  0  0
    5.3548    0.1934    1.6201 H   0  0  0  0  0  0  0  0  0  0  0  0
    6.6048    1.3296    1.1277 H   0  0  0  0  0  0  0  0  0  0  0  0
    7.2008   -0.8768    0.5456 H   0  0  0  0  0  0  0  0  0  0  0  0
    5.8694   -1.1190   -0.5839 H   0  0  0  0  0  0  0  0  0  0  0  0
    7.0218    0.2492   -2.2036 H   0  0  0  0  0  0  0  0  0  0  0  0
   10.1426   -0.1534   -1.1514 H   0  0  0  0  0  0  0  0  0  0  0  0
    9.8707    0.4057    0.5768 H   0  0  0  0  0  0  0  0  0  0  0  0
    7.5851    2.8483   -1.1253 H   0  0  0  0  0  0  0  0  0  0  0  0
    4.5773    0.6859   -2.6038 H   0  0  0  0  0  0  0  0  0  0  0  0
  1  2  1  0
  2  3  1  0
  2  4  1  0
  4  5  1  0
  5  6  1  0
  6  7  1  0
  7  8  2  0
  7  9  1  0
  9 10  1  0
 10 11  1  0
  9 12  1  0
 12 13  1  0
 13 14  2  0
 13 15  2  0
 13 16  1  0
 16 17  1  0
 17 18  2  0
 18 19  1  0
 19 20  2  0
 20 21  1  0
 21 22  2  0
  5 23  1  0
 23 24  2  0
 23 25  1  0
 25 26  1  0
 26 27  1  0
 27 28  1  0
 28 29  1  0
 29 30  1  0
 30 31  1  0
 31 32  1  0
 31 33  2  3
 26 34  1  0
 34 35  2  0
 22 17  1  0
  1 36  1  0
  1 37  1  0
  1 38  1  0
  2 39  1  0
  3 40  1  0
  3 41  1  0
  3 42  1  0
  4 43  1  0
  4 44  1  0
  5 45  1  1
  6 46  1  0
  9 47  1  1
 10 48  1  0
 10 49  1  0
 11 50  1  0
 12 51  1  0
 16 52  1  0
 16 53  1  0
 18 54  1  0
 19 55  1  0
 20 56  1  0
 21 57  1  0
 22 58  1  0
 25 59  1  0
 26 60  1  6
 27 61  1  0
 27 62  1  0
 28 63  1  0
 28 64  1  0
 29 65  1  0
 29 66  1  0
 30 67  1  0
 32 68  1  0
 32 69  1  0
 33 70  1  0
 34 71  1  0
M  END
$$$$
[H]c1c([H])c([N+](=O)[O-])c([H])c([H])c1C(=O)N([H])/N=C1\C(=O)N([H])c2c([H])c([H])c([N+](=O)[O-])c([H])c21
     RDKit          3D

 35 37  0  0  0  0  0  0  0  0999 V2000
    7.7170   -0.6693   -0.8768 O   0  0  0  0  0  0  0  0  0  0  0  0
    7.0738    0.3072   -0.1599 N   0  0  0  0  0  0  0  0  0  0  0  0
    7.7191    1.2386    0.3049 O   0  0  0  0  0  0  0  0  0  0  0  0
    5.6691    0.2267    0.0345 C   0  0  0  0  0  0  0  0  0  0  0  0
    4.9044   -0.7990   -0.4679 C   0  0  0  0  0  0  0  0  0  0  0  0
    3.5364   -0.8685   -0.2730 C   0  0  0  0  0  0  0  0  0  0  0  0
    2.8885    0.1071    0.4441 C   0  0  0  0  0  0  0  0  0  0  0  0
    3.6632    1.1470    0.9536 C   0  0  0  0  0  0  0  0  0  0  0  0
    5.0232    1.2136    0.7583 C   0  0  0  0  0  0  0  0  0  0  0  0
    1.4584    0.0968    0.6864 C   0  0  0  0  0  0  0  0  0  0  0  0
    0.9455    1.0529    1.3682 O   0  0  0  0  0  0  0  0  0  0  0  0
    0.6329   -0.9359    0.1900 N   0  0  0  0  0  0  0  0  0  0  0  0
   -0.7437   -0.9304    0.4328 N   0  0  0  0  0  0  0  0  0  0  0  0
   -1.5607   -0.2743   -0.3104 C   0  0  0  0  0  0  0  0  0  0  0  0
   -1.2172    0.5346   -1.4720 C   0  0  0  0  0  0  0  0  0  0  0  0
   -0.0518    0.7332   -1.9537 O   0  0  0  0  0  0  0  0  0  0  0  0
   -2.4623    1.0484   -1.9439 N   0  0  0  0  0  0  0  0  0  0  0  0
   -3.5136    0.5677   -1.0995 C   0  0  0  0  0  0  0  0  0  0  0  0
   -4.8776    0.7791   -1.1389 C   0  0  0  0  0  0  0  0  0  0  0  0
   -5.7282    0.2018   -0.1998 C   0  0  0  0  0  0  0  0  0  0  0  0
   -5.2312   -0.6040    0.8049 C   0  0  0  0  0  0  0  0  0  0  0  0
   -3.8674   -0.8060    0.8316 C   0  0  0  0  0  0  0  0  0  0  0  0
   -2.9999   -0.2354   -0.1015 C   0  0  0  0  0  0  0  0  0  0  0  0
   -6.1084   -1.1885    1.7587 N   0  0  0  0  0  0  0  0  0  0  0  0
   -5.6434   -1.9808    2.7508 O   0  0  0  0  0  0  0  0  0  0  0  0
   -7.3321   -0.9703    1.6847 O   0  0  0  0  0  0  0  0  0  0  0  0
    5.4070   -1.5874   -1.0437 H   0  0  0  0  0  0  0  0  0  0  0  0
    3.0040   -1.6966   -0.6934 H   0  0  0  0  0  0  0  0  0  0  0  0
    3.1992    1.9577    1.5365 H   0  0  0  0  0  0  0  0  0  0  0  0
    5.6332    2.0319    1.1592 H   0  0  0  0  0  0  0  0  0  0  0  0
    1.0327   -1.7141   -0.3618 H   0  0  0  0  0  0  0  0  0  0  0  0
   -2.5697    1.6821   -2.7856 H   0  0  0  0  0  0  0  0  0  0  0  0
   -5.3224    1.3967   -1.8973 H   0  0  0  0  0  0  0  0  0  0  0  0
   -6.8080    0.3684   -0.2298 H   0  0  0  0  0  0  0  0  0  0  0  0
   -3.4701   -1.4309    1.6085 H   0  0  0  0  0  0  0  0  0  0  0  0
  1  2  1  0
  2  3  2  0
  2  4  1  0
  4  5  2  0
  5  6  1  0
  6  7  2  0
  7  8  1  0
  8  9  2  0
  7 10  1  0
 10 11  2  0
 10 12  1  0
 12 13  1  0
 13 14  2  0
 14 15  1  0
 15 16  2  0
 15 17  1  0
 17 18  1  0
 18 19  2  0
 19 20  1  0
 20 21  2  0
 21 22  1  0
 22 23  2  0
 21 24  1  0
 24 25  1  0
 24 26  2  0
  9  4  1  0
 23 14  1  0
 23 18  1  0
  5 27  1  0
  6 28  1  0
  8 29  1  0
  9 30  1  0
 12 31  1  0
 17 32  1  0
 19 33  1  0
 20 34  1  0
 22 35  1  0
M  CHG  4   1  -1   2   1  24   1  25  -1
M  END
$$$$
[H]OC(=O)[C@]1([H])C([H])([H])[C@@]2([H])N([C@@]([H])(c3nc(-c4c([H])c([H])c(C([H])([H])[H])c([H])c4[H])c([H])n3[H])C([H])([H])[H])[C@]([H])(C([H])([H])C2([H])[H])C1([H])[H]
     RDKit          3D

 50 53  0  0  0  0  0  0  0  0999 V2000
   -1.3805   -2.7652    0.8289 C   0  0  0  0  0  0  0  0  0  0  0  0
   -1.1860   -1.3568    0.2383 C   0  0  1  0  0  0  0  0  0  0  0  0
   -2.2591   -0.5808    0.6172 N   0  0  0  0  0  0  0  0  0  0  0  0
   -3.5622   -0.9124    0.2017 C   0  0  1  0  0  0  0  0  0  0  0  0
   -4.4138   -0.1399    1.2028 C   0  0  0  0  0  0  0  0  0  0  0  0
   -3.5301    1.0421    1.6003 C   0  0  0  0  0  0  0  0  0  0  0  0
   -2.2040    0.7711    0.8678 C   0  0  2  0  0  0  0  0  0  0  0  0
   -2.2850    1.5454   -0.4156 C   0  0  0  0  0  0  0  0  0  0  0  0
   -3.1679    0.9483   -1.4674 C   0  0  1  0  0  0  0  0  0  0  0  0
   -3.7333   -0.3869   -1.2057 C   0  0  0  0  0  0  0  0  0  0  0  0
   -4.2520    1.8758   -1.8874 C   0  0  0  0  0  0  0  0  0  0  0  0
   -4.0304    3.1231   -2.4402 O   0  0  0  0  0  0  0  0  0  0  0  0
   -5.4414    1.5134   -1.7349 O   0  0  0  0  0  0  0  0  0  0  0  0
    0.1356   -0.9163    0.6733 C   0  0  0  0  0  0  0  0  0  0  0  0
    1.2246   -0.8700   -0.1116 N   0  0  0  0  0  0  0  0  0  0  0  0
    2.2668   -0.4315    0.5682 C   0  0  0  0  0  0  0  0  0  0  0  0
    1.8661   -0.1749    1.8496 C   0  0  0  0  0  0  0  0  0  0  0  0
    0.5500   -0.4845    1.8777 N   0  0  0  0  0  0  0  0  0  0  0  0
    3.6152   -0.2644   -0.0075 C   0  0  0  0  0  0  0  0  0  0  0  0
    3.8553   -0.5710   -1.3240 C   0  0  0  0  0  0  0  0  0  0  0  0
    5.1048   -0.4153   -1.8558 C   0  0  0  0  0  0  0  0  0  0  0  0
    6.1612    0.0505   -1.1002 C   0  0  0  0  0  0  0  0  0  0  0  0
    7.5256    0.2142   -1.7052 C   0  0  0  0  0  0  0  0  0  0  0  0
    5.9139    0.3554    0.2160 C   0  0  0  0  0  0  0  0  0  0  0  0
    4.6579    0.2013    0.7595 C   0  0  0  0  0  0  0  0  0  0  0  0
   -2.2266   -3.2896    0.3808 H   0  0  0  0  0  0  0  0  0  0  0  0
   -0.4413   -3.3465    0.7477 H   0  0  0  0  0  0  0  0  0  0  0  0
   -1.5159   -2.5821    1.9367 H   0  0  0  0  0  0  0  0  0  0  0  0
   -1.1914   -1.5168   -0.8599 H   0  0  0  0  0  0  0  0  0  0  0  0
   -3.7957   -1.9945    0.1996 H   0  0  0  0  0  0  0  0  0  0  0  0
   -5.3895    0.1554    0.8182 H   0  0  0  0  0  0  0  0  0  0  0  0
   -4.5625   -0.7582    2.1288 H   0  0  0  0  0  0  0  0  0  0  0  0
   -3.3185    1.0647    2.6765 H   0  0  0  0  0  0  0  0  0  0  0  0
   -3.9528    2.0014    1.2757 H   0  0  0  0  0  0  0  0  0  0  0  0
   -1.3738    1.1852    1.4561 H   0  0  0  0  0  0  0  0  0  0  0  0
   -1.2615    1.8077   -0.7740 H   0  0  0  0  0  0  0  0  0  0  0  0
   -2.7398    2.5436   -0.1428 H   0  0  0  0  0  0  0  0  0  0  0  0
   -2.5078    0.8707   -2.3887 H   0  0  0  0  0  0  0  0  0  0  0  0
   -4.7988   -0.4259   -1.5203 H   0  0  0  0  0  0  0  0  0  0  0  0
   -3.2351   -1.1639   -1.8612 H   0  0  0  0  0  0  0  0  0  0  0  0
   -4.6065    3.8882   -2.1142 H   0  0  0  0  0  0  0  0  0  0  0  0
    2.5048    0.1927    2.6265 H   0  0  0  0  0  0  0  0  0  0  0  0
   -0.0338   -0.3863    2.7460 H   0  0  0  0  0  0  0  0  0  0  0  0
    3.0316   -0.9363   -1.9206 H   0  0  0  0  0  0  0  0  0  0  0  0
    5.3206   -0.6512   -2.8958 H   0  0  0  0  0  0  0  0  0  0  0  0
    8.1796    0.6912   -0.9462 H   0  0  0  0  0  0  0  0  0  0  0  0
    7.8728   -0.7895   -2.0112 H   0  0  0  0  0  0  0  0  0  0  0  0
    7.3916    0.8961   -2.5711 H   0  0  0  0  0  0  0  0  0  0  0  0
    6.7472    0.7271    0.8283 H   0  0  0  0  0  0  0  0  0  0  0  0
    4.4721    0.4461    1.8034 H   0  0  0  0  0  0  0  0  0  0  0  0
  1  2  1  0
  2  3  1  0
  3  4  1  0
  4  5  1  0
  5  6  1  0
  6  7  1  0
  7  8  1  0
  8  9  1  0
  9 10  1  0
  9 11  1  0
 11 12  1  0
 11 13  2  0
  2 14  1  0
 14 15  2  0
 15 16  1  0
 16 17  2  0
 17 18  1  0
 16 19  1  0
 19 20  2  0
 20 21  1  0
 21 22  2  0
 22 23  1  0
 22 24  1  0
 24 25  2  0
  7  3  1  0
 18 14  1  0
 25 19  1  0
 10  4  1  0
  1 26  1  0
  1 27  1  0
  1 28  1  0
  2 29  1  6
  4 30  1  6
  5 31  1  0
  5 32  1  0
  6 33  1  0
  6 34  1  0
  7 35  1  1
  8 36  1  0
  8 37  1  0
  9 38  1  6
 10 39  1  0
 10 40  1  0
 12 41  1  0
 17 42  1  0
 18 43  1  0
 20 44  1  0
 21 45  1  0
 23 46  1  0
 23 47  1  0
 23 48  1  0
 24 49  1  0
 25 50  1  0
M  END
$$$$
[H]Oc1c([H])c(-c2c([H])c([H])c([H])c(C(=O)C([H])([H])[H])c2[H])nc2c([H])c(OC([H])([H])[H])c(-c3oc([H])nc3[H])c([H])c12
     RDKit          3D

 43 46  0  0  0  0  0  0  0  0999 V2000
   -3.0611    3.6065   -0.5294 C   0  0  0  0  0  0  0  0  0  0  0  0
   -3.6686    2.3551   -0.3594 O   0  0  0  0  0  0  0  0  0  0  0  0
   -2.9907    1.1642   -0.2117 C   0  0  0  0  0  0  0  0  0  0  0  0
   -1.5868    1.1666   -0.2277 C   0  0  0  0  0  0  0  0  0  0  0  0
   -0.8861   -0.0035   -0.0830 C   0  0  0  0  0  0  0  0  0  0  0  0
    0.4590   -0.0150   -0.0965 N   0  0  0  0  0  0  0  0  0  0  0  0
    1.1907   -1.1481    0.0430 C   0  0  0  0  0  0  0  0  0  0  0  0
    0.5090   -2.3135    0.2026 C   0  0  0  0  0  0  0  0  0  0  0  0
   -0.8858   -2.3376    0.2214 C   0  0  0  0  0  0  0  0  0  0  0  0
   -1.5382   -3.5315    0.3843 O   0  0  0  0  0  0  0  0  0  0  0  0
   -1.5819   -1.1661    0.0764 C   0  0  0  0  0  0  0  0  0  0  0  0
   -2.9391   -1.1509    0.0896 C   0  0  0  0  0  0  0  0  0  0  0  0
   -3.7153    0.0107   -0.0532 C   0  0  0  0  0  0  0  0  0  0  0  0
   -5.1519   -0.0802   -0.0253 C   0  0  0  0  0  0  0  0  0  0  0  0
   -6.1226    0.8520   -0.1360 C   0  0  0  0  0  0  0  0  0  0  0  0
   -7.3192    0.2085   -0.0387 N   0  0  0  0  0  0  0  0  0  0  0  0
   -7.0725   -1.0933    0.1283 C   0  0  0  0  0  0  0  0  0  0  0  0
   -5.7979   -1.2414    0.1334 O   0  0  0  0  0  0  0  0  0  0  0  0
    2.6252   -1.0673    0.0164 C   0  0  0  0  0  0  0  0  0  0  0  0
    3.4266   -2.1760    0.1520 C   0  0  0  0  0  0  0  0  0  0  0  0
    4.8162   -2.0223    0.1164 C   0  0  0  0  0  0  0  0  0  0  0  0
    5.4232   -0.7964   -0.0503 C   0  0  0  0  0  0  0  0  0  0  0  0
    4.6160    0.3167   -0.1864 C   0  0  0  0  0  0  0  0  0  0  0  0
    3.2495    0.1666   -0.1515 C   0  0  0  0  0  0  0  0  0  0  0  0
    5.2106    1.6395   -0.3657 C   0  0  0  0  0  0  0  0  0  0  0  0
    6.6633    1.8678   -0.4118 C   0  0  0  0  0  0  0  0  0  0  0  0
    4.4595    2.6442   -0.4883 O   0  0  0  0  0  0  0  0  0  0  0  0
   -2.6985    3.6619   -1.5789 H   0  0  0  0  0  0  0  0  0  0  0  0
   -3.8076    4.4060   -0.3366 H   0  0  0  0  0  0  0  0  0  0  0  0
   -2.2453    3.6940    0.2125 H   0  0  0  0  0  0  0  0  0  0  0  0
   -1.0823    2.1177   -0.3574 H   0  0  0  0  0  0  0  0  0  0  0  0
    1.0266   -3.2732    0.3220 H   0  0  0  0  0  0  0  0  0  0  0  0
   -1.0641   -4.4068    0.4932 H   0  0  0  0  0  0  0  0  0  0  0  0
   -3.4420   -2.1021    0.2193 H   0  0  0  0  0  0  0  0  0  0  0  0
   -5.9937    1.9096   -0.2754 H   0  0  0  0  0  0  0  0  0  0  0  0
   -7.7948   -1.9165    0.2437 H   0  0  0  0  0  0  0  0  0  0  0  0
    3.0294   -3.1713    0.2863 H   0  0  0  0  0  0  0  0  0  0  0  0
    5.4167   -2.9290    0.2279 H   0  0  0  0  0  0  0  0  0  0  0  0
    6.5063   -0.7023   -0.0747 H   0  0  0  0  0  0  0  0  0  0  0  0
    2.6538    1.0509   -0.2602 H   0  0  0  0  0  0  0  0  0  0  0  0
    6.8981    2.8127   -0.9438 H   0  0  0  0  0  0  0  0  0  0  0  0
    7.2138    1.0550   -0.9286 H   0  0  0  0  0  0  0  0  0  0  0  0
    7.0528    1.9382    0.6296 H   0  0  0  0  0  0  0  0  0  0  0  0
  1  2  1  0
  2  3  1  0
  3  4  2  0
  4  5  1  0
  5  6  2  0
  6  7  1  0
  7  8  2  0
  8  9  1  0
  9 10  1  0
  9 11  2  0
 11 12  1  0
 12 13  2  0
 13 14  1  0
 14 15  2  0
 15 16  1  0
 16 17  2  0
 17 18  1  0
  7 19  1  0
 19 20  2  0
 20 21  1  0
 21 22  2  0
 22 23  1  0
 23 24  2  0
 23 25  1  0
 25 26  1  0
 25 27  2  0
 13  3  1  0
 18 14  1  0
 24 19  1  0
 11  5  1  0
  1 28  1  0
  1 29  1  0
  1 30  1  0
  4 31  1  0
  8 32  1  0
 10 33  1  0
 12 34  1  0
 15 35  1  0
 17 36  1  0
 20 37  1  0
 21 38  1  0
 22 39  1  0
 24 40  1  0
 26 41  1  0
 26 42  1  0
 26 43  1  0
M  END
$$$$
[H]c1c([H])c([H])c(C2=NC([H])([H])C(=O)N(C([H])([H])[H])c3c([H])c([H])c(C#N)c([H])c32)c(F)c1[H]
     RDKit          3D

 34 36  0  0  0  0  0  0  0  0999 V2000
   -3.5844   -0.4177   -1.5540 C   0  0  0  0  0  0  0  0  0  0  0  0
   -2.5333   -0.7595   -0.6766 N   0  0  0  0  0  0  0  0  0  0  0  0
   -1.8097    0.3602   -0.1267 C   0  0  0  0  0  0  0  0  0  0  0  0
   -2.5987    1.4780    0.0281 C   0  0  0  0  0  0  0  0  0  0  0  0
   -2.0619    2.5858    0.6459 C   0  0  0  0  0  0  0  0  0  0  0  0
   -0.7514    2.5313    1.0883 C   0  0  0  0  0  0  0  0  0  0  0  0
    0.0622    1.4307    0.9486 C   0  0  0  0  0  0  0  0  0  0  0  0
   -0.4861    0.3323    0.3234 C   0  0  0  0  0  0  0  0  0  0  0  0
    0.4800   -0.7308    0.1797 C   0  0  0  0  0  0  0  0  0  0  0  0
    0.1146   -1.9911    0.3112 N   0  0  0  0  0  0  0  0  0  0  0  0
   -1.1614   -2.6020    0.5852 C   0  0  0  0  0  0  0  0  0  0  0  0
   -2.2253   -2.1232   -0.3401 C   0  0  0  0  0  0  0  0  0  0  0  0
   -2.9483   -2.9759   -0.9027 O   0  0  0  0  0  0  0  0  0  0  0  0
    1.8563   -0.4693   -0.0985 C   0  0  0  0  0  0  0  0  0  0  0  0
    2.4917    0.6612   -0.4266 C   0  0  0  0  0  0  0  0  0  0  0  0
    3.8563    0.7827   -0.5694 C   0  0  0  0  0  0  0  0  0  0  0  0
    4.6591   -0.3156   -0.3718 C   0  0  0  0  0  0  0  0  0  0  0  0
    4.0731   -1.5069   -0.0362 C   0  0  0  0  0  0  0  0  0  0  0  0
    2.7076   -1.5784    0.0961 C   0  0  0  0  0  0  0  0  0  0  0  0
    2.2225   -2.8037    0.4315 F   0  0  0  0  0  0  0  0  0  0  0  0
   -0.1417    3.6589    1.7344 C   0  0  0  0  0  0  0  0  0  0  0  0
    0.3680    4.5658    2.2448 N   0  0  0  0  0  0  0  0  0  0  0  0
   -3.7089   -1.2303   -2.2986 H   0  0  0  0  0  0  0  0  0  0  0  0
   -4.5748   -0.2924   -1.0742 H   0  0  0  0  0  0  0  0  0  0  0  0
   -3.3029    0.4838   -2.1572 H   0  0  0  0  0  0  0  0  0  0  0  0
   -3.6017    1.3979   -0.3594 H   0  0  0  0  0  0  0  0  0  0  0  0
   -2.6768    3.4652    0.7681 H   0  0  0  0  0  0  0  0  0  0  0  0
    1.0627    1.3518    1.3393 H   0  0  0  0  0  0  0  0  0  0  0  0
   -1.4629   -2.3213    1.6027 H   0  0  0  0  0  0  0  0  0  0  0  0
   -1.0308   -3.6902    0.5406 H   0  0  0  0  0  0  0  0  0  0  0  0
    1.9201    1.5476   -0.6627 H   0  0  0  0  0  0  0  0  0  0  0  0
    4.3235    1.7461   -0.8403 H   0  0  0  0  0  0  0  0  0  0  0  0
    5.7363   -0.2101   -0.4867 H   0  0  0  0  0  0  0  0  0  0  0  0
    4.7273   -2.3610    0.1139 H   0  0  0  0  0  0  0  0  0  0  0  0
  1  2  1  0
  2  3  1  0
  3  4  2  0
  4  5  1  0
  5  6  2  0
  6  7  1  0
  7  8  2  0
  8  9  1  0
  9 10  2  0
 10 11  1  0
 11 12  1  0
 12 13  2  0
  9 14  1  0
 14 15  2  0
 15 16  1  0
 16 17  2  0
 17 18  1  0
 18 19  2  0
 19 20  1  0
  6 21  1  0
 21 22  3  0
 12  2  1  0
 19 14  1  0
  8  3  1  0
  1 23  1  0
  1 24  1  0
  1 25  1  0
  4 26  1  0
  5 27  1  0
  7 28  1  0
 11 29  1  0
 11 30  1  0
 15 31  1  0
 16 32  1  0
 17 33  1  0
 18 34  1  0
M  END
$$$$
[H]OC(=O)C([H])([H])[C@@]([H])(C(=O)N1C([H])([H])C([H])([H])C([H])([H])[C@@]1([H])C(=O)N([H])[C@]([H])(C(=O)O[H])C([H])([H])C([H])(C([H])([H])[H])C([H])([H])[H])N([H])C(=O)[C@]([H])(c1c([H])c([H])c([H])c([H])c1[H])C([H])([H])[H]
     RDKit          3D

 67 68  0  0  0  0  0  0  0  0999 V2000
    4.0431   -2.0959   -0.3041 C   0  0  0  0  0  0  0  0  0  0  0  0
    5.2905   -1.5999    0.3270 C   0  0  0  0  0  0  0  0  0  0  0  0
    6.3145   -2.7543    0.3747 C   0  0  0  0  0  0  0  0  0  0  0  0
    5.9391   -0.4135   -0.2657 C   0  0  0  0  0  0  0  0  0  0  0  0
    5.1248    0.8314   -0.2570 C   0  0  2  0  0  0  0  0  0  0  0  0
    3.9134    0.7647   -0.9843 N   0  0  0  0  0  0  0  0  0  0  0  0
    2.6236    1.0986   -0.4458 C   0  0  0  0  0  0  0  0  0  0  0  0
    2.6076    1.4676    0.7383 O   0  0  0  0  0  0  0  0  0  0  0  0
    1.4225    1.0048   -1.2472 C   0  0  2  0  0  0  0  0  0  0  0  0
    1.3244    2.1353   -2.2700 C   0  0  0  0  0  0  0  0  0  0  0  0
    1.1075    3.3189   -1.3306 C   0  0  0  0  0  0  0  0  0  0  0  0
    0.2571    2.7039   -0.2268 C   0  0  0  0  0  0  0  0  0  0  0  0
    0.2448    1.2960   -0.4571 N   0  0  0  0  0  0  0  0  0  0  0  0
   -0.7119    0.3404   -0.0443 C   0  0  0  0  0  0  0  0  0  0  0  0
   -0.5399   -0.8862   -0.3536 O   0  0  0  0  0  0  0  0  0  0  0  0
   -1.9039    0.7420    0.7280 C   0  0  2  0  0  0  0  0  0  0  0  0
   -1.7912    0.5016    2.2102 C   0  0  0  0  0  0  0  0  0  0  0  0
   -0.6997    1.1984    2.8804 C   0  0  0  0  0  0  0  0  0  0  0  0
   -0.8233    2.5194    3.3146 O   0  0  0  0  0  0  0  0  0  0  0  0
    0.4242    0.6643    3.1149 O   0  0  0  0  0  0  0  0  0  0  0  0
   -2.9822   -0.1434    0.2011 N   0  0  0  0  0  0  0  0  0  0  0  0
   -4.1223    0.4220   -0.3805 C   0  0  0  0  0  0  0  0  0  0  0  0
   -4.2264    1.6783   -0.4520 O   0  0  0  0  0  0  0  0  0  0  0  0
   -5.2172   -0.4165   -0.9180 C   0  0  1  0  0  0  0  0  0  0  0  0
   -4.7500   -1.2073   -2.1038 C   0  0  0  0  0  0  0  0  0  0  0  0
   -5.8419   -1.3036    0.0834 C   0  0  0  0  0  0  0  0  0  0  0  0
   -7.0157   -0.9332    0.7382 C   0  0  0  0  0  0  0  0  0  0  0  0
   -7.6173   -1.7427    1.6604 C   0  0  0  0  0  0  0  0  0  0  0  0
   -7.0590   -2.9528    1.9557 C   0  0  0  0  0  0  0  0  0  0  0  0
   -5.9094   -3.3687    1.3451 C   0  0  0  0  0  0  0  0  0  0  0  0
   -5.3064   -2.5250    0.4014 C   0  0  0  0  0  0  0  0  0  0  0  0
    5.9572    2.0026   -0.7021 C   0  0  0  0  0  0  0  0  0  0  0  0
    7.1766    2.2861   -0.1506 O   0  0  0  0  0  0  0  0  0  0  0  0
    5.5072    2.7389   -1.6125 O   0  0  0  0  0  0  0  0  0  0  0  0
    3.9157   -1.7603   -1.3394 H   0  0  0  0  0  0  0  0  0  0  0  0
    3.0992   -1.8351    0.2499 H   0  0  0  0  0  0  0  0  0  0  0  0
    4.0722   -3.2469   -0.2975 H   0  0  0  0  0  0  0  0  0  0  0  0
    5.0352   -1.4147    1.4278 H   0  0  0  0  0  0  0  0  0  0  0  0
    6.5469   -3.0428   -0.6705 H   0  0  0  0  0  0  0  0  0  0  0  0
    5.8534   -3.5513    0.9717 H   0  0  0  0  0  0  0  0  0  0  0  0
    7.2050   -2.2916    0.8875 H   0  0  0  0  0  0  0  0  0  0  0  0
    6.9113   -0.1818    0.2718 H   0  0  0  0  0  0  0  0  0  0  0  0
    6.2500   -0.6447   -1.3372 H   0  0  0  0  0  0  0  0  0  0  0  0
    4.8449    1.1193    0.8088 H   0  0  0  0  0  0  0  0  0  0  0  0
    3.9382    0.4701   -1.9816 H   0  0  0  0  0  0  0  0  0  0  0  0
    1.3298    0.0427   -1.7948 H   0  0  0  0  0  0  0  0  0  0  0  0
    0.3736    1.9943   -2.8089 H   0  0  0  0  0  0  0  0  0  0  0  0
    2.2083    2.2323   -2.8931 H   0  0  0  0  0  0  0  0  0  0  0  0
    0.5999    4.1463   -1.8516 H   0  0  0  0  0  0  0  0  0  0  0  0
    2.0747    3.6771   -0.9311 H   0  0  0  0  0  0  0  0  0  0  0  0
    0.6964    2.9920    0.7325 H   0  0  0  0  0  0  0  0  0  0  0  0
   -0.7574    3.1491   -0.3008 H   0  0  0  0  0  0  0  0  0  0  0  0
   -2.1496    1.7849    0.5400 H   0  0  0  0  0  0  0  0  0  0  0  0
   -1.6649   -0.5965    2.3865 H   0  0  0  0  0  0  0  0  0  0  0  0
   -2.7943    0.7456    2.6400 H   0  0  0  0  0  0  0  0  0  0  0  0
   -1.7480    2.9181    3.3967 H   0  0  0  0  0  0  0  0  0  0  0  0
   -2.8559   -1.1559    0.2791 H   0  0  0  0  0  0  0  0  0  0  0  0
   -6.0591    0.2626   -1.2630 H   0  0  0  0  0  0  0  0  0  0  0  0
   -4.3196   -0.5410   -2.8904 H   0  0  0  0  0  0  0  0  0  0  0  0
   -3.9228   -1.8843   -1.8049 H   0  0  0  0  0  0  0  0  0  0  0  0
   -5.5613   -1.7807   -2.5815 H   0  0  0  0  0  0  0  0  0  0  0  0
   -7.4669    0.0265    0.5101 H   0  0  0  0  0  0  0  0  0  0  0  0
   -8.5337   -1.4346    2.1598 H   0  0  0  0  0  0  0  0  0  0  0  0
   -7.5407   -3.5882    2.6868 H   0  0  0  0  0  0  0  0  0  0  0  0
   -5.4491   -4.3131    1.5580 H   0  0  0  0  0  0  0  0  0  0  0  0
   -4.4051   -2.8640   -0.0845 H   0  0  0  0  0  0  0  0  0  0  0  0
    7.5128    3.1944    0.0878 H   0  0  0  0  0  0  0  0  0  0  0  0
  1  2  1  0
  2  3  1  0
  2  4  1  0
  4  5  1  0
  5  6  1  0
  6  7  1  0
  7  8  2  0
  7  9  1  0
  9 10  1  0
 10 11  1  0
 11 12  1  0
 12 13  1  0
 13 14  1  0
 14 15  2  0
 14 16  1  0
 16 17  1  0
 17 18  1  0
 18 19  1  0
 18 20  2  0
 16 21  1  0
 21 22  1  0
 22 23  2  0
 22 24  1  0
 24 25  1  0
 24 26  1  0
 26 27  2  0
 27 28  1  0
 28 29  2  0
 29 30  1  0
 30 31  2  0
  5 32  1  0
 32 33  1  0
 32 34  2  0
 13  9  1  0
 31 26  1  0
  1 35  1  0
  1 36  1  0
  1 37  1  0
  2 38  1  0
  3 39  1  0
  3 40  1  0
  3 41  1  0
  4 42  1  0
  4 43  1  0
  5 44  1  1
  6 45  1  0
  9 46  1  6
 10 47  1  0
 10 48  1  0
 11 49  1  0
 11 50  1  0
 12 51  1  0
 12 52  1  0
 16 53  1  1
 17 54  1  0
 17 55  1  0
 19 56  1  0
 21 57  1  0
 24 58  1  6
 25 59  1  0
 25 60  1  0
 25 61  1  0
 27 62  1  0
 28 63  1  0
 29 64  1  0
 30 65  1  0
 31 66  1  0
 33 67  1  0
M  END
$$$$
[H]c1nc(N([H])[H])c(-c2c([H])c(OC([H])([H])[H])c(OC([H])([H])[H])c(OC([H])([H])[H])c2[H])c([H])c1-c1c([H])c([H])c(N2C([H])([H])C([H])([H])N([H])C([H])([H])C2([H])[H])c([H])c1[H]
     RDKit          3D

 59 62  0  0  0  0  0  0  0  0999 V2000
   -6.2144    3.2281    0.2940 C   0  0  0  0  0  0  0  0  0  0  0  0
   -6.1922    2.1520   -0.5925 O   0  0  0  0  0  0  0  0  0  0  0  0
   -5.2043    1.1807   -0.6126 C   0  0  0  0  0  0  0  0  0  0  0  0
   -4.1798    1.3000    0.3139 C   0  0  0  0  0  0  0  0  0  0  0  0
   -3.1887    0.3430    0.3084 C   0  0  0  0  0  0  0  0  0  0  0  0
   -3.2592   -0.6824   -0.6114 C   0  0  0  0  0  0  0  0  0  0  0  0
   -4.2812   -0.8034   -1.5378 C   0  0  0  0  0  0  0  0  0  0  0  0
   -4.3484   -1.8384   -2.4631 O   0  0  0  0  0  0  0  0  0  0  0  0
   -3.4171   -2.8655   -2.5773 C   0  0  0  0  0  0  0  0  0  0  0  0
   -5.2778    0.1536   -1.5363 C   0  0  0  0  0  0  0  0  0  0  0  0
   -6.3127    0.0463   -2.4617 O   0  0  0  0  0  0  0  0  0  0  0  0
   -7.4502   -0.7032   -2.0390 C   0  0  0  0  0  0  0  0  0  0  0  0
   -2.0770    0.3935    1.2566 C   0  0  0  0  0  0  0  0  0  0  0  0
   -0.7666    0.2530    0.7799 C   0  0  0  0  0  0  0  0  0  0  0  0
    0.2838    0.3093    1.6693 C   0  0  0  0  0  0  0  0  0  0  0  0
   -0.0307    0.5041    2.9966 C   0  0  0  0  0  0  0  0  0  0  0  0
   -1.2853    0.6385    3.4529 N   0  0  0  0  0  0  0  0  0  0  0  0
   -2.3485    0.5870    2.5950 C   0  0  0  0  0  0  0  0  0  0  0  0
   -3.6796    0.7235    3.0914 N   0  0  0  0  0  0  0  0  0  0  0  0
    1.6753    0.1685    1.2197 C   0  0  0  0  0  0  0  0  0  0  0  0
    2.0642    0.6145   -0.0306 C   0  0  0  0  0  0  0  0  0  0  0  0
    3.3595    0.4985   -0.4887 C   0  0  0  0  0  0  0  0  0  0  0  0
    4.3330   -0.0785    0.3012 C   0  0  0  0  0  0  0  0  0  0  0  0
    3.9630   -0.5274    1.5481 C   0  0  0  0  0  0  0  0  0  0  0  0
    2.6493   -0.4071    2.0060 C   0  0  0  0  0  0  0  0  0  0  0  0
    5.6875   -0.2006   -0.1661 N   0  0  0  0  0  0  0  0  0  0  0  0
    6.6070   -0.9097    0.6678 C   0  0  0  0  0  0  0  0  0  0  0  0
    7.9053   -1.2848    0.0335 C   0  0  0  0  0  0  0  0  0  0  0  0
    7.9562   -0.9787   -1.3805 N   0  0  0  0  0  0  0  0  0  0  0  0
    7.5194    0.4122   -1.5827 C   0  0  0  0  0  0  0  0  0  0  0  0
    6.0208    0.4094   -1.4485 C   0  0  0  0  0  0  0  0  0  0  0  0
   -6.5009    2.8772    1.3007 H   0  0  0  0  0  0  0  0  0  0  0  0
   -5.2377    3.7548    0.3829 H   0  0  0  0  0  0  0  0  0  0  0  0
   -6.9782    3.9772   -0.0489 H   0  0  0  0  0  0  0  0  0  0  0  0
   -4.1725    2.1444    1.0237 H   0  0  0  0  0  0  0  0  0  0  0  0
   -2.5009   -1.4753   -0.6672 H   0  0  0  0  0  0  0  0  0  0  0  0
   -3.9242   -3.7021   -3.1393 H   0  0  0  0  0  0  0  0  0  0  0  0
   -2.5207   -2.6200   -3.1449 H   0  0  0  0  0  0  0  0  0  0  0  0
   -3.1783   -3.3050   -1.5760 H   0  0  0  0  0  0  0  0  0  0  0  0
   -8.2517    0.0007   -1.7247 H   0  0  0  0  0  0  0  0  0  0  0  0
   -7.8448   -1.3402   -2.8558 H   0  0  0  0  0  0  0  0  0  0  0  0
   -7.2249   -1.3465   -1.1767 H   0  0  0  0  0  0  0  0  0  0  0  0
   -0.6055    0.1042   -0.2681 H   0  0  0  0  0  0  0  0  0  0  0  0
    0.8275    0.5454    3.6868 H   0  0  0  0  0  0  0  0  0  0  0  0
   -4.3496   -0.0572    2.9303 H   0  0  0  0  0  0  0  0  0  0  0  0
   -4.0342    1.5538    3.6080 H   0  0  0  0  0  0  0  0  0  0  0  0
    1.2922    1.0618   -0.6340 H   0  0  0  0  0  0  0  0  0  0  0  0
    3.6492    0.8586   -1.4888 H   0  0  0  0  0  0  0  0  0  0  0  0
    4.7072   -0.9798    2.1829 H   0  0  0  0  0  0  0  0  0  0  0  0
    2.3805   -0.7684    2.9918 H   0  0  0  0  0  0  0  0  0  0  0  0
    6.7348   -0.3556    1.6386 H   0  0  0  0  0  0  0  0  0  0  0  0
    6.0702   -1.8589    0.9725 H   0  0  0  0  0  0  0  0  0  0  0  0
    8.7117   -0.6933    0.5068 H   0  0  0  0  0  0  0  0  0  0  0  0
    8.1520   -2.3500    0.1786 H   0  0  0  0  0  0  0  0  0  0  0  0
    7.2606   -1.6225   -1.8591 H   0  0  0  0  0  0  0  0  0  0  0  0
    7.9324    0.9701   -0.7102 H   0  0  0  0  0  0  0  0  0  0  0  0
    7.8709    0.8061   -2.5439 H   0  0  0  0  0  0  0  0  0  0  0  0
    5.5943    1.4345   -1.5212 H   0  0  0  0  0  0  0  0  0  0  0  0
    5.6303   -0.2500   -2.2612 H   0  0  0  0  0  0  0  0  0  0  0  0
  1  2  1  0
  2  3  1  0
  3  4  2  0
  4  5  1  0
  5  6  2  0
  6  7  1  0
  7  8  1  0
  8  9  1  0
  7 10  2  0
 10 11  1  0
 11 12  1  0
  5 13  1  0
 13 14  2  0
 14 15  1  0
 15 16  2  0
 16 17  1  0
 17 18  2  0
 18 19  1  0
 15 20  1  0
 20 21  2  0
 21 22  1  0
 22 23  2  0
 23 24  1  0
 24 25  2  0
 23 26  1  0
 26 27  1  0
 27 28  1  0
 28 29  1  0
 29 30  1  0
 30 31  1  0
 10  3  1  0
 18 13  1  0
 25 20  1  0
 31 26  1  0
  1 32  1  0
  1 33  1  0
  1 34  1  0
  4 35  1  0
  6 36  1  0
  9 37  1  0
  9 38  1  0
  9 39  1  0
 12 40  1  0
 12 41  1  0
 12 42  1  0
 14 43  1  0
 16 44  1  0
 19 45  1  0
 19 46  1  0
 21 47  1  0
 22 48  1  0
 24 49  1  0
 25 50  1  0
 27 51  1  0
 27 52  1  0
 28 53  1  0
 28 54  1  0
 29 55  1  0
 30 56  1  0
 30 57  1  0
 31 58  1  0
 31 59  1  0
M  END
$$$$
[H]c1c([H])c([H])c2c(c1[H])c1c3c(c4c5c([H])c([H])c([H])c([H])c5n5c4c1n2[C]1O[C@]5([H])C([H])([H])[C@@]([H])(N([H])C([H])([H])[H])[C@@]1([H])OC([H])([H])[H])C(=O)N([H])C3([H])[H]
     RDKit          3D

 57 64  0  0  0  0  0  0  0  0999 V2000
   -5.1172    1.9689   -0.0439 C   0  0  0  0  0  0  0  0  0  0  0  0
   -4.4034    0.7553   -0.2928 N   0  0  0  0  0  0  0  0  0  0  0  0
   -3.2566    0.5690    0.5555 C   0  0  2  0  0  0  0  0  0  0  0  0
   -2.1955    1.6320    0.3676 C   0  0  0  0  0  0  0  0  0  0  0  0
   -1.1419    1.3553    1.4164 C   0  0  1  0  0  0  0  0  0  0  0  0
   -1.2862    0.1635    2.0733 O   0  0  0  0  0  0  0  0  0  0  0  0
   -1.4960   -0.9510    1.2685 C   0  0  0  0  0  3  0  0  0  0  0  0
   -2.5996   -0.7923    0.2993 C   0  0  2  0  0  0  0  0  0  0  0  0
   -2.3078   -0.9579   -1.0289 O   0  0  0  0  0  0  0  0  0  0  0  0
   -3.1431   -1.9109   -1.6049 C   0  0  0  0  0  0  0  0  0  0  0  0
   -0.2494   -1.4562    0.7208 N   0  0  0  0  0  0  0  0  0  0  0  0
    0.0493   -2.7407    0.4566 C   0  0  0  0  0  0  0  0  0  0  0  0
   -0.6609   -3.9112    0.6124 C   0  0  0  0  0  0  0  0  0  0  0  0
   -0.0850   -5.1013    0.2535 C   0  0  0  0  0  0  0  0  0  0  0  0
    1.1886   -5.2195   -0.2669 C   0  0  0  0  0  0  0  0  0  0  0  0
    1.9018   -4.0501   -0.4237 C   0  0  0  0  0  0  0  0  0  0  0  0
    1.3324   -2.8383   -0.0649 C   0  0  0  0  0  0  0  0  0  0  0  0
    1.8219   -1.5365   -0.1110 C   0  0  0  0  0  0  0  0  0  0  0  0
    3.0330   -1.0043   -0.5280 C   0  0  0  0  0  0  0  0  0  0  0  0
    4.2266   -1.6723   -1.0787 C   0  0  0  0  0  0  0  0  0  0  0  0
    5.1942   -0.6447   -1.3454 N   0  0  0  0  0  0  0  0  0  0  0  0
    4.6034    0.6119   -0.9620 C   0  0  0  0  0  0  0  0  0  0  0  0
    5.2477    1.6650   -1.0940 O   0  0  0  0  0  0  0  0  0  0  0  0
    3.2655    0.3645   -0.4591 C   0  0  0  0  0  0  0  0  0  0  0  0
    2.2622    1.1792    0.0339 C   0  0  0  0  0  0  0  0  0  0  0  0
    2.1352    2.5213    0.2486 C   0  0  0  0  0  0  0  0  0  0  0  0
    2.9596    3.5770    0.0506 C   0  0  0  0  0  0  0  0  0  0  0  0
    2.5262    4.8641    0.3815 C   0  0  0  0  0  0  0  0  0  0  0  0
    1.2569    5.0426    0.9087 C   0  0  0  0  0  0  0  0  0  0  0  0
    0.4187    3.9729    1.1106 C   0  0  0  0  0  0  0  0  0  0  0  0
    0.8492    2.7089    0.7836 C   0  0  0  0  0  0  0  0  0  0  0  0
    0.2101    1.5545    0.8968 N   0  0  0  0  0  0  0  0  0  0  0  0
    1.0530    0.6115    0.4454 C   0  0  0  0  0  0  0  0  0  0  0  0
    0.8352   -0.7497    0.3711 C   0  0  0  0  0  0  0  0  0  0  0  0
   -4.6926    2.5020    0.8197 H   0  0  0  0  0  0  0  0  0  0  0  0
   -6.2190    1.7934    0.1078 H   0  0  0  0  0  0  0  0  0  0  0  0
   -5.0769    2.6552   -0.9402 H   0  0  0  0  0  0  0  0  0  0  0  0
   -4.0364    0.7840   -1.2833 H   0  0  0  0  0  0  0  0  0  0  0  0
   -3.5472    0.5749    1.6244 H   0  0  0  0  0  0  0  0  0  0  0  0
   -1.7688    1.5766   -0.6744 H   0  0  0  0  0  0  0  0  0  0  0  0
   -2.6908    2.6181    0.5059 H   0  0  0  0  0  0  0  0  0  0  0  0
   -1.2653    2.1687    2.1915 H   0  0  0  0  0  0  0  0  0  0  0  0
   -3.4239   -1.5201    0.5741 H   0  0  0  0  0  0  0  0  0  0  0  0
   -3.0489   -2.8995   -1.1193 H   0  0  0  0  0  0  0  0  0  0  0  0
   -2.9152   -2.0317   -2.7021 H   0  0  0  0  0  0  0  0  0  0  0  0
   -4.2202   -1.5850   -1.5950 H   0  0  0  0  0  0  0  0  0  0  0  0
   -1.6494   -3.8644    1.0114 H   0  0  0  0  0  0  0  0  0  0  0  0
   -0.6554   -6.0247    0.3799 H   0  0  0  0  0  0  0  0  0  0  0  0
    1.5943   -6.1868   -0.5337 H   0  0  0  0  0  0  0  0  0  0  0  0
    2.9018   -4.0721   -0.8255 H   0  0  0  0  0  0  0  0  0  0  0  0
    4.6956   -2.3838   -0.3383 H   0  0  0  0  0  0  0  0  0  0  0  0
    3.9930   -2.2816   -1.9821 H   0  0  0  0  0  0  0  0  0  0  0  0
    6.1587   -0.7960   -1.7485 H   0  0  0  0  0  0  0  0  0  0  0  0
    3.9306    3.5119   -0.3439 H   0  0  0  0  0  0  0  0  0  0  0  0
    3.1434    5.7341    0.2417 H   0  0  0  0  0  0  0  0  0  0  0  0
    0.9221    6.0289    1.1624 H   0  0  0  0  0  0  0  0  0  0  0  0
   -0.5574    4.1169    1.5169 H   0  0  0  0  0  0  0  0  0  0  0  0
  1  2  1  0
  2  3  1  0
  3  4  1  0
  4  5  1  0
  5  6  1  0
  6  7  1  0
  7  8  1  0
  8  9  1  0
  9 10  1  0
  7 11  1  0
 11 12  1  0
 12 13  2  0
 13 14  1  0
 14 15  2  0
 15 16  1  0
 16 17  2  0
 17 18  1  0
 18 19  2  0
 19 20  1  0
 20 21  1  0
 21 22  1  0
 22 23  2  0
 22 24  1  0
 24 25  2  0
 25 26  1  0
 26 27  2  0
 27 28  1  0
 28 29  2  0
 29 30  1  0
 30 31  2  0
 31 32  1  0
 32 33  1  0
 33 34  2  0
  8  3  1  0
 34 11  1  0
 32  5  1  0
 17 12  1  0
 34 18  1  0
 24 19  1  0
 33 25  1  0
 31 26  1  0
  1 35  1  0
  1 36  1  0
  1 37  1  0
  2 38  1  0
  3 39  1  1
  4 40  1  0
  4 41  1  0
  5 42  1  1
  8 43  1  1
 10 44  1  0
 10 45  1  0
 10 46  1  0
 13 47  1  0
 14 48  1  0
 15 49  1  0
 16 50  1  0
 20 51  1  0
 20 52  1  0
 21 53  1  0
 27 54  1  0
 28 55  1  0
 29 56  1  0
 30 57  1  0
M  RAD  1   7   2
M  END
$$$$
[H]c1c([H])c(N([H])C(=O)c2c(C([H])([H])[H])c(C(=O)C(=O)N([H])C3(c4nnn([H])c4[H])C([H])([H])C3([H])[H])c3n2C([H])([H])C([H])([H])C3([H])[H])c([H])c(C#N)c1F
     RDKit          3D

 54 58  0  0  0  0  0  0  0  0999 V2000
   -0.3164    1.2926   -1.7844 C   0  0  0  0  0  0  0  0  0  0  0  0
   -0.4630    0.2041   -0.7653 C   0  0  0  0  0  0  0  0  0  0  0  0
    0.5569   -0.5975   -0.2990 C   0  0  0  0  0  0  0  0  0  0  0  0
    1.9520   -0.5557   -0.7234 C   0  0  0  0  0  0  0  0  0  0  0  0
    2.2899   -1.3083   -1.6644 O   0  0  0  0  0  0  0  0  0  0  0  0
    2.9344    0.3076   -0.1021 C   0  0  0  0  0  0  0  0  0  0  0  0
    2.5826    1.0916    0.7985 O   0  0  0  0  0  0  0  0  0  0  0  0
    4.2751    0.2506   -0.5236 N   0  0  0  0  0  0  0  0  0  0  0  0
    5.3574    1.0408   -0.0342 C   0  0  0  0  0  0  0  0  0  0  0  0
    5.5602    0.9806    1.5102 C   0  0  0  0  0  0  0  0  0  0  0  0
    5.2100    2.2748    0.7961 C   0  0  0  0  0  0  0  0  0  0  0  0
    6.6445    0.8804   -0.8134 C   0  0  0  0  0  0  0  0  0  0  0  0
    7.2114   -0.3457   -1.0471 C   0  0  0  0  0  0  0  0  0  0  0  0
    8.3508   -0.1191   -1.7581 N   0  0  0  0  0  0  0  0  0  0  0  0
    8.4392    1.1716   -1.9258 N   0  0  0  0  0  0  0  0  0  0  0  0
    7.4075    1.8087   -1.3570 N   0  0  0  0  0  0  0  0  0  0  0  0
    0.0188   -1.4664    0.6307 C   0  0  0  0  0  0  0  0  0  0  0  0
    0.4451   -2.5844    1.5162 C   0  0  0  0  0  0  0  0  0  0  0  0
   -0.6564   -2.6200    2.5324 C   0  0  0  0  0  0  0  0  0  0  0  0
   -1.8604   -2.1526    1.7552 C   0  0  0  0  0  0  0  0  0  0  0  0
   -1.2916   -1.2276    0.7524 N   0  0  0  0  0  0  0  0  0  0  0  0
   -1.6044   -0.2139   -0.0908 C   0  0  0  0  0  0  0  0  0  0  0  0
   -2.9131    0.4302   -0.3126 C   0  0  0  0  0  0  0  0  0  0  0  0
   -2.9281    1.4932   -0.9690 O   0  0  0  0  0  0  0  0  0  0  0  0
   -4.0698   -0.1420    0.1991 N   0  0  0  0  0  0  0  0  0  0  0  0
   -5.3658    0.3797    0.0746 C   0  0  0  0  0  0  0  0  0  0  0  0
   -5.6086    1.6838   -0.2046 C   0  0  0  0  0  0  0  0  0  0  0  0
   -6.9271    2.1339   -0.3261 C   0  0  0  0  0  0  0  0  0  0  0  0
   -8.0038    1.2946   -0.1710 C   0  0  0  0  0  0  0  0  0  0  0  0
   -9.2902    1.6814   -0.2816 F   0  0  0  0  0  0  0  0  0  0  0  0
   -7.7547   -0.0284    0.1127 C   0  0  0  0  0  0  0  0  0  0  0  0
   -6.4748   -0.4662    0.2304 C   0  0  0  0  0  0  0  0  0  0  0  0
   -8.8393   -0.9805    0.2963 C   0  0  0  0  0  0  0  0  0  0  0  0
   -9.7030   -1.7258    0.4322 N   0  0  0  0  0  0  0  0  0  0  0  0
    0.7878    1.4206   -1.9846 H   0  0  0  0  0  0  0  0  0  0  0  0
   -0.6176    2.2605   -1.3020 H   0  0  0  0  0  0  0  0  0  0  0  0
   -0.8143    1.0969   -2.7388 H   0  0  0  0  0  0  0  0  0  0  0  0
    4.5359   -0.4509   -1.2893 H   0  0  0  0  0  0  0  0  0  0  0  0
    6.5919    0.7661    1.8259 H   0  0  0  0  0  0  0  0  0  0  0  0
    4.7480    0.4730    2.0790 H   0  0  0  0  0  0  0  0  0  0  0  0
    4.2566    2.7130    1.0715 H   0  0  0  0  0  0  0  0  0  0  0  0
    6.0700    2.9957    0.6629 H   0  0  0  0  0  0  0  0  0  0  0  0
    6.8303   -1.3105   -0.7351 H   0  0  0  0  0  0  0  0  0  0  0  0
    8.9644   -0.9116   -2.0628 H   0  0  0  0  0  0  0  0  0  0  0  0
    1.4543   -2.4220    1.9251 H   0  0  0  0  0  0  0  0  0  0  0  0
    0.3872   -3.4960    0.8698 H   0  0  0  0  0  0  0  0  0  0  0  0
   -0.4634   -1.8393    3.2883 H   0  0  0  0  0  0  0  0  0  0  0  0
   -0.8078   -3.6301    2.9799 H   0  0  0  0  0  0  0  0  0  0  0  0
   -2.5655   -1.5938    2.4351 H   0  0  0  0  0  0  0  0  0  0  0  0
   -2.3418   -2.9495    1.1866 H   0  0  0  0  0  0  0  0  0  0  0  0
   -4.0194   -1.0775    0.7380 H   0  0  0  0  0  0  0  0  0  0  0  0
   -4.8154    2.4391   -0.3261 H   0  0  0  0  0  0  0  0  0  0  0  0
   -7.0814    3.1720   -0.5420 H   0  0  0  0  0  0  0  0  0  0  0  0
   -6.2652   -1.5217    0.4500 H   0  0  0  0  0  0  0  0  0  0  0  0
  1  2  1  0
  2  3  1  0
  3  4  1  0
  4  5  2  0
  4  6  1  0
  6  7  2  0
  6  8  1  0
  8  9  1  0
  9 10  1  0
 10 11  1  0
  9 12  1  0
 12 13  2  0
 13 14  1  0
 14 15  1  0
 15 16  2  0
  3 17  2  0
 17 18  1  0
 18 19  1  0
 19 20  1  0
 20 21  1  0
 21 22  1  0
 22 23  1  0
 23 24  2  0
 23 25  1  0
 25 26  1  0
 26 27  2  0
 27 28  1  0
 28 29  2  0
 29 30  1  0
 29 31  1  0
 31 32  2  0
 31 33  1  0
 33 34  3  0
 22  2  2  0
 32 26  1  0
 11  9  1  0
 16 12  1  0
 21 17  1  0
  1 35  1  0
  1 36  1  0
  1 37  1  0
  8 38  1  0
 10 39  1  0
 10 40  1  0
 11 41  1  0
 11 42  1  0
 13 43  1  0
 14 44  1  0
 18 45  1  0
 18 46  1  0
 19 47  1  0
 19 48  1  0
 20 49  1  0
 20 50  1  0
 25 51  1  0
 27 52  1  0
 28 53  1  0
 32 54  1  0
M  END
$$$$
[H]Oc1c([H])c(-c2c([H])c([H])c(Cl)c(Cl)c2[H])nc2c([H])c(OC([H])([H])[H])c(-c3oc([H])nc3[H])c([H])c12
     RDKit          3D

 38 41  0  0  0  0  0  0  0  0999 V2000
   -2.8490    2.8769    2.1332 C   0  0  0  0  0  0  0  0  0  0  0  0
   -3.2748    1.7601    1.3802 O   0  0  0  0  0  0  0  0  0  0  0  0
   -2.3680    0.8952    0.7838 C   0  0  0  0  0  0  0  0  0  0  0  0
   -0.9986    1.0516    0.8752 C   0  0  0  0  0  0  0  0  0  0  0  0
   -0.1168    0.1713    0.2686 C   0  0  0  0  0  0  0  0  0  0  0  0
    1.2080    0.3491    0.3751 N   0  0  0  0  0  0  0  0  0  0  0  0
    2.1235   -0.4703   -0.1905 C   0  0  0  0  0  0  0  0  0  0  0  0
    1.6828   -1.5388   -0.9105 C   0  0  0  0  0  0  0  0  0  0  0  0
    0.3005   -1.7651   -1.0492 C   0  0  0  0  0  0  0  0  0  0  0  0
   -0.1578   -2.8329   -1.7685 O   0  0  0  0  0  0  0  0  0  0  0  0
   -0.6001   -0.9000   -0.4528 C   0  0  0  0  0  0  0  0  0  0  0  0
   -1.9676   -1.0553   -0.5435 C   0  0  0  0  0  0  0  0  0  0  0  0
   -2.8476   -0.1773    0.0615 C   0  0  0  0  0  0  0  0  0  0  0  0
   -4.2981   -0.3786   -0.0594 C   0  0  0  0  0  0  0  0  0  0  0  0
   -4.9707   -1.3682   -0.7235 C   0  0  0  0  0  0  0  0  0  0  0  0
   -6.2984   -1.1942   -0.5912 N   0  0  0  0  0  0  0  0  0  0  0  0
   -6.4181   -0.0766    0.1682 C   0  0  0  0  0  0  0  0  0  0  0  0
   -5.2220    0.3864    0.4694 O   0  0  0  0  0  0  0  0  0  0  0  0
    3.5464   -0.2064   -0.0268 C   0  0  0  0  0  0  0  0  0  0  0  0
    4.5472   -0.9758   -0.5593 C   0  0  0  0  0  0  0  0  0  0  0  0
    5.8722   -0.6784   -0.3717 C   0  0  0  0  0  0  0  0  0  0  0  0
    6.2717    0.4055    0.3591 C   0  0  0  0  0  0  0  0  0  0  0  0
    7.9836    0.7438    0.5703 Cl  0  0  0  0  0  0  0  0  0  0  0  0
    5.2947    1.2062    0.9126 C   0  0  0  0  0  0  0  0  0  0  0  0
    5.7630    2.6202    1.8666 Cl  0  0  0  0  0  0  0  0  0  0  0  0
    3.9717    0.8978    0.7176 C   0  0  0  0  0  0  0  0  0  0  0  0
   -2.0359    2.5452    2.7999 H   0  0  0  0  0  0  0  0  0  0  0  0
   -3.7191    3.1884    2.7521 H   0  0  0  0  0  0  0  0  0  0  0  0
   -2.5400    3.6760    1.4237 H   0  0  0  0  0  0  0  0  0  0  0  0
   -0.6454    1.9061    1.4510 H   0  0  0  0  0  0  0  0  0  0  0  0
    2.3729   -2.2133   -1.3754 H   0  0  0  0  0  0  0  0  0  0  0  0
    0.5067   -3.4561   -2.1983 H   0  0  0  0  0  0  0  0  0  0  0  0
   -2.3263   -1.9184   -1.1251 H   0  0  0  0  0  0  0  0  0  0  0  0
   -4.5384   -2.1850   -1.2822 H   0  0  0  0  0  0  0  0  0  0  0  0
   -7.3516    0.3608    0.4749 H   0  0  0  0  0  0  0  0  0  0  0  0
    4.2861   -1.8379   -1.1412 H   0  0  0  0  0  0  0  0  0  0  0  0
    6.6288   -1.3256   -0.8188 H   0  0  0  0  0  0  0  0  0  0  0  0
    3.1844    1.5133    1.1435 H   0  0  0  0  0  0  0  0  0  0  0  0
  1  2  1  0
  2  3  1  0
  3  4  2  0
  4  5  1  0
  5  6  2  0
  6  7  1  0
  7  8  2  0
  8  9  1  0
  9 10  1  0
  9 11  2  0
 11 12  1  0
 12 13  2  0
 13 14  1  0
 14 15  2  0
 15 16  1  0
 16 17  2  0
 17 18  1  0
  7 19  1  0
 19 20  2  0
 20 21  1  0
 21 22  2  0
 22 23  1  0
 22 24  1  0
 24 25  1  0
 24 26  2  0
 13  3  1  0
 18 14  1  0
 26 19  1  0
 11  5  1  0
  1 27  1  0
  1 28  1  0
  1 29  1  0
  4 30  1  0
  8 31  1  0
 10 32  1  0
 12 33  1  0
 15 34  1  0
 17 35  1  0
 20 36  1  0
 21 37  1  0
 26 38  1  0
M  END
$$$$
[H]N=C(N([H])[H])N([H])C([H])([H])C([H])([H])C([H])([H])[C@@]([H])(C(=O)N([H])[C@]([H])(C(=O)O[H])C([H])([H])C([H])([H])C(=O)O[H])N([H])C(=O)[C@@]([H])(N([H])C(=O)[C@@]([H])(N([H])C(=O)[C@@]([H])(N([H])[H])C([H])([H])C([H])([H])C(=O)O[H])C([H])([H])C([H])([H])C(=O)O[H])C([H])([H])C([H])([H])C(=O)O[H]
     RDKit          3D

 90 89  0  0  0  0  0  0  0  0999 V2000
   -2.2834   -3.5734    4.5579 N   0  0  0  0  0  0  0  0  0  0  0  0
   -3.3618   -2.6530    4.4699 C   0  0  0  0  0  0  0  0  0  0  0  0
   -4.5321   -3.0447    4.8285 N   0  0  0  0  0  0  0  0  0  0  0  0
   -3.0756   -1.3510    3.9902 N   0  0  0  0  0  0  0  0  0  0  0  0
   -2.5176   -1.1258    2.6360 C   0  0  0  0  0  0  0  0  0  0  0  0
   -3.5978   -1.4905    1.6898 C   0  0  0  0  0  0  0  0  0  0  0  0
   -3.3624   -1.4131    0.2499 C   0  0  0  0  0  0  0  0  0  0  0  0
   -3.0286   -0.1367   -0.4131 C   0  0  2  0  0  0  0  0  0  0  0  0
   -1.8215    0.5223    0.0218 N   0  0  0  0  0  0  0  0  0  0  0  0
   -0.5674    0.2962   -0.6022 C   0  0  0  0  0  0  0  0  0  0  0  0
   -0.5337   -0.5238   -1.5677 O   0  0  0  0  0  0  0  0  0  0  0  0
    0.6808    0.9697   -0.1757 C   0  0  2  0  0  0  0  0  0  0  0  0
    0.5920    2.4771   -0.3893 C   0  0  0  0  0  0  0  0  0  0  0  0
    0.3690    2.7955   -1.8502 C   0  0  0  0  0  0  0  0  0  0  0  0
    0.2741    4.2363   -2.1106 C   0  0  0  0  0  0  0  0  0  0  0  0
    0.3462    5.1356   -1.0649 O   0  0  0  0  0  0  0  0  0  0  0  0
    0.1252    4.6699   -3.2958 O   0  0  0  0  0  0  0  0  0  0  0  0
    1.7957    0.4824   -0.9746 N   0  0  0  0  0  0  0  0  0  0  0  0
    3.0521    0.1416   -0.4028 C   0  0  0  0  0  0  0  0  0  0  0  0
    3.2075    0.2764    0.8176 O   0  0  0  0  0  0  0  0  0  0  0  0
    4.1635   -0.3679   -1.2398 C   0  0  2  0  0  0  0  0  0  0  0  0
    3.6389   -1.6607   -1.8643 C   0  0  0  0  0  0  0  0  0  0  0  0
    4.6135   -2.3382   -2.7623 C   0  0  0  0  0  0  0  0  0  0  0  0
    5.0132   -1.5285   -3.9271 C   0  0  0  0  0  0  0  0  0  0  0  0
    4.4441   -1.8025   -5.1605 O   0  0  0  0  0  0  0  0  0  0  0  0
    5.8466   -0.6031   -3.8474 O   0  0  0  0  0  0  0  0  0  0  0  0
    5.3528   -0.5835   -0.4515 N   0  0  0  0  0  0  0  0  0  0  0  0
    5.6424   -1.6595    0.3845 C   0  0  0  0  0  0  0  0  0  0  0  0
    4.8584   -2.6246    0.5799 O   0  0  0  0  0  0  0  0  0  0  0  0
    6.9459   -1.7593    1.1406 C   0  0  1  0  0  0  0  0  0  0  0  0
    7.8508   -0.7118    0.6594 N   0  0  0  0  0  0  0  0  0  0  0  0
    6.6813   -1.5409    2.6017 C   0  0  0  0  0  0  0  0  0  0  0  0
    7.8573   -1.6408    3.5048 C   0  0  0  0  0  0  0  0  0  0  0  0
    8.9577   -0.7143    3.2360 C   0  0  0  0  0  0  0  0  0  0  0  0
    8.8746    0.5964    3.6656 O   0  0  0  0  0  0  0  0  0  0  0  0
    9.9892   -1.0879    2.6162 O   0  0  0  0  0  0  0  0  0  0  0  0
   -4.1594    0.8185   -0.5388 C   0  0  0  0  0  0  0  0  0  0  0  0
   -4.0340    2.0406   -0.2493 O   0  0  0  0  0  0  0  0  0  0  0  0
   -5.4065    0.3617   -0.9891 N   0  0  0  0  0  0  0  0  0  0  0  0
   -6.5588    1.2951   -1.1169 C   0  0  1  0  0  0  0  0  0  0  0  0
   -6.9610    1.3752   -2.5446 C   0  0  0  0  0  0  0  0  0  0  0  0
   -8.0767    2.3101   -2.8237 C   0  0  0  0  0  0  0  0  0  0  0  0
   -7.7561    3.6976   -2.4886 C   0  0  0  0  0  0  0  0  0  0  0  0
   -7.4859    4.6019   -3.5314 O   0  0  0  0  0  0  0  0  0  0  0  0
   -7.6969    4.1761   -1.3341 O   0  0  0  0  0  0  0  0  0  0  0  0
   -7.6441    0.7930   -0.2221 C   0  0  0  0  0  0  0  0  0  0  0  0
   -8.8596    1.3666   -0.0087 O   0  0  0  0  0  0  0  0  0  0  0  0
   -7.4056   -0.2938    0.4126 O   0  0  0  0  0  0  0  0  0  0  0  0
   -1.3883   -3.4198    4.0197 H   0  0  0  0  0  0  0  0  0  0  0  0
   -2.3224   -4.4328    5.1518 H   0  0  0  0  0  0  0  0  0  0  0  0
   -5.3765   -2.4024    4.7849 H   0  0  0  0  0  0  0  0  0  0  0  0
   -3.2719   -0.5500    4.6224 H   0  0  0  0  0  0  0  0  0  0  0  0
   -1.6816   -1.8675    2.5739 H   0  0  0  0  0  0  0  0  0  0  0  0
   -2.1617   -0.1020    2.6399 H   0  0  0  0  0  0  0  0  0  0  0  0
   -4.5701   -0.9817    2.0101 H   0  0  0  0  0  0  0  0  0  0  0  0
   -3.8501   -2.5785    1.9183 H   0  0  0  0  0  0  0  0  0  0  0  0
   -4.2555   -1.8406   -0.2748 H   0  0  0  0  0  0  0  0  0  0  0  0
   -2.5103   -2.1212    0.0138 H   0  0  0  0  0  0  0  0  0  0  0  0
   -2.7865   -0.4445   -1.4907 H   0  0  0  0  0  0  0  0  0  0  0  0
   -1.8637    1.1997    0.8000 H   0  0  0  0  0  0  0  0  0  0  0  0
    0.9469    0.8334    0.8802 H   0  0  0  0  0  0  0  0  0  0  0  0
   -0.1839    2.9288    0.2677 H   0  0  0  0  0  0  0  0  0  0  0  0
    1.5624    2.9109   -0.0741 H   0  0  0  0  0  0  0  0  0  0  0  0
   -0.5313    2.2369   -2.1663 H   0  0  0  0  0  0  0  0  0  0  0  0
    1.2686    2.4029   -2.3900 H   0  0  0  0  0  0  0  0  0  0  0  0
   -0.3221    5.8856   -0.9381 H   0  0  0  0  0  0  0  0  0  0  0  0
    1.6437    0.3864   -2.0004 H   0  0  0  0  0  0  0  0  0  0  0  0
    4.3728    0.2843   -2.1009 H   0  0  0  0  0  0  0  0  0  0  0  0
    2.7932   -1.2960   -2.5362 H   0  0  0  0  0  0  0  0  0  0  0  0
    3.2102   -2.3254   -1.1055 H   0  0  0  0  0  0  0  0  0  0  0  0
    4.1572   -3.3160   -3.0753 H   0  0  0  0  0  0  0  0  0  0  0  0
    5.5332   -2.6384   -2.1893 H   0  0  0  0  0  0  0  0  0  0  0  0
    4.2681   -2.7977   -5.3656 H   0  0  0  0  0  0  0  0  0  0  0  0
    6.1050    0.1764   -0.5136 H   0  0  0  0  0  0  0  0  0  0  0  0
    7.3747   -2.7402    0.9697 H   0  0  0  0  0  0  0  0  0  0  0  0
    7.5154    0.2137    0.9309 H   0  0  0  0  0  0  0  0  0  0  0  0
    7.8710   -0.7804   -0.3758 H   0  0  0  0  0  0  0  0  0  0  0  0
    5.9075   -2.2535    2.9761 H   0  0  0  0  0  0  0  0  0  0  0  0
    6.2630   -0.5098    2.7117 H   0  0  0  0  0  0  0  0  0  0  0  0
    8.2765   -2.6814    3.5558 H   0  0  0  0  0  0  0  0  0  0  0  0
    7.5007   -1.4491    4.5466 H   0  0  0  0  0  0  0  0  0  0  0  0
    9.0024    0.7723    4.6568 H   0  0  0  0  0  0  0  0  0  0  0  0
   -5.5446   -0.6358   -1.2437 H   0  0  0  0  0  0  0  0  0  0  0  0
   -6.2392    2.2765   -0.7551 H   0  0  0  0  0  0  0  0  0  0  0  0
   -6.0487    1.6508   -3.1324 H   0  0  0  0  0  0  0  0  0  0  0  0
   -7.2468    0.3483   -2.9329 H   0  0  0  0  0  0  0  0  0  0  0  0
   -8.3718    2.2719   -3.9121 H   0  0  0  0  0  0  0  0  0  0  0  0
   -9.0077    2.0103   -2.2893 H   0  0  0  0  0  0  0  0  0  0  0  0
   -6.7600    5.2920   -3.4136 H   0  0  0  0  0  0  0  0  0  0  0  0
   -9.7241    0.8770    0.1297 H   0  0  0  0  0  0  0  0  0  0  0  0
  1  2  1  0
  2  3  2  3
  2  4  1  0
  4  5  1  0
  5  6  1  0
  6  7  1  0
  7  8  1  0
  8  9  1  0
  9 10  1  0
 10 11  2  0
 10 12  1  0
 12 13  1  0
 13 14  1  0
 14 15  1  0
 15 16  1  0
 15 17  2  0
 12 18  1  0
 18 19  1  0
 19 20  2  0
 19 21  1  0
 21 22  1  0
 22 23  1  0
 23 24  1  0
 24 25  1  0
 24 26  2  0
 21 27  1  0
 27 28  1  0
 28 29  2  0
 28 30  1  0
 30 31  1  0
 30 32  1  0
 32 33  1  0
 33 34  1  0
 34 35  1  0
 34 36  2  0
  8 37  1  0
 37 38  2  0
 37 39  1  0
 39 40  1  0
 40 41  1  0
 41 42  1  0
 42 43  1  0
 43 44  1  0
 43 45  2  0
 40 46  1  0
 46 47  1  0
 46 48  2  0
  1 49  1  0
  1 50  1  0
  3 51  1  0
  4 52  1  0
  5 53  1  0
  5 54  1  0
  6 55  1  0
  6 56  1  0
  7 57  1  0
  7 58  1  0
  8 59  1  6
  9 60  1  0
 12 61  1  1
 13 62  1  0
 13 63  1  0
 14 64  1  0
 14 65  1  0
 16 66  1  0
 18 67  1  0
 21 68  1  6
 22 69  1  0
 22 70  1  0
 23 71  1  0
 23 72  1  0
 25 73  1  0
 27 74  1  0
 30 75  1  1
 31 76  1  0
 31 77  1  0
 32 78  1  0
 32 79  1  0
 33 80  1  0
 33 81  1  0
 35 82  1  0
 39 83  1  0
 40 84  1  1
 41 85  1  0
 41 86  1  0
 42 87  1  0
 42 88  1  0
 44 89  1  0
 47 90  1  0
M  END
$$$$
[H]N=C(C(=O)[C@@]([H])(N([H])C(=O)[C@@]1([H])N(C(=O)[C@@]([H])(N([H])C(=O)OC([H])([H])c2c([H])c([H])c([H])c([H])c2[H])C([H])(c2c([H])c([H])c([H])c([H])c2[H])c2c([H])c([H])c([H])c([H])c2[H])C([H])([H])C([H])([H])C1([H])[H])C([H])(C([H])([H])[H])C([H])([H])[H])N([H])[H]
     RDKit          3D

 83 86  0  0  0  0  0  0  0  0999 V2000
   -5.8137    0.2783   -1.8767 C   0  0  0  0  0  0  0  0  0  0  0  0
   -6.0782   -0.3996   -0.5652 C   0  0  0  0  0  0  0  0  0  0  0  0
   -5.4336   -1.7956   -0.5985 C   0  0  0  0  0  0  0  0  0  0  0  0
   -5.6443    0.3536    0.6556 C   0  0  2  0  0  0  0  0  0  0  0  0
   -4.2962    0.6236    0.9116 N   0  0  0  0  0  0  0  0  0  0  0  0
   -3.1525    1.0009    0.2176 C   0  0  0  0  0  0  0  0  0  0  0  0
   -3.0892    1.1501   -1.0013 O   0  0  0  0  0  0  0  0  0  0  0  0
   -1.8574    1.2718    0.9521 C   0  0  2  0  0  0  0  0  0  0  0  0
   -1.8348    2.7872    1.2989 C   0  0  0  0  0  0  0  0  0  0  0  0
   -1.7019    3.3082   -0.1517 C   0  0  0  0  0  0  0  0  0  0  0  0
   -0.7753    2.3251   -0.8084 C   0  0  0  0  0  0  0  0  0  0  0  0
   -0.6868    1.2251    0.1129 N   0  0  0  0  0  0  0  0  0  0  0  0
    0.3207    0.2518    0.3143 C   0  0  0  0  0  0  0  0  0  0  0  0
    0.2214   -0.5824    1.2939 O   0  0  0  0  0  0  0  0  0  0  0  0
    1.5609    0.0371   -0.4868 C   0  0  1  0  0  0  0  0  0  0  0  0
    2.6362   -0.1511    0.5188 N   0  0  0  0  0  0  0  0  0  0  0  0
    3.7864    0.6901    0.5427 C   0  0  0  0  0  0  0  0  0  0  0  0
    3.9634    1.6156   -0.2810 O   0  0  0  0  0  0  0  0  0  0  0  0
    4.7712    0.5092    1.5087 O   0  0  0  0  0  0  0  0  0  0  0  0
    5.8997    1.3281    1.5376 C   0  0  0  0  0  0  0  0  0  0  0  0
    6.8051    1.0134    2.6747 C   0  0  0  0  0  0  0  0  0  0  0  0
    8.0372    1.6142    2.6810 C   0  0  0  0  0  0  0  0  0  0  0  0
    8.9382    1.3924    3.7325 C   0  0  0  0  0  0  0  0  0  0  0  0
    8.5864    0.5730    4.7579 C   0  0  0  0  0  0  0  0  0  0  0  0
    7.3588   -0.0366    4.7685 C   0  0  0  0  0  0  0  0  0  0  0  0
    6.4647    0.1867    3.7195 C   0  0  0  0  0  0  0  0  0  0  0  0
    1.4349   -1.2329   -1.3054 C   0  0  0  0  0  0  0  0  0  0  0  0
    0.3159   -1.1582   -2.2808 C   0  0  0  0  0  0  0  0  0  0  0  0
    0.3890   -0.2900   -3.3512 C   0  0  0  0  0  0  0  0  0  0  0  0
   -0.6247   -0.2470   -4.2550 C   0  0  0  0  0  0  0  0  0  0  0  0
   -1.7554   -1.0637   -4.1308 C   0  0  0  0  0  0  0  0  0  0  0  0
   -1.8286   -1.9198   -3.0717 C   0  0  0  0  0  0  0  0  0  0  0  0
   -0.7992   -1.9590   -2.1622 C   0  0  0  0  0  0  0  0  0  0  0  0
    2.6548   -1.8364   -1.7896 C   0  0  0  0  0  0  0  0  0  0  0  0
    3.5540   -1.1594   -2.5768 C   0  0  0  0  0  0  0  0  0  0  0  0
    4.7245   -1.7722   -3.0321 C   0  0  0  0  0  0  0  0  0  0  0  0
    5.0298   -3.0490   -2.7239 C   0  0  0  0  0  0  0  0  0  0  0  0
    4.1406   -3.7686   -1.9260 C   0  0  0  0  0  0  0  0  0  0  0  0
    2.9956   -3.1632   -1.4841 C   0  0  0  0  0  0  0  0  0  0  0  0
   -6.4011   -0.1279    1.8419 C   0  0  0  0  0  0  0  0  0  0  0  0
   -5.7918   -0.9356    2.6611 O   0  0  0  0  0  0  0  0  0  0  0  0
   -7.7420    0.1989    2.2022 C   0  0  0  0  0  0  0  0  0  0  0  0
   -8.3708   -0.3155    3.3812 N   0  0  0  0  0  0  0  0  0  0  0  0
   -8.4718    0.9796    1.4958 N   0  0  0  0  0  0  0  0  0  0  0  0
   -6.7493    0.2082   -2.5484 H   0  0  0  0  0  0  0  0  0  0  0  0
   -5.6906    1.3958   -1.7848 H   0  0  0  0  0  0  0  0  0  0  0  0
   -5.0438   -0.2032   -2.4961 H   0  0  0  0  0  0  0  0  0  0  0  0
   -7.1863   -0.6079   -0.5061 H   0  0  0  0  0  0  0  0  0  0  0  0
   -6.1549   -2.6000   -0.3742 H   0  0  0  0  0  0  0  0  0  0  0  0
   -4.6561   -1.8642    0.1883 H   0  0  0  0  0  0  0  0  0  0  0  0
   -5.0232   -1.9763   -1.6233 H   0  0  0  0  0  0  0  0  0  0  0  0
   -6.0945    1.4187    0.4089 H   0  0  0  0  0  0  0  0  0  0  0  0
   -4.0600    0.5006    2.0095 H   0  0  0  0  0  0  0  0  0  0  0  0
   -1.8268    0.6476    1.8392 H   0  0  0  0  0  0  0  0  0  0  0  0
   -2.7569    3.1090    1.7754 H   0  0  0  0  0  0  0  0  0  0  0  0
   -0.9055    2.9325    1.8613 H   0  0  0  0  0  0  0  0  0  0  0  0
   -1.2864    4.3210   -0.0569 H   0  0  0  0  0  0  0  0  0  0  0  0
   -2.6774    3.4229   -0.6132 H   0  0  0  0  0  0  0  0  0  0  0  0
   -1.0508    2.0445   -1.8398 H   0  0  0  0  0  0  0  0  0  0  0  0
    0.2008    2.8638   -0.9176 H   0  0  0  0  0  0  0  0  0  0  0  0
    1.8591    0.8490   -1.1188 H   0  0  0  0  0  0  0  0  0  0  0  0
    2.5409   -0.9094    1.2180 H   0  0  0  0  0  0  0  0  0  0  0  0
    6.5198    1.2229    0.6044 H   0  0  0  0  0  0  0  0  0  0  0  0
    5.5748    2.3797    1.6250 H   0  0  0  0  0  0  0  0  0  0  0  0
    8.3789    2.2754    1.8996 H   0  0  0  0  0  0  0  0  0  0  0  0
    9.9081    1.8664    3.7343 H   0  0  0  0  0  0  0  0  0  0  0  0
    9.2799    0.4024    5.5756 H   0  0  0  0  0  0  0  0  0  0  0  0
    7.1033   -0.6795    5.5944 H   0  0  0  0  0  0  0  0  0  0  0  0
    5.5006   -0.2894    3.7273 H   0  0  0  0  0  0  0  0  0  0  0  0
    1.0620   -1.9787   -0.4759 H   0  0  0  0  0  0  0  0  0  0  0  0
    1.2357    0.3436   -3.4522 H   0  0  0  0  0  0  0  0  0  0  0  0
   -0.5904    0.4189   -5.1076 H   0  0  0  0  0  0  0  0  0  0  0  0
   -2.5559   -1.0147   -4.8593 H   0  0  0  0  0  0  0  0  0  0  0  0
   -2.6784   -2.5920   -2.8956 H   0  0  0  0  0  0  0  0  0  0  0  0
   -0.8438   -2.6429   -1.2957 H   0  0  0  0  0  0  0  0  0  0  0  0
    3.4294   -0.1524   -2.8840 H   0  0  0  0  0  0  0  0  0  0  0  0
    5.4330   -1.2140   -3.6685 H   0  0  0  0  0  0  0  0  0  0  0  0
    5.9540   -3.4853   -3.1050 H   0  0  0  0  0  0  0  0  0  0  0  0
    4.4172   -4.7851   -1.6988 H   0  0  0  0  0  0  0  0  0  0  0  0
    2.3270   -3.7233   -0.8766 H   0  0  0  0  0  0  0  0  0  0  0  0
   -8.2100    0.0489    4.3385 H   0  0  0  0  0  0  0  0  0  0  0  0
   -9.0463   -1.1134    3.2821 H   0  0  0  0  0  0  0  0  0  0  0  0
   -8.0774    1.4096    0.5953 H   0  0  0  0  0  0  0  0  0  0  0  0
  1  2  1  0
  2  3  1  0
  2  4  1  0
  4  5  1  0
  5  6  1  0
  6  7  2  0
  6  8  1  0
  8  9  1  0
  9 10  1  0
 10 11  1  0
 11 12  1  0
 12 13  1  0
 13 14  2  0
 13 15  1  0
 15 16  1  0
 16 17  1  0
 17 18  2  0
 17 19  1  0
 19 20  1  0
 20 21  1  0
 21 22  2  0
 22 23  1  0
 23 24  2  0
 24 25  1  0
 25 26  2  0
 15 27  1  0
 27 28  1  0
 28 29  2  0
 29 30  1  0
 30 31  2  0
 31 32  1  0
 32 33  2  0
 27 34  1  0
 34 35  2  0
 35 36  1  0
 36 37  2  0
 37 38  1  0
 38 39  2  0
  4 40  1  0
 40 41  2  0
 40 42  1  0
 42 43  1  0
 42 44  2  3
 12  8  1  0
 26 21  1  0
 33 28  1  0
 39 34  1  0
  1 45  1  0
  1 46  1  0
  1 47  1  0
  2 48  1  0
  3 49  1  0
  3 50  1  0
  3 51  1  0
  4 52  1  6
  5 53  1  0
  8 54  1  1
  9 55  1  0
  9 56  1  0
 10 57  1  0
 10 58  1  0
 11 59  1  0
 11 60  1  0
 15 61  1  6
 16 62  1  0
 20 63  1  0
 20 64  1  0
 22 65  1  0
 23 66  1  0
 24 67  1  0
 25 68  1  0
 26 69  1  0
 27 70  1  0
 29 71  1  0
 30 72  1  0
 31 73  1  0
 32 74  1  0
 33 75  1  0
 35 76  1  0
 36 77  1  0
 37 78  1  0
 38 79  1  0
 39 80  1  0
 43 81  1  0
 43 82  1  0
 44 83  1  0
M  END
$$$$
[H]C1=C(C(=O)[O-])N2C(=O)/C(=C(\[H])c3c([H])n4n(c3=O)C([H])([H])C([H])([H])C4([H])[H])[C@@]2([H])S1
     RDKit          3D

 31 34  0  0  0  0  0  0  0  0999 V2000
    6.3617    0.7897   -0.0730 O   0  0  0  0  0  0  0  0  0  0  0  0
    5.7845   -0.4425   -0.2580 C   0  0  0  0  0  0  0  0  0  0  0  0
    6.5270   -1.4741   -0.3053 O   0  0  0  0  0  0  0  0  0  0  0  0
    4.3278   -0.5600   -0.3988 C   0  0  0  0  0  0  0  0  0  0  0  0
    3.7455   -1.7236   -0.5744 C   0  0  0  0  0  0  0  0  0  0  0  0
    1.9818   -1.3666   -0.6857 S   0  0  0  0  0  0  0  0  0  0  0  0
    2.1522    0.2428    0.2190 C   0  0  1  0  0  0  0  0  0  0  0  0
    3.4677    0.5556   -0.3913 N   0  0  0  0  0  0  0  0  0  0  0  0
    2.9478    1.8726   -0.5850 C   0  0  0  0  0  0  0  0  0  0  0  0
    3.4713    2.9938   -0.8315 O   0  0  0  0  0  0  0  0  0  0  0  0
    1.5579    1.3989   -0.3820 C   0  0  0  0  0  0  0  0  0  0  0  0
    0.3878    1.9111   -0.6512 C   0  0  0  0  0  0  0  0  0  0  0  0
   -0.8151    1.1882   -0.2781 C   0  0  0  0  0  0  0  0  0  0  0  0
   -1.0097    0.2342    0.6923 C   0  0  0  0  0  0  0  0  0  0  0  0
   -2.3050   -0.1096    0.6810 N   0  0  0  0  0  0  0  0  0  0  0  0
   -3.1834   -1.0277    1.3996 C   0  0  0  0  0  0  0  0  0  0  0  0
   -4.4388   -1.0632    0.5818 C   0  0  0  0  0  0  0  0  0  0  0  0
   -4.3718    0.1889   -0.2248 C   0  0  0  0  0  0  0  0  0  0  0  0
   -2.9653    0.5576   -0.2326 N   0  0  0  0  0  0  0  0  0  0  0  0
   -2.0837    1.3672   -0.8466 C   0  0  0  0  0  0  0  0  0  0  0  0
   -2.3169    2.1717   -1.7850 O   0  0  0  0  0  0  0  0  0  0  0  0
    4.1686   -2.6834   -0.6390 H   0  0  0  0  0  0  0  0  0  0  0  0
    2.1921    0.1356    1.3031 H   0  0  0  0  0  0  0  0  0  0  0  0
    0.2622    2.8757   -1.1526 H   0  0  0  0  0  0  0  0  0  0  0  0
   -0.2243   -0.1655    1.3534 H   0  0  0  0  0  0  0  0  0  0  0  0
   -2.7543   -2.0615    1.3644 H   0  0  0  0  0  0  0  0  0  0  0  0
   -3.3416   -0.6860    2.4397 H   0  0  0  0  0  0  0  0  0  0  0  0
   -4.5069   -1.9627   -0.0805 H   0  0  0  0  0  0  0  0  0  0  0  0
   -5.2974   -1.0868    1.2850 H   0  0  0  0  0  0  0  0  0  0  0  0
   -4.9754    0.9623    0.3236 H   0  0  0  0  0  0  0  0  0  0  0  0
   -4.7465    0.1024   -1.2676 H   0  0  0  0  0  0  0  0  0  0  0  0
  1  2  1  0
  2  3  2  0
  2  4  1  0
  4  5  2  0
  5  6  1  0
  6  7  1  0
  7  8  1  0
  8  9  1  0
  9 10  2  0
  9 11  1  0
 11 12  2  0
 12 13  1  0
 13 14  2  0
 14 15  1  0
 15 16  1  0
 16 17  1  0
 17 18  1  0
 18 19  1  0
 19 20  1  0
 20 21  2  0
  8  4  1  0
 20 13  1  0
 11  7  1  0
 19 15  1  0
  5 22  1  0
  7 23  1  1
 12 24  1  0
 14 25  1  0
 16 26  1  0
 16 27  1  0
 17 28  1  0
 17 29  1  0
 18 30  1  0
 18 31  1  0
M  CHG  1   1  -1
M  END
$$$$
[H]O[C@@]1([H])[C@]([H])(n2c([H])nc3c(N([H])[H])nc([H])nc32)O[C@]([H])(C([H])([H])OS(=O)(=O)N([H])C(=O)[C@@]([H])(N([H])[H])C([H])([H])C([H])(C([H])([H])[H])C([H])([H])[H])[C@]1([H])O[H]
     RDKit          3D

 56 58  0  0  0  0  0  0  0  0999 V2000
   -7.5867    1.2100    1.4457 C   0  0  0  0  0  0  0  0  0  0  0  0
   -7.0223    0.3605    0.3222 C   0  0  0  0  0  0  0  0  0  0  0  0
   -7.6375    0.7755   -0.9850 C   0  0  0  0  0  0  0  0  0  0  0  0
   -5.5165    0.4118    0.3333 C   0  0  0  0  0  0  0  0  0  0  0  0
   -4.9799   -0.4438   -0.7932 C   0  0  2  0  0  0  0  0  0  0  0  0
   -5.4276   -1.8167   -0.6092 N   0  0  0  0  0  0  0  0  0  0  0  0
   -3.4939   -0.4779   -0.7129 C   0  0  0  0  0  0  0  0  0  0  0  0
   -2.9534   -0.3769    0.4108 O   0  0  0  0  0  0  0  0  0  0  0  0
   -2.7519   -0.6229   -1.8976 N   0  0  0  0  0  0  0  0  0  0  0  0
   -1.0444   -0.6624   -1.8305 S   0  0  0  0  0  0  0  0  0  0  0  0
   -0.3984    0.1935   -2.8830 O   0  0  0  0  0  0  0  0  0  0  0  0
   -0.6259   -2.0889   -2.1341 O   0  0  0  0  0  0  0  0  0  0  0  0
   -0.4314   -0.1533   -0.3474 O   0  0  0  0  0  0  0  0  0  0  0  0
    0.8794   -0.6003   -0.1756 C   0  0  0  0  0  0  0  0  0  0  0  0
    1.4669   -0.1564    1.1407 C   0  0  1  0  0  0  0  0  0  0  0  0
    2.7670   -0.6412    1.2055 O   0  0  0  0  0  0  0  0  0  0  0  0
    3.6466    0.4104    0.9863 C   0  0  2  0  0  0  0  0  0  0  0  0
    2.8121    1.5317    0.3399 C   0  0  2  0  0  0  0  0  0  0  0  0
    3.3735    2.7706    0.4982 O   0  0  0  0  0  0  0  0  0  0  0  0
    1.5696    1.3582    1.2305 C   0  0  1  0  0  0  0  0  0  0  0  0
    0.4708    2.0158    0.7607 O   0  0  0  0  0  0  0  0  0  0  0  0
    4.7814    0.0779    0.1812 N   0  0  0  0  0  0  0  0  0  0  0  0
    4.8951   -0.1238   -1.1351 C   0  0  0  0  0  0  0  0  0  0  0  0
    6.1645   -0.4183   -1.4510 N   0  0  0  0  0  0  0  0  0  0  0  0
    6.9182   -0.4145   -0.3303 C   0  0  0  0  0  0  0  0  0  0  0  0
    8.2459   -0.6413   -0.0649 C   0  0  0  0  0  0  0  0  0  0  0  0
    9.1711   -0.9629   -1.0793 N   0  0  0  0  0  0  0  0  0  0  0  0
    8.6688   -0.5534    1.1998 N   0  0  0  0  0  0  0  0  0  0  0  0
    7.8431   -0.2506    2.2234 C   0  0  0  0  0  0  0  0  0  0  0  0
    6.5515   -0.0333    1.9359 N   0  0  0  0  0  0  0  0  0  0  0  0
    6.0361   -0.1014    0.6871 C   0  0  0  0  0  0  0  0  0  0  0  0
   -7.0215    2.1578    1.5157 H   0  0  0  0  0  0  0  0  0  0  0  0
   -8.6636    1.4406    1.2458 H   0  0  0  0  0  0  0  0  0  0  0  0
   -7.5556    0.6681    2.4207 H   0  0  0  0  0  0  0  0  0  0  0  0
   -7.3510   -0.6829    0.5321 H   0  0  0  0  0  0  0  0  0  0  0  0
   -7.7700   -0.0989   -1.6742 H   0  0  0  0  0  0  0  0  0  0  0  0
   -7.1253    1.6091   -1.4821 H   0  0  0  0  0  0  0  0  0  0  0  0
   -8.6816    1.1462   -0.7581 H   0  0  0  0  0  0  0  0  0  0  0  0
   -5.1257    1.4407    0.2230 H   0  0  0  0  0  0  0  0  0  0  0  0
   -5.1649   -0.0150    1.2716 H   0  0  0  0  0  0  0  0  0  0  0  0
   -5.2471   -0.0715   -1.7929 H   0  0  0  0  0  0  0  0  0  0  0  0
   -5.1540   -2.4120   -1.4209 H   0  0  0  0  0  0  0  0  0  0  0  0
   -5.1183   -2.1916    0.3086 H   0  0  0  0  0  0  0  0  0  0  0  0
   -3.2321   -0.7057   -2.8041 H   0  0  0  0  0  0  0  0  0  0  0  0
    0.7851   -1.7255   -0.0815 H   0  0  0  0  0  0  0  0  0  0  0  0
    1.5298   -0.4351   -1.0428 H   0  0  0  0  0  0  0  0  0  0  0  0
    0.8840   -0.5950    1.9507 H   0  0  0  0  0  0  0  0  0  0  0  0
    3.9765    0.8482    1.9630 H   0  0  0  0  0  0  0  0  0  0  0  0
    2.6181    1.2450   -0.7035 H   0  0  0  0  0  0  0  0  0  0  0  0
    3.7004    3.1227   -0.3725 H   0  0  0  0  0  0  0  0  0  0  0  0
    1.8727    1.6130    2.2577 H   0  0  0  0  0  0  0  0  0  0  0  0
    0.2317    2.7167    1.4211 H   0  0  0  0  0  0  0  0  0  0  0  0
    4.0411   -0.0468   -1.8051 H   0  0  0  0  0  0  0  0  0  0  0  0
    9.5893   -0.1490   -1.6079 H   0  0  0  0  0  0  0  0  0  0  0  0
    9.4063   -1.9466   -1.2701 H   0  0  0  0  0  0  0  0  0  0  0  0
    8.1840   -0.1809    3.2333 H   0  0  0  0  0  0  0  0  0  0  0  0
  1  2  1  0
  2  3  1  0
  2  4  1  0
  4  5  1  0
  5  6  1  0
  5  7  1  0
  7  8  2  0
  7  9  1  0
  9 10  1  0
 10 11  2  0
 10 12  2  0
 10 13  1  0
 13 14  1  0
 14 15  1  0
 15 16  1  0
 16 17  1  0
 17 18  1  0
 18 19  1  0
 18 20  1  0
 20 21  1  0
 17 22  1  0
 22 23  1  0
 23 24  2  0
 24 25  1  0
 25 26  2  0
 26 27  1  0
 26 28  1  0
 28 29  2  0
 29 30  1  0
 30 31  2  0
 20 15  1  0
 31 22  1  0
 31 25  1  0
  1 32  1  0
  1 33  1  0
  1 34  1  0
  2 35  1  0
  3 36  1  0
  3 37  1  0
  3 38  1  0
  4 39  1  0
  4 40  1  0
  5 41  1  6
  6 42  1  0
  6 43  1  0
  9 44  1  0
 14 45  1  0
 14 46  1  0
 15 47  1  1
 17 48  1  1
 18 49  1  6
 19 50  1  0
 20 51  1  1
 21 52  1  0
 23 53  1  0
 27 54  1  0
 27 55  1  0
 29 56  1  0
M  END
$$$$
[H]c1c([H])c([H])c2c(c1[H])c1c3c(c4c5c([H])c([H])c([H])c([H])c5n5c4c1n2[C@]1([H])O[C@]5(C([H])([H])[H])[C@@]([H])(OC([H])([H])[H])[C@]([H])(N([H])C([H])([H])[H])C1([H])[H])C([H])([H])N([H])C3=O
     RDKit          3D

 61 68  0  0  0  0  0  0  0  0999 V2000
   -5.0032    2.3015   -0.0847 C   0  0  0  0  0  0  0  0  0  0  0  0
   -4.2911    1.1206   -0.5239 N   0  0  0  0  0  0  0  0  0  0  0  0
   -3.1564    0.9314    0.3042 C   0  0  2  0  0  0  0  0  0  0  0  0
   -2.1540    2.1226    0.1663 C   0  0  0  0  0  0  0  0  0  0  0  0
   -0.9665    1.4540   -0.0205 C   0  0  1  0  0  0  0  0  0  0  0  0
   -1.1415    0.7448   -1.1981 O   0  0  0  0  0  0  0  0  0  0  0  0
   -1.4119   -0.5987   -0.7868 C   0  0  2  0  0  0  0  0  0  0  0  0
   -1.8712   -1.2254   -2.1322 C   0  0  0  0  0  0  0  0  0  0  0  0
   -2.4889   -0.4501    0.1598 C   0  0  1  0  0  0  0  0  0  0  0  0
   -2.3890   -1.1153    1.3880 O   0  0  0  0  0  0  0  0  0  0  0  0
   -3.3269   -2.1274    1.5521 C   0  0  0  0  0  0  0  0  0  0  0  0
   -0.1378   -1.2020   -0.4914 N   0  0  0  0  0  0  0  0  0  0  0  0
    0.1616   -2.5344   -0.6109 C   0  0  0  0  0  0  0  0  0  0  0  0
   -0.5901   -3.6465   -0.8619 C   0  0  0  0  0  0  0  0  0  0  0  0
    0.0056   -4.9014   -0.9123 C   0  0  0  0  0  0  0  0  0  0  0  0
    1.3589   -5.0700   -0.7130 C   0  0  0  0  0  0  0  0  0  0  0  0
    2.1437   -3.9569   -0.4556 C   0  0  0  0  0  0  0  0  0  0  0  0
    1.5172   -2.7445   -0.4151 C   0  0  0  0  0  0  0  0  0  0  0  0
    2.0596   -1.5148   -0.1645 C   0  0  0  0  0  0  0  0  0  0  0  0
    3.3310   -1.0167    0.0798 C   0  0  0  0  0  0  0  0  0  0  0  0
    4.6039   -1.7769    0.1721 C   0  0  0  0  0  0  0  0  0  0  0  0
    5.6037   -0.7850    0.4503 N   0  0  0  0  0  0  0  0  0  0  0  0
    5.0034    0.5280    0.5134 C   0  0  0  0  0  0  0  0  0  0  0  0
    5.7188    1.5160    0.7371 O   0  0  0  0  0  0  0  0  0  0  0  0
    3.6006    0.3262    0.2783 C   0  0  0  0  0  0  0  0  0  0  0  0
    2.5644    1.2461    0.2408 C   0  0  0  0  0  0  0  0  0  0  0  0
    2.4247    2.5831    0.4378 C   0  0  0  0  0  0  0  0  0  0  0  0
    3.2960    3.5951    0.7015 C   0  0  0  0  0  0  0  0  0  0  0  0
    2.7602    4.8881    0.8432 C   0  0  0  0  0  0  0  0  0  0  0  0
    1.4157    5.1498    0.7252 C   0  0  0  0  0  0  0  0  0  0  0  0
    0.5372    4.1127    0.4564 C   0  0  0  0  0  0  0  0  0  0  0  0
    1.0796    2.8483    0.3203 C   0  0  0  0  0  0  0  0  0  0  0  0
    0.4024    1.7469    0.0621 N   0  0  0  0  0  0  0  0  0  0  0  0
    1.3106    0.7318   -0.0025 C   0  0  0  0  0  0  0  0  0  0  0  0
    1.0507   -0.6266   -0.2113 C   0  0  0  0  0  0  0  0  0  0  0  0
   -4.4222    3.2206   -0.0758 H   0  0  0  0  0  0  0  0  0  0  0  0
   -5.9751    2.4312   -0.6421 H   0  0  0  0  0  0  0  0  0  0  0  0
   -5.3325    2.1331    0.9827 H   0  0  0  0  0  0  0  0  0  0  0  0
   -4.9231    0.3185   -0.4524 H   0  0  0  0  0  0  0  0  0  0  0  0
   -3.5204    0.9543    1.3717 H   0  0  0  0  0  0  0  0  0  0  0  0
   -2.2319    2.7634    1.0681 H   0  0  0  0  0  0  0  0  0  0  0  0
   -2.5549    2.7584   -0.6810 H   0  0  0  0  0  0  0  0  0  0  0  0
   -1.0177    0.7572    0.9341 H   0  0  0  0  0  0  0  0  0  0  0  0
   -2.1640   -0.4180   -2.8609 H   0  0  0  0  0  0  0  0  0  0  0  0
   -1.0623   -1.7738   -2.6232 H   0  0  0  0  0  0  0  0  0  0  0  0
   -2.8063   -1.7859   -1.9703 H   0  0  0  0  0  0  0  0  0  0  0  0
   -3.3692   -1.0206   -0.3155 H   0  0  0  0  0  0  0  0  0  0  0  0
   -4.3685   -1.7465    1.5031 H   0  0  0  0  0  0  0  0  0  0  0  0
   -3.1360   -2.7642    2.4105 H   0  0  0  0  0  0  0  0  0  0  0  0
   -3.2309   -2.7727    0.6280 H   0  0  0  0  0  0  0  0  0  0  0  0
   -1.6587   -3.5713   -1.0137 H   0  0  0  0  0  0  0  0  0  0  0  0
   -0.5879   -5.7740   -1.1105 H   0  0  0  0  0  0  0  0  0  0  0  0
    1.8233   -6.0462   -0.7522 H   0  0  0  0  0  0  0  0  0  0  0  0
    3.2016   -4.0714   -0.2980 H   0  0  0  0  0  0  0  0  0  0  0  0
    4.5688   -2.4736    1.0276 H   0  0  0  0  0  0  0  0  0  0  0  0
    4.8295   -2.3223   -0.7651 H   0  0  0  0  0  0  0  0  0  0  0  0
    6.6092   -1.0259    0.5823 H   0  0  0  0  0  0  0  0  0  0  0  0
    4.3503    3.4578    0.8021 H   0  0  0  0  0  0  0  0  0  0  0  0
    3.4660    5.6873    1.0540 H   0  0  0  0  0  0  0  0  0  0  0  0
    1.0161    6.1615    0.8387 H   0  0  0  0  0  0  0  0  0  0  0  0
   -0.5241    4.2689    0.3538 H   0  0  0  0  0  0  0  0  0  0  0  0
  1  2  1  0
  2  3  1  0
  3  4  1  0
  4  5  1  0
  5  6  1  0
  6  7  1  0
  7  8  1  6
  7  9  1  0
  9 10  1  0
 10 11  1  0
  7 12  1  0
 12 13  1  0
 13 14  2  0
 14 15  1  0
 15 16  2  0
 16 17  1  0
 17 18  2  0
 18 19  1  0
 19 20  2  0
 20 21  1  0
 21 22  1  0
 22 23  1  0
 23 24  2  0
 23 25  1  0
 25 26  2  0
 26 27  1  0
 27 28  2  0
 28 29  1  0
 29 30  2  0
 30 31  1  0
 31 32  2  0
 32 33  1  0
 33 34  1  0
 34 35  2  0
  9  3  1  0
 35 12  1  0
 33  5  1  0
 18 13  1  0
 35 19  1  0
 25 20  1  0
 34 26  1  0
 32 27  1  0
  1 36  1  0
  1 37  1  0
  1 38  1  0
  2 39  1  0
  3 40  1  1
  4 41  1  0
  4 42  1  0
  5 43  1  1
  8 44  1  0
  8 45  1  0
  8 46  1  0
  9 47  1  6
 11 48  1  0
 11 49  1  0
 11 50  1  0
 14 51  1  0
 15 52  1  0
 16 53  1  0
 17 54  1  0
 21 55  1  0
 21 56  1  0
 22 57  1  0
 28 58  1  0
 29 59  1  0
 30 60  1  0
 31 61  1  0
M  END
$$$$
[H]c1c([H])c([H])c2c(C3=C(c4c([H])n([H])c5c([H])c([H])c(Cl)c([H])c45)C(=O)N([H])C3=O)nc(N3C([H])([H])C([H])([H])N(C([H])([H])[H])C([H])([H])C3([H])[H])nc2c1[H]
     RDKit          3D

 55 60  0  0  0  0  0  0  0  0999 V2000
   -6.0083   -1.0756    2.6034 C   0  0  0  0  0  0  0  0  0  0  0  0
   -5.1907   -0.5523    1.5267 N   0  0  0  0  0  0  0  0  0  0  0  0
   -4.8931   -1.5998    0.6027 C   0  0  0  0  0  0  0  0  0  0  0  0
   -3.8593   -1.1841   -0.4319 C   0  0  0  0  0  0  0  0  0  0  0  0
   -2.7626   -0.5162    0.2290 N   0  0  0  0  0  0  0  0  0  0  0  0
   -2.7408   -0.5053    1.6702 C   0  0  0  0  0  0  0  0  0  0  0  0
   -4.0712    0.1237    2.0960 C   0  0  0  0  0  0  0  0  0  0  0  0
   -1.7590    0.1014   -0.5800 C   0  0  0  0  0  0  0  0  0  0  0  0
   -0.7003    0.7276   -0.0555 N   0  0  0  0  0  0  0  0  0  0  0  0
    0.2715    1.3266   -0.7335 C   0  0  0  0  0  0  0  0  0  0  0  0
    1.4106    1.9857   -0.1078 C   0  0  0  0  0  0  0  0  0  0  0  0
    2.3850    1.4482    0.6139 C   0  0  0  0  0  0  0  0  0  0  0  0
    3.2809    2.5760    1.0083 C   0  0  0  0  0  0  0  0  0  0  0  0
    4.3248    2.4837    1.6988 O   0  0  0  0  0  0  0  0  0  0  0  0
    2.7861    3.7939    0.4892 N   0  0  0  0  0  0  0  0  0  0  0  0
    1.6178    3.4560   -0.2114 C   0  0  0  0  0  0  0  0  0  0  0  0
    0.8945    4.2917   -0.8121 O   0  0  0  0  0  0  0  0  0  0  0  0
    2.6065    0.0757    1.0187 C   0  0  0  0  0  0  0  0  0  0  0  0
    1.7675   -0.7613    1.6718 C   0  0  0  0  0  0  0  0  0  0  0  0
    2.3521   -1.9881    1.8352 N   0  0  0  0  0  0  0  0  0  0  0  0
    3.5775   -1.9472    1.2856 C   0  0  0  0  0  0  0  0  0  0  0  0
    4.5483   -2.9176    1.1892 C   0  0  0  0  0  0  0  0  0  0  0  0
    5.7672   -2.6675    0.5666 C   0  0  0  0  0  0  0  0  0  0  0  0
    5.9551   -1.4037    0.0522 C   0  0  0  0  0  0  0  0  0  0  0  0
    7.4767   -1.0666   -0.7335 Cl  0  0  0  0  0  0  0  0  0  0  0  0
    4.9713   -0.4267    0.1522 C   0  0  0  0  0  0  0  0  0  0  0  0
    3.7636   -0.6739    0.7692 C   0  0  0  0  0  0  0  0  0  0  0  0
    0.1799    1.2980   -2.1205 C   0  0  0  0  0  0  0  0  0  0  0  0
    1.1042    1.8500   -2.9631 C   0  0  0  0  0  0  0  0  0  0  0  0
    0.9656    1.7786   -4.3464 C   0  0  0  0  0  0  0  0  0  0  0  0
   -0.1156    1.1434   -4.9079 C   0  0  0  0  0  0  0  0  0  0  0  0
   -1.0568    0.5793   -4.0986 C   0  0  0  0  0  0  0  0  0  0  0  0
   -0.9083    0.6563   -2.7256 C   0  0  0  0  0  0  0  0  0  0  0  0
   -1.8336    0.0841   -1.9192 N   0  0  0  0  0  0  0  0  0  0  0  0
   -6.8828   -1.6111    2.1534 H   0  0  0  0  0  0  0  0  0  0  0  0
   -5.4363   -1.7186    3.3055 H   0  0  0  0  0  0  0  0  0  0  0  0
   -6.4314   -0.2490    3.2316 H   0  0  0  0  0  0  0  0  0  0  0  0
   -4.4521   -2.5019    1.1187 H   0  0  0  0  0  0  0  0  0  0  0  0
   -5.8176   -1.8637    0.0508 H   0  0  0  0  0  0  0  0  0  0  0  0
   -3.4709   -2.1392   -0.8790 H   0  0  0  0  0  0  0  0  0  0  0  0
   -4.3028   -0.5852   -1.2517 H   0  0  0  0  0  0  0  0  0  0  0  0
   -2.7180   -1.5377    2.0660 H   0  0  0  0  0  0  0  0  0  0  0  0
   -1.9199    0.0968    2.0960 H   0  0  0  0  0  0  0  0  0  0  0  0
   -4.1541    0.1983    3.1960 H   0  0  0  0  0  0  0  0  0  0  0  0
   -4.0063    1.1852    1.7227 H   0  0  0  0  0  0  0  0  0  0  0  0
    3.1779    4.7628    0.5849 H   0  0  0  0  0  0  0  0  0  0  0  0
    0.7822   -0.5999    2.0656 H   0  0  0  0  0  0  0  0  0  0  0  0
    1.9194   -2.8173    2.3073 H   0  0  0  0  0  0  0  0  0  0  0  0
    4.4249   -3.9278    1.5892 H   0  0  0  0  0  0  0  0  0  0  0  0
    6.5262   -3.4449    0.4967 H   0  0  0  0  0  0  0  0  0  0  0  0
    5.1358    0.5517   -0.2598 H   0  0  0  0  0  0  0  0  0  0  0  0
    1.9766    2.3377   -2.5270 H   0  0  0  0  0  0  0  0  0  0  0  0
    1.7329    2.2372   -4.9459 H   0  0  0  0  0  0  0  0  0  0  0  0
   -0.2599    1.0677   -5.9842 H   0  0  0  0  0  0  0  0  0  0  0  0
   -1.9310    0.0647   -4.4689 H   0  0  0  0  0  0  0  0  0  0  0  0
  1  2  1  0
  2  3  1  0
  3  4  1  0
  4  5  1  0
  5  6  1  0
  6  7  1  0
  5  8  1  0
  8  9  2  0
  9 10  1  0
 10 11  1  0
 11 12  2  0
 12 13  1  0
 13 14  2  0
 13 15  1  0
 15 16  1  0
 16 17  2  0
 12 18  1  0
 18 19  2  0
 19 20  1  0
 20 21  1  0
 21 22  2  0
 22 23  1  0
 23 24  2  0
 24 25  1  0
 24 26  1  0
 26 27  2  0
 10 28  2  0
 28 29  1  0
 29 30  2  0
 30 31  1  0
 31 32  2  0
 32 33  1  0
 33 34  2  0
  7  2  1  0
 34  8  1  0
 16 11  1  0
 27 18  1  0
 33 28  1  0
 27 21  1  0
  1 35  1  0
  1 36  1  0
  1 37  1  0
  3 38  1  0
  3 39  1  0
  4 40  1  0
  4 41  1  0
  6 42  1  0
  6 43  1  0
  7 44  1  0
  7 45  1  0
 15 46  1  0
 19 47  1  0
 20 48  1  0
 22 49  1  0
 23 50  1  0
 26 51  1  0
 29 52  1  0
 30 53  1  0
 31 54  1  0
 32 55  1  0
M  END
$$$$
[H]OC(=O)c1c([H])c([H])c2c(nc(N([H])c3c([H])c([H])c([H])c(Cl)c3[H])c3nc([H])nc([H])c32)c1[H]
     RDKit          3D

 36 39  0  0  0  0  0  0  0  0999 V2000
   -3.2638    3.8426   -1.4192 O   0  0  0  0  0  0  0  0  0  0  0  0
   -4.0023    2.6717   -1.4205 C   0  0  0  0  0  0  0  0  0  0  0  0
   -5.2111    2.7219   -1.7274 O   0  0  0  0  0  0  0  0  0  0  0  0
   -3.3725    1.4141   -1.0697 C   0  0  0  0  0  0  0  0  0  0  0  0
   -4.0555    0.2173   -1.0533 C   0  0  0  0  0  0  0  0  0  0  0  0
   -3.4329   -0.9777   -0.7140 C   0  0  0  0  0  0  0  0  0  0  0  0
   -2.0998   -0.9523   -0.3880 C   0  0  0  0  0  0  0  0  0  0  0  0
   -1.3716    0.2339   -0.3917 C   0  0  0  0  0  0  0  0  0  0  0  0
   -2.0377    1.4115   -0.7390 C   0  0  0  0  0  0  0  0  0  0  0  0
   -0.0730    0.2391   -0.0711 N   0  0  0  0  0  0  0  0  0  0  0  0
    0.6423   -0.8297    0.2716 C   0  0  0  0  0  0  0  0  0  0  0  0
    2.0024   -0.8731    0.6267 N   0  0  0  0  0  0  0  0  0  0  0  0
    2.9352    0.1763    0.6855 C   0  0  0  0  0  0  0  0  0  0  0  0
    4.1732   -0.0511    1.2956 C   0  0  0  0  0  0  0  0  0  0  0  0
    5.0890    0.9666    1.3424 C   0  0  0  0  0  0  0  0  0  0  0  0
    4.8775    2.2228    0.8229 C   0  0  0  0  0  0  0  0  0  0  0  0
    3.6618    2.4565    0.2201 C   0  0  0  0  0  0  0  0  0  0  0  0
    3.3486    4.0399   -0.4548 Cl  0  0  0  0  0  0  0  0  0  0  0  0
    2.7174    1.4231    0.1661 C   0  0  0  0  0  0  0  0  0  0  0  0
   -0.0726   -2.0339    0.2813 C   0  0  0  0  0  0  0  0  0  0  0  0
    0.5252   -3.1900    0.6083 N   0  0  0  0  0  0  0  0  0  0  0  0
   -0.0986   -4.3758    0.6376 C   0  0  0  0  0  0  0  0  0  0  0  0
   -1.3968   -4.4024    0.3205 N   0  0  0  0  0  0  0  0  0  0  0  0
   -2.0940   -3.3054   -0.0220 C   0  0  0  0  0  0  0  0  0  0  0  0
   -1.4318   -2.0977   -0.0452 C   0  0  0  0  0  0  0  0  0  0  0  0
   -2.9539    4.3324   -0.6071 H   0  0  0  0  0  0  0  0  0  0  0  0
   -5.1059    0.2412   -1.3169 H   0  0  0  0  0  0  0  0  0  0  0  0
   -4.0475   -1.8356   -0.7331 H   0  0  0  0  0  0  0  0  0  0  0  0
   -1.4725    2.3358   -0.7424 H   0  0  0  0  0  0  0  0  0  0  0  0
    2.3954   -1.8449    0.8893 H   0  0  0  0  0  0  0  0  0  0  0  0
    4.4137   -1.0336    1.7344 H   0  0  0  0  0  0  0  0  0  0  0  0
    6.0485    0.7955    1.8135 H   0  0  0  0  0  0  0  0  0  0  0  0
    5.6457    2.9819    0.8945 H   0  0  0  0  0  0  0  0  0  0  0  0
    1.8085    1.7163   -0.3353 H   0  0  0  0  0  0  0  0  0  0  0  0
    0.4402   -5.3005    0.9142 H   0  0  0  0  0  0  0  0  0  0  0  0
   -3.1305   -3.3366   -0.2737 H   0  0  0  0  0  0  0  0  0  0  0  0
  1  2  1  0
  2  3  2  0
  2  4  1  0
  4  5  2  0
  5  6  1  0
  6  7  2  0
  7  8  1  0
  8  9  2  0
  8 10  1  0
 10 11  2  0
 11 12  1  0
 12 13  1  0
 13 14  2  0
 14 15  1  0
 15 16  2  0
 16 17  1  0
 17 18  1  0
 17 19  2  0
 11 20  1  0
 20 21  2  0
 21 22  1  0
 22 23  2  0
 23 24  1  0
 24 25  2  0
  9  4  1  0
 19 13  1  0
 25 20  1  0
 25  7  1  0
  1 26  1  0
  5 27  1  0
  6 28  1  0
  9 29  1  0
 12 30  1  0
 14 31  1  0
 15 32  1  0
 16 33  1  0
 19 34  1  0
 22 35  1  0
 24 36  1  0
M  END
$$$$
[H]OC(=O)[C@@]([H])(N([H])C(=O)[C@@]([H])(N([H])C(=O)[C@@]([H])(N([H])C(=O)c1c(N([H])[H])nn2c([H])c([H])c([H])nc12)[C@]([H])(O[H])C([H])([H])[H])C([H])([H])c1c([H])c([H])c([H])c([H])c1[H])C([H])([H])c1c([H])c([H])c(O[H])c([H])c1[H]
     RDKit          3D

 74 77  0  0  0  0  0  0  0  0999 V2000
   -3.7774   -1.9590   -2.9511 C   0  0  0  0  0  0  0  0  0  0  0  0
   -2.7538   -0.9450   -2.4694 C   0  0  1  0  0  0  0  0  0  0  0  0
   -3.2941    0.3184   -2.7290 O   0  0  0  0  0  0  0  0  0  0  0  0
   -2.4456   -1.1490   -1.0241 C   0  0  2  0  0  0  0  0  0  0  0  0
   -3.6714   -1.0092   -0.2631 N   0  0  0  0  0  0  0  0  0  0  0  0
   -4.2124   -2.0526    0.5118 C   0  0  0  0  0  0  0  0  0  0  0  0
   -3.6125   -3.1881    0.5792 O   0  0  0  0  0  0  0  0  0  0  0  0
   -5.4369   -1.9006    1.2496 C   0  0  0  0  0  0  0  0  0  0  0  0
   -6.0068   -2.8811    2.0488 C   0  0  0  0  0  0  0  0  0  0  0  0
   -5.4675   -4.1920    2.2941 N   0  0  0  0  0  0  0  0  0  0  0  0
   -7.1370   -2.3652    2.5373 N   0  0  0  0  0  0  0  0  0  0  0  0
   -7.3069   -1.1280    2.0938 N   0  0  0  0  0  0  0  0  0  0  0  0
   -8.3111   -0.2543    2.3415 C   0  0  0  0  0  0  0  0  0  0  0  0
   -8.3045    1.0036    1.7754 C   0  0  0  0  0  0  0  0  0  0  0  0
   -7.2234    1.2974    0.9572 C   0  0  0  0  0  0  0  0  0  0  0  0
   -6.2528    0.4213    0.7320 N   0  0  0  0  0  0  0  0  0  0  0  0
   -6.2730   -0.8191    1.2993 C   0  0  0  0  0  0  0  0  0  0  0  0
   -1.3889   -0.2525   -0.4880 C   0  0  0  0  0  0  0  0  0  0  0  0
   -1.6843    0.3777    0.5789 O   0  0  0  0  0  0  0  0  0  0  0  0
   -0.1275   -0.1017   -1.1208 N   0  0  0  0  0  0  0  0  0  0  0  0
    0.9581    0.7113   -0.7427 C   0  0  1  0  0  0  0  0  0  0  0  0
    0.6662    2.1199   -0.2862 C   0  0  0  0  0  0  0  0  0  0  0  0
    0.0751    2.9579   -1.3667 C   0  0  0  0  0  0  0  0  0  0  0  0
    0.9560    3.6017   -2.2586 C   0  0  0  0  0  0  0  0  0  0  0  0
    0.5338    4.4040   -3.2685 C   0  0  0  0  0  0  0  0  0  0  0  0
   -0.8213    4.6041   -3.4379 C   0  0  0  0  0  0  0  0  0  0  0  0
   -1.6909    3.9926   -2.5866 C   0  0  0  0  0  0  0  0  0  0  0  0
   -1.2543    3.1776   -1.5604 C   0  0  0  0  0  0  0  0  0  0  0  0
    2.0391    0.0711    0.0195 C   0  0  0  0  0  0  0  0  0  0  0  0
    1.9492   -1.1563    0.3844 O   0  0  0  0  0  0  0  0  0  0  0  0
    3.2335    0.7295    0.3978 N   0  0  0  0  0  0  0  0  0  0  0  0
    4.2981    0.0536    1.1458 C   0  0  1  0  0  0  0  0  0  0  0  0
    5.4388   -0.1204    0.1725 C   0  0  0  0  0  0  0  0  0  0  0  0
    6.6320   -0.7790    0.6873 C   0  0  0  0  0  0  0  0  0  0  0  0
    6.7227   -2.1760    0.6940 C   0  0  0  0  0  0  0  0  0  0  0  0
    7.8803   -2.7844    1.1484 C   0  0  0  0  0  0  0  0  0  0  0  0
    8.9605   -2.0605    1.6010 C   0  0  0  0  0  0  0  0  0  0  0  0
   10.1177   -2.6529    2.0558 O   0  0  0  0  0  0  0  0  0  0  0  0
    8.8725   -0.6768    1.5959 C   0  0  0  0  0  0  0  0  0  0  0  0
    7.7156   -0.0769    1.1409 C   0  0  0  0  0  0  0  0  0  0  0  0
    4.6418    0.8158    2.3462 C   0  0  0  0  0  0  0  0  0  0  0  0
    5.5902    0.3601    3.2348 O   0  0  0  0  0  0  0  0  0  0  0  0
    4.0580    1.9089    2.5744 O   0  0  0  0  0  0  0  0  0  0  0  0
   -3.4812   -3.0067   -2.7511 H   0  0  0  0  0  0  0  0  0  0  0  0
   -4.7322   -1.8043   -2.3627 H   0  0  0  0  0  0  0  0  0  0  0  0
   -4.0671   -1.7695   -3.9971 H   0  0  0  0  0  0  0  0  0  0  0  0
   -1.8643   -1.0251   -3.1298 H   0  0  0  0  0  0  0  0  0  0  0  0
   -2.6822    0.8980   -3.2304 H   0  0  0  0  0  0  0  0  0  0  0  0
   -2.1084   -2.2160   -0.9044 H   0  0  0  0  0  0  0  0  0  0  0  0
   -4.1313   -0.0941   -0.3158 H   0  0  0  0  0  0  0  0  0  0  0  0
   -4.5071   -4.3737    2.6086 H   0  0  0  0  0  0  0  0  0  0  0  0
   -6.1089   -4.9924    2.1366 H   0  0  0  0  0  0  0  0  0  0  0  0
   -9.1579   -0.5168    2.9972 H   0  0  0  0  0  0  0  0  0  0  0  0
   -9.0700    1.7466    1.9303 H   0  0  0  0  0  0  0  0  0  0  0  0
   -7.1718    2.2765    0.4865 H   0  0  0  0  0  0  0  0  0  0  0  0
   -0.0344   -0.7110   -2.0006 H   0  0  0  0  0  0  0  0  0  0  0  0
    1.4905    0.9675   -1.7730 H   0  0  0  0  0  0  0  0  0  0  0  0
    1.6285    2.5844   -0.0091 H   0  0  0  0  0  0  0  0  0  0  0  0
    0.0506    2.1422    0.6380 H   0  0  0  0  0  0  0  0  0  0  0  0
    2.0152    3.4033   -2.0717 H   0  0  0  0  0  0  0  0  0  0  0  0
    1.2726    4.8731   -3.9255 H   0  0  0  0  0  0  0  0  0  0  0  0
   -1.1203    5.2487   -4.2497 H   0  0  0  0  0  0  0  0  0  0  0  0
   -2.7555    4.1683   -2.7453 H   0  0  0  0  0  0  0  0  0  0  0  0
   -2.0077    2.7471   -0.9323 H   0  0  0  0  0  0  0  0  0  0  0  0
    3.3916    1.7118    0.1486 H   0  0  0  0  0  0  0  0  0  0  0  0
    3.9156   -0.9669    1.3661 H   0  0  0  0  0  0  0  0  0  0  0  0
    5.6960    0.8663   -0.3011 H   0  0  0  0  0  0  0  0  0  0  0  0
    5.0469   -0.7334   -0.6864 H   0  0  0  0  0  0  0  0  0  0  0  0
    5.8868   -2.7614    0.3465 H   0  0  0  0  0  0  0  0  0  0  0  0
    7.9395   -3.8632    1.1482 H   0  0  0  0  0  0  0  0  0  0  0  0
   10.2475   -2.9007    3.0247 H   0  0  0  0  0  0  0  0  0  0  0  0
    9.7086   -0.1010    1.9470 H   0  0  0  0  0  0  0  0  0  0  0  0
    7.6526    1.0169    1.1383 H   0  0  0  0  0  0  0  0  0  0  0  0
    6.1724    0.9395    3.8246 H   0  0  0  0  0  0  0  0  0  0  0  0
  1  2  1  0
  2  3  1  0
  2  4  1  0
  4  5  1  0
  5  6  1  0
  6  7  2  0
  6  8  1  0
  8  9  1  0
  9 10  1  0
  9 11  2  0
 11 12  1  0
 12 13  1  0
 13 14  2  0
 14 15  1  0
 15 16  2  0
 16 17  1  0
  4 18  1  0
 18 19  2  0
 18 20  1  0
 20 21  1  0
 21 22  1  0
 22 23  1  0
 23 24  2  0
 24 25  1  0
 25 26  2  0
 26 27  1  0
 27 28  2  0
 21 29  1  0
 29 30  2  0
 29 31  1  0
 31 32  1  0
 32 33  1  0
 33 34  1  0
 34 35  2  0
 35 36  1  0
 36 37  2  0
 37 38  1  0
 37 39  1  0
 39 40  2  0
 32 41  1  0
 41 42  1  0
 41 43  2  0
 17  8  2  0
 28 23  1  0
 40 34  1  0
 17 12  1  0
  1 44  1  0
  1 45  1  0
  1 46  1  0
  2 47  1  6
  3 48  1  0
  4 49  1  6
  5 50  1  0
 10 51  1  0
 10 52  1  0
 13 53  1  0
 14 54  1  0
 15 55  1  0
 20 56  1  0
 21 57  1  6
 22 58  1  0
 22 59  1  0
 24 60  1  0
 25 61  1  0
 26 62  1  0
 27 63  1  0
 28 64  1  0
 31 65  1  0
 32 66  1  1
 33 67  1  0
 33 68  1  0
 35 69  1  0
 36 70  1  0
 38 71  1  0
 39 72  1  0
 40 73  1  0
 42 74  1  0
M  END
$$$$
[H]c1nc(N([H])[H])c(O[C@@]([H])(c2c(Cl)c([H])c([H])c(F)c2Cl)C([H])([H])[H])c([H])c1-c1c([H])nn(C2([H])C([H])([H])C([H])([H])N([H])C([H])([H])C2([H])[H])c1[H]
     RDKit          3D

 52 55  0  0  0  0  0  0  0  0999 V2000
   -4.7962   -1.7981   -2.3567 C   0  0  0  0  0  0  0  0  0  0  0  0
   -4.1525   -0.7286   -1.5112 C   0  0  1  0  0  0  0  0  0  0  0  0
   -3.3712    0.1572   -2.1997 O   0  0  0  0  0  0  0  0  0  0  0  0
   -2.0511    0.4791   -2.1412 C   0  0  0  0  0  0  0  0  0  0  0  0
   -1.1698   -0.0275   -1.1696 C   0  0  0  0  0  0  0  0  0  0  0  0
    0.1533    0.3121   -1.1306 C   0  0  0  0  0  0  0  0  0  0  0  0
    0.5696    1.1998   -2.1280 C   0  0  0  0  0  0  0  0  0  0  0  0
   -0.2743    1.6730   -3.0466 N   0  0  0  0  0  0  0  0  0  0  0  0
   -1.5784    1.3537   -3.1047 C   0  0  0  0  0  0  0  0  0  0  0  0
   -2.4545    1.8882   -4.0900 N   0  0  0  0  0  0  0  0  0  0  0  0
    1.1276   -0.1004   -0.1293 C   0  0  0  0  0  0  0  0  0  0  0  0
    0.9256   -0.3540    1.1909 C   0  0  0  0  0  0  0  0  0  0  0  0
    2.1417   -0.6643    1.7304 N   0  0  0  0  0  0  0  0  0  0  0  0
    3.0795   -0.6261    0.8506 N   0  0  0  0  0  0  0  0  0  0  0  0
    2.5027   -0.2811   -0.3263 C   0  0  0  0  0  0  0  0  0  0  0  0
    4.5262   -0.8872    1.0402 C   0  0  0  0  0  0  0  0  0  0  0  0
    4.8581   -1.0506    2.4723 C   0  0  0  0  0  0  0  0  0  0  0  0
    5.8875   -0.1464    3.0264 C   0  0  0  0  0  0  0  0  0  0  0  0
    6.8761    0.1959    2.0414 N   0  0  0  0  0  0  0  0  0  0  0  0
    6.1670    1.0403    1.0585 C   0  0  0  0  0  0  0  0  0  0  0  0
    5.3301    0.0816    0.2580 C   0  0  0  0  0  0  0  0  0  0  0  0
   -4.8131   -0.3689   -0.2557 C   0  0  0  0  0  0  0  0  0  0  0  0
   -4.8286    0.8660    0.2946 C   0  0  0  0  0  0  0  0  0  0  0  0
   -4.2617    2.2433   -0.6424 Cl  0  0  0  0  0  0  0  0  0  0  0  0
   -5.3455    1.0773    1.5692 C   0  0  0  0  0  0  0  0  0  0  0  0
   -5.8644    0.0579    2.3268 C   0  0  0  0  0  0  0  0  0  0  0  0
   -5.8649   -1.2023    1.7897 C   0  0  0  0  0  0  0  0  0  0  0  0
   -6.3721   -2.2536    2.4870 F   0  0  0  0  0  0  0  0  0  0  0  0
   -5.3461   -1.4227    0.5106 C   0  0  0  0  0  0  0  0  0  0  0  0
   -5.3472   -3.0867   -0.0346 Cl  0  0  0  0  0  0  0  0  0  0  0  0
   -4.6741   -1.4899   -3.4711 H   0  0  0  0  0  0  0  0  0  0  0  0
   -5.8733   -1.9228   -2.1667 H   0  0  0  0  0  0  0  0  0  0  0  0
   -4.2981   -2.7664   -2.3436 H   0  0  0  0  0  0  0  0  0  0  0  0
   -3.2627   -1.4032   -1.0264 H   0  0  0  0  0  0  0  0  0  0  0  0
   -1.5291   -0.7074   -0.4157 H   0  0  0  0  0  0  0  0  0  0  0  0
    1.6297    1.5017   -2.1288 H   0  0  0  0  0  0  0  0  0  0  0  0
   -3.2700    1.3463   -4.3890 H   0  0  0  0  0  0  0  0  0  0  0  0
   -2.3124    2.8226   -4.5268 H   0  0  0  0  0  0  0  0  0  0  0  0
   -0.0105   -0.3292    1.7589 H   0  0  0  0  0  0  0  0  0  0  0  0
    2.9954   -0.1553   -1.2548 H   0  0  0  0  0  0  0  0  0  0  0  0
    4.6687   -1.9067    0.5405 H   0  0  0  0  0  0  0  0  0  0  0  0
    5.1978   -2.1317    2.6402 H   0  0  0  0  0  0  0  0  0  0  0  0
    3.9065   -1.0244    3.0770 H   0  0  0  0  0  0  0  0  0  0  0  0
    5.3944    0.7771    3.4671 H   0  0  0  0  0  0  0  0  0  0  0  0
    6.3605   -0.6273    3.9132 H   0  0  0  0  0  0  0  0  0  0  0  0
    7.2013   -0.6690    1.5586 H   0  0  0  0  0  0  0  0  0  0  0  0
    6.8919    1.5161    0.3701 H   0  0  0  0  0  0  0  0  0  0  0  0
    5.5709    1.7737    1.6030 H   0  0  0  0  0  0  0  0  0  0  0  0
    4.6670    0.6147   -0.4680 H   0  0  0  0  0  0  0  0  0  0  0  0
    6.0467   -0.4965   -0.3811 H   0  0  0  0  0  0  0  0  0  0  0  0
   -5.2953    2.1144    1.9325 H   0  0  0  0  0  0  0  0  0  0  0  0
   -6.2590    0.2410    3.3311 H   0  0  0  0  0  0  0  0  0  0  0  0
  1  2  1  0
  2  3  1  0
  3  4  1  0
  4  5  2  0
  5  6  1  0
  6  7  2  0
  7  8  1  0
  8  9  2  0
  9 10  1  0
  6 11  1  0
 11 12  1  0
 12 13  2  0
 13 14  1  0
 14 15  1  0
 14 16  1  0
 16 17  1  0
 17 18  1  0
 18 19  1  0
 19 20  1  0
 20 21  1  0
  2 22  1  0
 22 23  2  0
 23 24  1  0
 23 25  1  0
 25 26  2  0
 26 27  1  0
 27 28  1  0
 27 29  2  0
 29 30  1  0
  9  4  1  0
 15 11  2  0
 21 16  1  0
 29 22  1  0
  1 31  1  0
  1 32  1  0
  1 33  1  0
  2 34  1  1
  5 35  1  0
  7 36  1  0
 10 37  1  0
 10 38  1  0
 12 39  1  0
 15 40  1  0
 16 41  1  0
 17 42  1  0
 17 43  1  0
 18 44  1  0
 18 45  1  0
 19 46  1  0
 20 47  1  0
 20 48  1  0
 21 49  1  0
 21 50  1  0
 25 51  1  0
 26 52  1  0
M  END
$$$$
[H]O[C@]1([H])C([H])([H])C([H])([H])[C@]([H])(c2nc(-c3c([H])c([H])c(C(=O)N([H])c4nc([H])c([H])c(C(F)(F)F)c4[H])c([H])c3[H])c3c(N([H])[H])nc([H])c([H])n32)C([H])([H])C1([H])[H]
     RDKit          3D

 59 63  0  0  0  0  0  0  0  0999 V2000
    0.1507    0.9912    2.5755 N   0  0  0  0  0  0  0  0  0  0  0  0
   -1.2378    1.0936    2.2902 C   0  0  0  0  0  0  0  0  0  0  0  0
   -2.0248    1.8387    3.1168 N   0  0  0  0  0  0  0  0  0  0  0  0
   -3.3246    1.9670    2.8824 C   0  0  0  0  0  0  0  0  0  0  0  0
   -3.9026    1.3590    1.8050 C   0  0  0  0  0  0  0  0  0  0  0  0
   -3.1618    0.6156    0.9597 N   0  0  0  0  0  0  0  0  0  0  0  0
   -3.4333   -0.0562   -0.1647 C   0  0  0  0  0  0  0  0  0  0  0  0
   -2.2717   -0.6022   -0.6158 N   0  0  0  0  0  0  0  0  0  0  0  0
   -1.2396   -0.2895    0.2081 C   0  0  0  0  0  0  0  0  0  0  0  0
    0.1718   -0.5899   -0.0094 C   0  0  0  0  0  0  0  0  0  0  0  0
    0.9468   -1.3304    0.8145 C   0  0  0  0  0  0  0  0  0  0  0  0
    2.3285   -1.4118    0.5952 C   0  0  0  0  0  0  0  0  0  0  0  0
    2.9163   -0.7597   -0.4369 C   0  0  0  0  0  0  0  0  0  0  0  0
    2.1193   -0.0002   -1.2977 C   0  0  0  0  0  0  0  0  0  0  0  0
    0.7716    0.0759   -1.0779 C   0  0  0  0  0  0  0  0  0  0  0  0
    4.3796   -0.6810   -0.6638 C   0  0  0  0  0  0  0  0  0  0  0  0
    4.7671   -0.2221   -1.7983 O   0  0  0  0  0  0  0  0  0  0  0  0
    5.2768   -1.0717    0.3139 N   0  0  0  0  0  0  0  0  0  0  0  0
    6.7005   -0.8041    0.2748 C   0  0  0  0  0  0  0  0  0  0  0  0
    7.2880    0.0707   -0.6030 C   0  0  0  0  0  0  0  0  0  0  0  0
    8.6771    0.2972   -0.6261 C   0  0  0  0  0  0  0  0  0  0  0  0
    9.4870   -0.3701    0.2510 C   0  0  0  0  0  0  0  0  0  0  0  0
    8.8719   -1.2521    1.1302 C   0  0  0  0  0  0  0  0  0  0  0  0
    7.5494   -1.4492    1.1295 N   0  0  0  0  0  0  0  0  0  0  0  0
    9.1905    1.2884   -1.6133 C   0  0  0  0  0  0  0  0  0  0  0  0
   10.4787    1.6309   -1.3199 F   0  0  0  0  0  0  0  0  0  0  0  0
    8.3229    2.3945   -1.5367 F   0  0  0  0  0  0  0  0  0  0  0  0
    9.0360    0.7593   -2.8784 F   0  0  0  0  0  0  0  0  0  0  0  0
   -1.8114    0.4782    1.2056 C   0  0  0  0  0  0  0  0  0  0  0  0
   -4.7517   -0.2159   -0.8264 C   0  0  2  0  0  0  0  0  0  0  0  0
   -5.4787    1.0102   -1.1861 C   0  0  0  0  0  0  0  0  0  0  0  0
   -6.8060    0.6933   -1.8499 C   0  0  0  0  0  0  0  0  0  0  0  0
   -7.5692   -0.4292   -1.2589 C   0  0  2  0  0  0  0  0  0  0  0  0
   -8.9025   -0.0897   -0.9677 O   0  0  0  0  0  0  0  0  0  0  0  0
   -6.9958   -1.0326   -0.0121 C   0  0  0  0  0  0  0  0  0  0  0  0
   -5.5306   -1.2746   -0.0900 C   0  0  0  0  0  0  0  0  0  0  0  0
    0.5354    0.4078    3.3449 H   0  0  0  0  0  0  0  0  0  0  0  0
    0.7967    1.5446    1.9825 H   0  0  0  0  0  0  0  0  0  0  0  0
   -3.9746    2.5652    3.5419 H   0  0  0  0  0  0  0  0  0  0  0  0
   -4.9654    1.4305    1.6073 H   0  0  0  0  0  0  0  0  0  0  0  0
    0.5590   -1.8921    1.6625 H   0  0  0  0  0  0  0  0  0  0  0  0
    2.9531   -2.0150    1.2642 H   0  0  0  0  0  0  0  0  0  0  0  0
    2.5742    0.5388   -2.1249 H   0  0  0  0  0  0  0  0  0  0  0  0
    0.1440    0.6707   -1.7463 H   0  0  0  0  0  0  0  0  0  0  0  0
    4.9038   -1.4706    1.2185 H   0  0  0  0  0  0  0  0  0  0  0  0
    6.6868    0.6470   -1.2971 H   0  0  0  0  0  0  0  0  0  0  0  0
   10.5584   -0.2066    0.2464 H   0  0  0  0  0  0  0  0  0  0  0  0
    9.5198   -1.7909    1.8414 H   0  0  0  0  0  0  0  0  0  0  0  0
   -4.5149   -0.7271   -1.8347 H   0  0  0  0  0  0  0  0  0  0  0  0
   -5.6560    1.7744   -0.4462 H   0  0  0  0  0  0  0  0  0  0  0  0
   -4.8873    1.5030   -2.0196 H   0  0  0  0  0  0  0  0  0  0  0  0
   -6.7204    0.6371   -2.9725 H   0  0  0  0  0  0  0  0  0  0  0  0
   -7.4479    1.6181   -1.7101 H   0  0  0  0  0  0  0  0  0  0  0  0
   -7.5862   -1.2587   -2.0296 H   0  0  0  0  0  0  0  0  0  0  0  0
   -9.2507   -0.5698   -0.1647 H   0  0  0  0  0  0  0  0  0  0  0  0
   -7.2013   -0.3646    0.8669 H   0  0  0  0  0  0  0  0  0  0  0  0
   -7.5127   -2.0002    0.1528 H   0  0  0  0  0  0  0  0  0  0  0  0
   -5.3653   -2.3038   -0.5184 H   0  0  0  0  0  0  0  0  0  0  0  0
   -5.1368   -1.3693    0.9574 H   0  0  0  0  0  0  0  0  0  0  0  0
  1  2  1  0
  2  3  2  0
  3  4  1  0
  4  5  2  0
  5  6  1  0
  6  7  1  0
  7  8  2  0
  8  9  1  0
  9 10  1  0
 10 11  2  0
 11 12  1  0
 12 13  2  0
 13 14  1  0
 14 15  2  0
 13 16  1  0
 16 17  2  0
 16 18  1  0
 18 19  1  0
 19 20  2  0
 20 21  1  0
 21 22  2  0
 22 23  1  0
 23 24  2  0
 21 25  1  0
 25 26  1  0
 25 27  1  0
 25 28  1  0
  9 29  2  0
  7 30  1  0
 30 31  1  0
 31 32  1  0
 32 33  1  0
 33 34  1  0
 33 35  1  0
 35 36  1  0
 29  2  1  0
 36 30  1  0
 29  6  1  0
 15 10  1  0
 24 19  1  0
  1 37  1  0
  1 38  1  0
  4 39  1  0
  5 40  1  0
 11 41  1  0
 12 42  1  0
 14 43  1  0
 15 44  1  0
 18 45  1  0
 20 46  1  0
 22 47  1  0
 23 48  1  0
 30 49  1  6
 31 50  1  0
 31 51  1  0
 32 52  1  0
 32 53  1  0
 33 54  1  6
 34 55  1  0
 35 56  1  0
 35 57  1  0
 36 58  1  0
 36 59  1  0
M  END
$$$$
[H]/C(=C(/[H])c1nn([H])c2c([H])c([H])c([H])c([H])c12)c1c([H])c([H])c(C(=O)N2C([H])([H])C([H])([H])N([H])C([H])([H])C2([H])[H])c([H])c1[H]
     RDKit          3D

 45 48  0  0  0  0  0  0  0  0999 V2000
    3.5514    0.7440    1.9711 O   0  0  0  0  0  0  0  0  0  0  0  0
    3.3892    0.0685    0.8672 C   0  0  0  0  0  0  0  0  0  0  0  0
    4.5907   -0.4046    0.3401 N   0  0  0  0  0  0  0  0  0  0  0  0
    5.8363   -0.0821    1.0805 C   0  0  0  0  0  0  0  0  0  0  0  0
    6.8464    0.5740    0.1955 C   0  0  0  0  0  0  0  0  0  0  0  0
    6.9351   -0.1389   -1.0738 N   0  0  0  0  0  0  0  0  0  0  0  0
    6.3062   -1.4335   -0.9851 C   0  0  0  0  0  0  0  0  0  0  0  0
    4.7909   -1.1844   -0.8492 C   0  0  0  0  0  0  0  0  0  0  0  0
    2.0269   -0.0476    0.4278 C   0  0  0  0  0  0  0  0  0  0  0  0
    1.6279   -0.7053   -0.7085 C   0  0  0  0  0  0  0  0  0  0  0  0
    0.2723   -0.7857   -1.0847 C   0  0  0  0  0  0  0  0  0  0  0  0
   -0.7036   -0.2003   -0.3150 C   0  0  0  0  0  0  0  0  0  0  0  0
   -2.0925   -0.3054   -0.7371 C   0  0  0  0  0  0  0  0  0  0  0  0
   -3.1132    0.2129   -0.0839 C   0  0  0  0  0  0  0  0  0  0  0  0
   -4.4888    0.0482   -0.6000 C   0  0  0  0  0  0  0  0  0  0  0  0
   -4.8416   -0.6046   -1.7200 N   0  0  0  0  0  0  0  0  0  0  0  0
   -6.1395   -0.5577   -1.8797 N   0  0  0  0  0  0  0  0  0  0  0  0
   -6.6557    0.1457   -0.8354 C   0  0  0  0  0  0  0  0  0  0  0  0
   -7.9602    0.4571   -0.5683 C   0  0  0  0  0  0  0  0  0  0  0  0
   -8.2539    1.1947    0.5715 C   0  0  0  0  0  0  0  0  0  0  0  0
   -7.2213    1.5923    1.4019 C   0  0  0  0  0  0  0  0  0  0  0  0
   -5.9075    1.2749    1.1269 C   0  0  0  0  0  0  0  0  0  0  0  0
   -5.6302    0.5432   -0.0064 C   0  0  0  0  0  0  0  0  0  0  0  0
   -0.3026    0.4578    0.8222 C   0  0  0  0  0  0  0  0  0  0  0  0
    1.0089    0.5439    1.1996 C   0  0  0  0  0  0  0  0  0  0  0  0
    6.2423   -0.9896    1.5215 H   0  0  0  0  0  0  0  0  0  0  0  0
    5.5531    0.6221    1.8808 H   0  0  0  0  0  0  0  0  0  0  0  0
    7.8569    0.5491    0.6272 H   0  0  0  0  0  0  0  0  0  0  0  0
    6.6110    1.6519   -0.0034 H   0  0  0  0  0  0  0  0  0  0  0  0
    7.9122   -0.2166   -1.4132 H   0  0  0  0  0  0  0  0  0  0  0  0
    6.6537   -2.0110   -0.1378 H   0  0  0  0  0  0  0  0  0  0  0  0
    6.4605   -1.9379   -1.9665 H   0  0  0  0  0  0  0  0  0  0  0  0
    4.2816   -2.1691   -0.7810 H   0  0  0  0  0  0  0  0  0  0  0  0
    4.4864   -0.6351   -1.7695 H   0  0  0  0  0  0  0  0  0  0  0  0
    2.3212   -1.1854   -1.3618 H   0  0  0  0  0  0  0  0  0  0  0  0
    0.0611   -1.3257   -1.9963 H   0  0  0  0  0  0  0  0  0  0  0  0
   -2.3642   -0.8450   -1.6590 H   0  0  0  0  0  0  0  0  0  0  0  0
   -2.9354    0.7590    0.8314 H   0  0  0  0  0  0  0  0  0  0  0  0
   -6.6500   -0.9934   -2.6771 H   0  0  0  0  0  0  0  0  0  0  0  0
   -8.7873    0.1480   -1.2184 H   0  0  0  0  0  0  0  0  0  0  0  0
   -9.2919    1.4273    0.7594 H   0  0  0  0  0  0  0  0  0  0  0  0
   -7.4766    2.1675    2.2861 H   0  0  0  0  0  0  0  0  0  0  0  0
   -5.0901    1.5762    1.7625 H   0  0  0  0  0  0  0  0  0  0  0  0
   -1.0284    0.9367    1.4648 H   0  0  0  0  0  0  0  0  0  0  0  0
    1.3120    1.0639    2.0958 H   0  0  0  0  0  0  0  0  0  0  0  0
  1  2  2  0
  2  3  1  0
  3  4  1  0
  4  5  1  0
  5  6  1  0
  6  7  1  0
  7  8  1  0
  2  9  1  0
  9 10  2  0
 10 11  1  0
 11 12  2  0
 12 13  1  0
 13 14  2  0
 14 15  1  0
 15 16  2  0
 16 17  1  0
 17 18  1  0
 18 19  2  0
 19 20  1  0
 20 21  2  0
 21 22  1  0
 22 23  2  0
 12 24  1  0
 24 25  2  0
  8  3  1  0
 25  9  1  0
 23 15  1  0
 23 18  1  0
  4 26  1  0
  4 27  1  0
  5 28  1  0
  5 29  1  0
  6 30  1  0
  7 31  1  0
  7 32  1  0
  8 33  1  0
  8 34  1  0
 10 35  1  0
 11 36  1  0
 13 37  1  0
 14 38  1  0
 17 39  1  0
 19 40  1  0
 20 41  1  0
 21 42  1  0
 22 43  1  0
 24 44  1  0
 25 45  1  0
M  END
$$$$
