[H]c1nc([H])c2c(Cl)c(-n3nnc([H])c3[H])sc2c1N1C([H])([H])C2(O[C@]([H])(c3c([H])c([H])c(Cl)c([H])c3Cl)C2([H])[H])C1([H])[H]
     RDKit          3D

 44 49  0  0  0  0  0  0  0  0999 V2000
   -8.2777    0.3191    1.8293 Cl  0  0  0  0  0  0  0  0  0  0  0  0
   -6.7573    0.2972    0.9332 C   0  0  0  0  0  0  0  0  0  0  0  0
   -5.7692    1.2317    1.2601 C   0  0  0  0  0  0  0  0  0  0  0  0
   -4.5805    1.1854    0.5227 C   0  0  0  0  0  0  0  0  0  0  0  0
   -4.3814    0.2634   -0.4816 C   0  0  0  0  0  0  0  0  0  0  0  0
   -5.3585   -0.6511   -0.7930 C   0  0  0  0  0  0  0  0  0  0  0  0
   -5.0837   -1.8652   -2.0597 Cl  0  0  0  0  0  0  0  0  0  0  0  0
   -6.5343   -0.6130   -0.0717 C   0  0  0  0  0  0  0  0  0  0  0  0
   -3.1732    0.3049   -1.3547 C   0  0  2  0  0  0  0  0  0  0  0  0
   -2.0169   -0.5673   -0.9809 C   0  0  0  0  0  0  0  0  0  0  0  0
   -1.5075    0.6560   -0.3884 C   0  0  0  0  0  0  0  0  0  0  0  0
   -0.0367    0.9476   -0.5367 C   0  0  0  0  0  0  0  0  0  0  0  0
    0.1350    0.1242    0.6593 N   0  0  0  0  0  0  0  0  0  0  0  0
   -1.1832    0.6351    1.0748 C   0  0  0  0  0  0  0  0  0  0  0  0
    1.1120   -0.7715    1.1419 C   0  0  0  0  0  0  0  0  0  0  0  0
    0.7839   -1.8650    1.9187 C   0  0  0  0  0  0  0  0  0  0  0  0
    1.8246   -2.6216    2.2996 N   0  0  0  0  0  0  0  0  0  0  0  0
    3.0876   -2.4357    2.0158 C   0  0  0  0  0  0  0  0  0  0  0  0
    3.4883   -1.3354    1.2231 C   0  0  0  0  0  0  0  0  0  0  0  0
    4.7225   -1.0245    0.8003 C   0  0  0  0  0  0  0  0  0  0  0  0
    6.2240   -1.9312    1.2292 Cl  0  0  0  0  0  0  0  0  0  0  0  0
    4.8700    0.0721   -0.0212 C   0  0  0  0  0  0  0  0  0  0  0  0
    3.2433    0.6312   -0.1592 S   0  0  0  0  0  0  0  0  0  0  0  0
    2.4579   -0.5289    0.8096 C   0  0  0  0  0  0  0  0  0  0  0  0
    6.0433    0.5530   -0.6540 N   0  0  0  0  0  0  0  0  0  0  0  0
    6.0817    1.3731   -1.7057 C   0  0  0  0  0  0  0  0  0  0  0  0
    7.4260    1.5864   -2.0871 C   0  0  0  0  0  0  0  0  0  0  0  0
    8.1101    0.8589   -1.2103 N   0  0  0  0  0  0  0  0  0  0  0  0
    7.3205    0.2468   -0.3677 N   0  0  0  0  0  0  0  0  0  0  0  0
   -2.3881    1.4830   -0.9479 O   0  0  0  0  0  0  0  0  0  0  0  0
   -5.9650    1.9528    2.0299 H   0  0  0  0  0  0  0  0  0  0  0  0
   -3.8513    1.9406    0.7818 H   0  0  0  0  0  0  0  0  0  0  0  0
   -7.3143   -1.3718   -0.3156 H   0  0  0  0  0  0  0  0  0  0  0  0
   -3.4525    0.3722   -2.4037 H   0  0  0  0  0  0  0  0  0  0  0  0
   -1.4441   -0.9301   -1.8937 H   0  0  0  0  0  0  0  0  0  0  0  0
   -2.2351   -1.3831   -0.2669 H   0  0  0  0  0  0  0  0  0  0  0  0
    0.2068    2.0093   -0.3369 H   0  0  0  0  0  0  0  0  0  0  0  0
    0.4427    0.5785   -1.4290 H   0  0  0  0  0  0  0  0  0  0  0  0
   -1.7462   -0.1416    1.6643 H   0  0  0  0  0  0  0  0  0  0  0  0
   -1.0687    1.6119    1.5456 H   0  0  0  0  0  0  0  0  0  0  0  0
   -0.2310   -2.0815    2.1843 H   0  0  0  0  0  0  0  0  0  0  0  0
    3.8376   -3.1400    2.4082 H   0  0  0  0  0  0  0  0  0  0  0  0
    5.2333    1.8121   -2.1855 H   0  0  0  0  0  0  0  0  0  0  0  0
    7.7053    2.2120   -2.9110 H   0  0  0  0  0  0  0  0  0  0  0  0
  1  2  1  0
  2  3  2  0
  3  4  1  0
  4  5  2  0
  5  6  1  0
  6  7  1  0
  6  8  2  0
  5  9  1  0
  9 10  1  0
 10 11  1  0
 11 12  1  0
 12 13  1  0
 13 14  1  0
 13 15  1  0
 15 16  2  0
 16 17  1  0
 17 18  2  0
 18 19  1  0
 19 20  1  0
 20 21  1  0
 20 22  2  0
 22 23  1  0
 23 24  1  0
 22 25  1  0
 25 26  1  0
 26 27  2  0
 27 28  1  0
 28 29  2  0
 11 30  1  0
  8  2  1  0
 30  9  1  0
 14 11  1  0
 24 15  1  0
 29 25  1  0
 24 19  2  0
  3 31  1  0
  4 32  1  0
  8 33  1  0
  9 34  1  6
 10 35  1  0
 10 36  1  0
 12 37  1  0
 12 38  1  0
 14 39  1  0
 14 40  1  0
 16 41  1  0
 18 42  1  0
 26 43  1  0
 27 44  1  0
M  END
$$$$
[H]N=C(N([H])[H])N([H])C([H])([H])C([H])([H])C([H])([H])[C@@]([H])(C(=O)O[H])N([H])C(=O)[C@@]1([H])N([H])C([H])([H])c2c([H])c([H])c([H])c([H])c2C1([H])[H]
     RDKit          3D

 47 48  0  0  0  0  0  0  0  0999 V2000
    6.9032    1.3606   -0.2355 N   0  0  0  0  0  0  0  0  0  0  0  0
    5.4904    1.1004   -0.0185 C   0  0  0  0  0  0  0  0  0  0  0  0
    4.8864    1.7680    0.8688 N   0  0  0  0  0  0  0  0  0  0  0  0
    4.8606    0.1653   -0.8468 N   0  0  0  0  0  0  0  0  0  0  0  0
    4.6756   -1.2167   -0.6939 C   0  0  0  0  0  0  0  0  0  0  0  0
    3.6864   -1.6484    0.3373 C   0  0  0  0  0  0  0  0  0  0  0  0
    2.3693   -0.9263    0.0458 C   0  0  0  0  0  0  0  0  0  0  0  0
    1.1987   -1.4481    0.7546 C   0  0  2  0  0  0  0  0  0  0  0  0
    0.0110   -0.6939    0.5631 N   0  0  0  0  0  0  0  0  0  0  0  0
   -0.8627   -0.7772   -0.5902 C   0  0  0  0  0  0  0  0  0  0  0  0
   -0.5001   -1.5227   -1.5641 O   0  0  0  0  0  0  0  0  0  0  0  0
   -2.1215   -0.0775   -0.6358 C   0  0  2  0  0  0  0  0  0  0  0  0
   -2.3919    1.3353   -0.6221 C   0  0  0  0  0  0  0  0  0  0  0  0
   -3.9128    1.5106   -0.4815 C   0  0  0  0  0  0  0  0  0  0  0  0
   -4.4104    2.8173   -0.5848 C   0  0  0  0  0  0  0  0  0  0  0  0
   -5.7870    2.9995   -0.4110 C   0  0  0  0  0  0  0  0  0  0  0  0
   -6.6029    1.9373   -0.1525 C   0  0  0  0  0  0  0  0  0  0  0  0
   -6.0877    0.6417   -0.0549 C   0  0  0  0  0  0  0  0  0  0  0  0
   -4.7495    0.4613   -0.2285 C   0  0  0  0  0  0  0  0  0  0  0  0
   -4.2378   -0.9681   -0.2092 C   0  0  0  0  0  0  0  0  0  0  0  0
   -2.9579   -0.8516    0.3906 N   0  0  0  0  0  0  0  0  0  0  0  0
    1.3512   -2.0435    2.0658 C   0  0  0  0  0  0  0  0  0  0  0  0
    2.0137   -3.2863    2.2376 O   0  0  0  0  0  0  0  0  0  0  0  0
    0.9176   -1.5222    3.1174 O   0  0  0  0  0  0  0  0  0  0  0  0
    7.2048    1.9427   -1.0606 H   0  0  0  0  0  0  0  0  0  0  0  0
    7.5821    0.9617    0.4383 H   0  0  0  0  0  0  0  0  0  0  0  0
    5.3944    2.4977    1.4315 H   0  0  0  0  0  0  0  0  0  0  0  0
    4.4475    0.6371   -1.7623 H   0  0  0  0  0  0  0  0  0  0  0  0
    4.3473   -1.6904   -1.6611 H   0  0  0  0  0  0  0  0  0  0  0  0
    5.6871   -1.7242   -0.4708 H   0  0  0  0  0  0  0  0  0  0  0  0
    4.0686   -1.2343    1.3185 H   0  0  0  0  0  0  0  0  0  0  0  0
    3.5924   -2.7245    0.4380 H   0  0  0  0  0  0  0  0  0  0  0  0
    2.5767    0.1446    0.2406 H   0  0  0  0  0  0  0  0  0  0  0  0
    2.2265   -1.0964   -1.0660 H   0  0  0  0  0  0  0  0  0  0  0  0
    0.8971   -2.4369    0.0889 H   0  0  0  0  0  0  0  0  0  0  0  0
   -0.3085   -0.0089    1.3189 H   0  0  0  0  0  0  0  0  0  0  0  0
   -2.5989   -0.4519   -1.6447 H   0  0  0  0  0  0  0  0  0  0  0  0
   -2.1547    1.7655   -1.6682 H   0  0  0  0  0  0  0  0  0  0  0  0
   -1.8472    2.0027    0.0516 H   0  0  0  0  0  0  0  0  0  0  0  0
   -3.7910    3.6556   -0.7842 H   0  0  0  0  0  0  0  0  0  0  0  0
   -6.2357    3.9863   -0.5010 H   0  0  0  0  0  0  0  0  0  0  0  0
   -7.6751    2.0423   -0.0018 H   0  0  0  0  0  0  0  0  0  0  0  0
   -6.6963   -0.2092    0.1578 H   0  0  0  0  0  0  0  0  0  0  0  0
   -4.9247   -1.6511    0.2787 H   0  0  0  0  0  0  0  0  0  0  0  0
   -4.0590   -1.2402   -1.3008 H   0  0  0  0  0  0  0  0  0  0  0  0
   -2.9980   -0.1715    1.2262 H   0  0  0  0  0  0  0  0  0  0  0  0
    1.5227   -4.1115    1.8810 H   0  0  0  0  0  0  0  0  0  0  0  0
  1  2  1  0
  2  3  2  3
  2  4  1  0
  4  5  1  0
  5  6  1  0
  6  7  1  0
  7  8  1  0
  8  9  1  0
  9 10  1  0
 10 11  2  0
 10 12  1  0
 12 13  1  0
 13 14  1  0
 14 15  2  0
 15 16  1  0
 16 17  2  0
 17 18  1  0
 18 19  2  0
 19 20  1  0
 20 21  1  0
  8 22  1  0
 22 23  1  0
 22 24  2  0
 21 12  1  0
 19 14  1  0
  1 25  1  0
  1 26  1  0
  3 27  1  0
  4 28  1  0
  5 29  1  0
  5 30  1  0
  6 31  1  0
  6 32  1  0
  7 33  1  0
  7 34  1  0
  8 35  1  6
  9 36  1  0
 12 37  1  6
 13 38  1  0
 13 39  1  0
 15 40  1  0
 16 41  1  0
 17 42  1  0
 18 43  1  0
 20 44  1  0
 20 45  1  0
 21 46  1  0
 23 47  1  0
M  END
$$$$
[H]c1c([H])c(N([H])S(=O)(=O)C([H])([H])C([H])([H])[H])c([H])c(C([H])([H])C([H])([H])N([H])C(=O)N([H])c2c([H])c([H])c3c([H])c([H])c([H])c([H])c3c2[H])c1[H]
     RDKit          3D

 51 53  0  0  0  0  0  0  0  0999 V2000
   -5.6211   -2.6259   -0.7021 C   0  0  0  0  0  0  0  0  0  0  0  0
   -5.6882   -1.1140   -0.7111 C   0  0  0  0  0  0  0  0  0  0  0  0
   -6.0557   -0.5027    0.9304 S   0  0  0  0  0  0  0  0  0  0  0  0
   -5.0188   -1.0725    1.8440 O   0  0  0  0  0  0  0  0  0  0  0  0
   -7.4065   -1.0724    1.3201 O   0  0  0  0  0  0  0  0  0  0  0  0
   -6.1386    1.2045    0.9546 N   0  0  0  0  0  0  0  0  0  0  0  0
   -5.0398    2.0519    0.6214 C   0  0  0  0  0  0  0  0  0  0  0  0
   -5.2536    3.1413   -0.2202 C   0  0  0  0  0  0  0  0  0  0  0  0
   -4.2139    3.9780   -0.5622 C   0  0  0  0  0  0  0  0  0  0  0  0
   -2.9578    3.7079   -0.0492 C   0  0  0  0  0  0  0  0  0  0  0  0
   -2.7191    2.6389    0.7839 C   0  0  0  0  0  0  0  0  0  0  0  0
   -1.3749    2.3413    1.3388 C   0  0  0  0  0  0  0  0  0  0  0  0
   -0.5780    1.4301    0.4524 C   0  0  0  0  0  0  0  0  0  0  0  0
    0.6995    1.1855    1.0428 N   0  0  0  0  0  0  0  0  0  0  0  0
    1.6503    0.3365    0.3792 C   0  0  0  0  0  0  0  0  0  0  0  0
    1.3066   -0.1605   -0.7104 O   0  0  0  0  0  0  0  0  0  0  0  0
    2.9169    0.0861    0.9516 N   0  0  0  0  0  0  0  0  0  0  0  0
    3.8841   -0.7456    0.3678 C   0  0  0  0  0  0  0  0  0  0  0  0
    3.6519   -1.7278   -0.5485 C   0  0  0  0  0  0  0  0  0  0  0  0
    4.6572   -2.5115   -1.1181 C   0  0  0  0  0  0  0  0  0  0  0  0
    5.9487   -2.2736   -0.7276 C   0  0  0  0  0  0  0  0  0  0  0  0
    6.9930   -3.0162   -1.2546 C   0  0  0  0  0  0  0  0  0  0  0  0
    8.2777   -2.7574   -0.8459 C   0  0  0  0  0  0  0  0  0  0  0  0
    8.5545   -1.7681    0.0839 C   0  0  0  0  0  0  0  0  0  0  0  0
    7.5186   -1.0339    0.6045 C   0  0  0  0  0  0  0  0  0  0  0  0
    6.2184   -1.2932    0.1933 C   0  0  0  0  0  0  0  0  0  0  0  0
    5.2241   -0.5282    0.7470 C   0  0  0  0  0  0  0  0  0  0  0  0
   -3.7804    1.8058    1.1178 C   0  0  0  0  0  0  0  0  0  0  0  0
   -6.0818   -2.9717    0.2411 H   0  0  0  0  0  0  0  0  0  0  0  0
   -4.5701   -2.9766   -0.7504 H   0  0  0  0  0  0  0  0  0  0  0  0
   -6.1519   -2.9803   -1.6063 H   0  0  0  0  0  0  0  0  0  0  0  0
   -4.7330   -0.7434   -1.0915 H   0  0  0  0  0  0  0  0  0  0  0  0
   -6.4959   -0.7600   -1.4154 H   0  0  0  0  0  0  0  0  0  0  0  0
   -7.0445    1.6610    1.2287 H   0  0  0  0  0  0  0  0  0  0  0  0
   -6.2508    3.3231   -0.6038 H   0  0  0  0  0  0  0  0  0  0  0  0
   -4.3443    4.8409   -1.2189 H   0  0  0  0  0  0  0  0  0  0  0  0
   -2.1541    4.3569   -0.3152 H   0  0  0  0  0  0  0  0  0  0  0  0
   -0.8695    3.2841    1.5603 H   0  0  0  0  0  0  0  0  0  0  0  0
   -1.5251    1.8166    2.3034 H   0  0  0  0  0  0  0  0  0  0  0  0
   -0.4091    1.8514   -0.5592 H   0  0  0  0  0  0  0  0  0  0  0  0
   -1.1042    0.4470    0.3802 H   0  0  0  0  0  0  0  0  0  0  0  0
    0.9618    1.6040    1.9392 H   0  0  0  0  0  0  0  0  0  0  0  0
    3.1468    0.5648    1.8999 H   0  0  0  0  0  0  0  0  0  0  0  0
    2.6563   -1.9666   -0.8738 H   0  0  0  0  0  0  0  0  0  0  0  0
    4.4125   -3.2763   -1.8411 H   0  0  0  0  0  0  0  0  0  0  0  0
    6.7777   -3.7896   -1.9814 H   0  0  0  0  0  0  0  0  0  0  0  0
    9.0699   -3.3450   -1.2676 H   0  0  0  0  0  0  0  0  0  0  0  0
    9.5630   -1.5947    0.3780 H   0  0  0  0  0  0  0  0  0  0  0  0
    7.7034   -0.2467    1.3396 H   0  0  0  0  0  0  0  0  0  0  0  0
    5.4154    0.2517    1.4758 H   0  0  0  0  0  0  0  0  0  0  0  0
   -3.6276    0.9450    1.7799 H   0  0  0  0  0  0  0  0  0  0  0  0
  1  2  1  0
  2  3  1  0
  3  4  2  0
  3  5  2  0
  3  6  1  0
  6  7  1  0
  7  8  2  0
  8  9  1  0
  9 10  2  0
 10 11  1  0
 11 12  1  0
 12 13  1  0
 13 14  1  0
 14 15  1  0
 15 16  2  0
 15 17  1  0
 17 18  1  0
 18 19  2  0
 19 20  1  0
 20 21  2  0
 21 22  1  0
 22 23  2  0
 23 24  1  0
 24 25  2  0
 25 26  1  0
 26 27  2  0
 11 28  2  0
 28  7  1  0
 27 18  1  0
 26 21  1  0
  1 29  1  0
  1 30  1  0
  1 31  1  0
  2 32  1  0
  2 33  1  0
  6 34  1  0
  8 35  1  0
  9 36  1  0
 10 37  1  0
 12 38  1  0
 12 39  1  0
 13 40  1  0
 13 41  1  0
 14 42  1  0
 17 43  1  0
 19 44  1  0
 20 45  1  0
 22 46  1  0
 23 47  1  0
 24 48  1  0
 25 49  1  0
 27 50  1  0
 28 51  1  0
M  END
$$$$
[H]OC(=O)C([H])([H])Oc1c([H])c([H])c([H])c(-c2nc(C(=O)N([H])c3c([H])c([H])c(F)c([H])c3[H])c([H])s2)c1[H]
     RDKit          3D

 39 41  0  0  0  0  0  0  0  0999 V2000
    6.4052   -1.4259    1.8666 O   0  0  0  0  0  0  0  0  0  0  0  0
    7.3321   -0.9637    0.9514 C   0  0  0  0  0  0  0  0  0  0  0  0
    8.4536   -1.5464    0.9161 O   0  0  0  0  0  0  0  0  0  0  0  0
    7.0559    0.1530    0.0511 C   0  0  0  0  0  0  0  0  0  0  0  0
    5.7455    0.5938    0.1648 O   0  0  0  0  0  0  0  0  0  0  0  0
    4.6060   -0.1115   -0.1409 C   0  0  0  0  0  0  0  0  0  0  0  0
    4.6505   -1.3825   -0.6432 C   0  0  0  0  0  0  0  0  0  0  0  0
    3.4993   -2.0888   -0.9456 C   0  0  0  0  0  0  0  0  0  0  0  0
    2.2719   -1.4460   -0.7163 C   0  0  0  0  0  0  0  0  0  0  0  0
    2.2129   -0.1917   -0.2217 C   0  0  0  0  0  0  0  0  0  0  0  0
    3.3553    0.4905    0.0715 C   0  0  0  0  0  0  0  0  0  0  0  0
    0.9233    0.4562    0.0084 C   0  0  0  0  0  0  0  0  0  0  0  0
   -0.2951    0.0065   -0.1934 N   0  0  0  0  0  0  0  0  0  0  0  0
   -1.3268    0.7499    0.0797 C   0  0  0  0  0  0  0  0  0  0  0  0
   -1.0846    2.0045    0.5801 C   0  0  0  0  0  0  0  0  0  0  0  0
    0.6222    2.0382    0.6273 S   0  0  0  0  0  0  0  0  0  0  0  0
   -2.7147    0.2298   -0.1533 C   0  0  0  0  0  0  0  0  0  0  0  0
   -2.8741   -0.9239   -0.6122 O   0  0  0  0  0  0  0  0  0  0  0  0
   -3.8149    1.0281    0.1403 N   0  0  0  0  0  0  0  0  0  0  0  0
   -5.1581    0.7006   -0.0230 C   0  0  0  0  0  0  0  0  0  0  0  0
   -6.1063    1.4858    0.6430 C   0  0  0  0  0  0  0  0  0  0  0  0
   -7.4470    1.2530    0.5307 C   0  0  0  0  0  0  0  0  0  0  0  0
   -7.9259    0.2318   -0.2456 C   0  0  0  0  0  0  0  0  0  0  0  0
   -9.2310   -0.0095   -0.3662 F   0  0  0  0  0  0  0  0  0  0  0  0
   -7.0141   -0.5428   -0.9018 C   0  0  0  0  0  0  0  0  0  0  0  0
   -5.6438   -0.3256   -0.8037 C   0  0  0  0  0  0  0  0  0  0  0  0
    6.3094   -2.4378    1.9512 H   0  0  0  0  0  0  0  0  0  0  0  0
    7.7991    0.9837    0.1468 H   0  0  0  0  0  0  0  0  0  0  0  0
    7.2502   -0.2375   -0.9969 H   0  0  0  0  0  0  0  0  0  0  0  0
    5.6185   -1.8501   -0.8264 H   0  0  0  0  0  0  0  0  0  0  0  0
    3.5592   -3.0758   -1.3345 H   0  0  0  0  0  0  0  0  0  0  0  0
    1.3532   -1.9726   -0.9430 H   0  0  0  0  0  0  0  0  0  0  0  0
    3.3302    1.4912    0.4665 H   0  0  0  0  0  0  0  0  0  0  0  0
   -1.8131    2.7858    0.8743 H   0  0  0  0  0  0  0  0  0  0  0  0
   -3.5987    1.9968    0.5277 H   0  0  0  0  0  0  0  0  0  0  0  0
   -5.7787    2.3084    1.2721 H   0  0  0  0  0  0  0  0  0  0  0  0
   -8.1699    1.8736    1.0556 H   0  0  0  0  0  0  0  0  0  0  0  0
   -7.3462   -1.3553   -1.5220 H   0  0  0  0  0  0  0  0  0  0  0  0
   -5.0106   -0.9738   -1.3611 H   0  0  0  0  0  0  0  0  0  0  0  0
  1  2  1  0
  2  3  2  0
  2  4  1  0
  4  5  1  0
  5  6  1  0
  6  7  2  0
  7  8  1  0
  8  9  2  0
  9 10  1  0
 10 11  2  0
 10 12  1  0
 12 13  2  0
 13 14  1  0
 14 15  2  0
 15 16  1  0
 14 17  1  0
 17 18  2  0
 17 19  1  0
 19 20  1  0
 20 21  2  0
 21 22  1  0
 22 23  2  0
 23 24  1  0
 23 25  1  0
 25 26  2  0
 11  6  1  0
 16 12  1  0
 26 20  1  0
  1 27  1  0
  4 28  1  0
  4 29  1  0
  7 30  1  0
  8 31  1  0
  9 32  1  0
 11 33  1  0
 15 34  1  0
 19 35  1  0
 21 36  1  0
 22 37  1  0
 25 38  1  0
 26 39  1  0
M  END
$$$$
[H]c1c([H])c([H])c(C([H])([H])[C@@]([H])(C(=O)N2C([H])([H])C([H])([H])C([H])([H])[C@@]2([H])C(=O)N([H])[C@@]([H])(C(=O)N2C([H])([H])C([H])([H])[C@@]([H])(N([H])C(=O)N([H])OC([H])([H])[H])C([H])([H])[C@]2([H])C([H])([H])c2c([H])c([H])c([H])c([H])c2[H])C([H])([H])c2c([H])c([H])c([H])c([H])c2[H])N([H])C(=O)C([H])([H])[H])c([H])c1[H]
     RDKit          3D

 99103  0  0  0  0  0  0  0  0999 V2000
   10.7742    3.2019   -0.4232 C   0  0  0  0  0  0  0  0  0  0  0  0
   10.3603    3.0048    0.8818 O   0  0  0  0  0  0  0  0  0  0  0  0
    9.0424    3.1942    0.9752 N   0  0  0  0  0  0  0  0  0  0  0  0
    8.1440    2.2783    0.3723 C   0  0  0  0  0  0  0  0  0  0  0  0
    8.5860    1.2751   -0.2581 O   0  0  0  0  0  0  0  0  0  0  0  0
    6.7456    2.4428    0.4503 N   0  0  0  0  0  0  0  0  0  0  0  0
    5.8410    1.4983   -0.1607 C   0  0  2  0  0  0  0  0  0  0  0  0
    4.9182    2.1640   -1.1633 C   0  0  0  0  0  0  0  0  0  0  0  0
    3.4953    2.1456   -0.7126 C   0  0  0  0  0  0  0  0  0  0  0  0
    3.0126    0.7738   -0.4257 N   0  0  0  0  0  0  0  0  0  0  0  0
    3.8933   -0.0039    0.4082 C   0  0  1  0  0  0  0  0  0  0  0  0
    4.4546   -1.2376   -0.2085 C   0  0  0  0  0  0  0  0  0  0  0  0
    5.2932   -1.9695    0.7594 C   0  0  0  0  0  0  0  0  0  0  0  0
    6.6404   -1.9074    0.9043 C   0  0  0  0  0  0  0  0  0  0  0  0
    7.3236   -2.6501    1.8689 C   0  0  0  0  0  0  0  0  0  0  0  0
    6.6370   -3.4875    2.7219 C   0  0  0  0  0  0  0  0  0  0  0  0
    5.2491   -3.5597    2.5822 C   0  0  0  0  0  0  0  0  0  0  0  0
    4.6130   -2.8228    1.6323 C   0  0  0  0  0  0  0  0  0  0  0  0
    5.0098    0.9160    0.9335 C   0  0  0  0  0  0  0  0  0  0  0  0
    1.7885    0.4281   -0.9886 C   0  0  0  0  0  0  0  0  0  0  0  0
    1.2559    1.3743   -1.7304 O   0  0  0  0  0  0  0  0  0  0  0  0
    0.9755   -0.7726   -0.9233 C   0  0  1  0  0  0  0  0  0  0  0  0
    0.7097   -1.3674    0.4198 C   0  0  0  0  0  0  0  0  0  0  0  0
   -0.1556   -2.5996    0.3377 C   0  0  0  0  0  0  0  0  0  0  0  0
    0.4181   -3.8243    0.0004 C   0  0  0  0  0  0  0  0  0  0  0  0
   -0.3204   -4.9843   -0.0566 C   0  0  0  0  0  0  0  0  0  0  0  0
   -1.6629   -4.9769    0.2204 C   0  0  0  0  0  0  0  0  0  0  0  0
   -2.2309   -3.7816    0.5520 C   0  0  0  0  0  0  0  0  0  0  0  0
   -1.5052   -2.5993    0.6150 C   0  0  0  0  0  0  0  0  0  0  0  0
   -0.2494   -0.7108   -1.7233 N   0  0  0  0  0  0  0  0  0  0  0  0
   -1.3526    0.1792   -1.3786 C   0  0  0  0  0  0  0  0  0  0  0  0
   -1.1711    0.8865   -0.3750 O   0  0  0  0  0  0  0  0  0  0  0  0
   -2.5118    0.1525   -2.2002 C   0  0  2  0  0  0  0  0  0  0  0  0
   -2.5474    1.3347   -3.2040 C   0  0  0  0  0  0  0  0  0  0  0  0
   -3.9468    1.1441   -3.8035 C   0  0  0  0  0  0  0  0  0  0  0  0
   -4.5466   -0.0247   -3.0368 C   0  0  0  0  0  0  0  0  0  0  0  0
   -3.8638    0.2274   -1.7306 N   0  0  0  0  0  0  0  0  0  0  0  0
   -4.3935    0.4791   -0.4860 C   0  0  0  0  0  0  0  0  0  0  0  0
   -3.5156    0.7613    0.4530 O   0  0  0  0  0  0  0  0  0  0  0  0
   -5.7303    0.5141    0.0758 C   0  0  2  0  0  0  0  0  0  0  0  0
   -6.8630    0.3324   -0.8512 C   0  0  0  0  0  0  0  0  0  0  0  0
   -8.1784    0.4104   -0.0888 C   0  0  0  0  0  0  0  0  0  0  0  0
   -8.8433    1.6019    0.0857 C   0  0  0  0  0  0  0  0  0  0  0  0
  -10.0254    1.6643    0.7883 C   0  0  0  0  0  0  0  0  0  0  0  0
  -10.5254    0.4957    1.3137 C   0  0  0  0  0  0  0  0  0  0  0  0
   -9.8798   -0.6998    1.1517 C   0  0  0  0  0  0  0  0  0  0  0  0
   -8.6923   -0.7386    0.4411 C   0  0  0  0  0  0  0  0  0  0  0  0
   -5.9401    1.6034    1.0228 N   0  0  0  0  0  0  0  0  0  0  0  0
   -6.1700    1.4438    2.4011 C   0  0  0  0  0  0  0  0  0  0  0  0
   -6.3766    2.6243    3.2740 C   0  0  0  0  0  0  0  0  0  0  0  0
   -6.1998    0.2944    2.8893 O   0  0  0  0  0  0  0  0  0  0  0  0
   10.7180    2.2799   -1.0513 H   0  0  0  0  0  0  0  0  0  0  0  0
   10.1693    3.9660   -0.9599 H   0  0  0  0  0  0  0  0  0  0  0  0
   11.8361    3.5544   -0.3776 H   0  0  0  0  0  0  0  0  0  0  0  0
    8.7146    4.0341    1.5064 H   0  0  0  0  0  0  0  0  0  0  0  0
    6.3544    3.2574    0.9546 H   0  0  0  0  0  0  0  0  0  0  0  0
    6.4587    0.7499   -0.6859 H   0  0  0  0  0  0  0  0  0  0  0  0
    4.9947    1.6409   -2.1364 H   0  0  0  0  0  0  0  0  0  0  0  0
    5.2176    3.2126   -1.2996 H   0  0  0  0  0  0  0  0  0  0  0  0
    2.8979    2.6059   -1.5461 H   0  0  0  0  0  0  0  0  0  0  0  0
    3.2931    2.7320    0.1858 H   0  0  0  0  0  0  0  0  0  0  0  0
    3.4034   -0.3362    1.3778 H   0  0  0  0  0  0  0  0  0  0  0  0
    5.0561   -1.0229   -1.1307 H   0  0  0  0  0  0  0  0  0  0  0  0
    3.6571   -1.9072   -0.5310 H   0  0  0  0  0  0  0  0  0  0  0  0
    7.2150   -1.2717    0.2515 H   0  0  0  0  0  0  0  0  0  0  0  0
    8.3935   -2.5934    1.9785 H   0  0  0  0  0  0  0  0  0  0  0  0
    7.0855   -4.0887    3.4871 H   0  0  0  0  0  0  0  0  0  0  0  0
    4.6996   -4.2240    3.2575 H   0  0  0  0  0  0  0  0  0  0  0  0
    3.5299   -2.9264    1.5756 H   0  0  0  0  0  0  0  0  0  0  0  0
    4.5034    1.7450    1.4824 H   0  0  0  0  0  0  0  0  0  0  0  0
    5.5641    0.3443    1.6848 H   0  0  0  0  0  0  0  0  0  0  0  0
    1.5879   -1.5757   -1.4693 H   0  0  0  0  0  0  0  0  0  0  0  0
    1.6368   -1.6064    0.9525 H   0  0  0  0  0  0  0  0  0  0  0  0
    0.1603   -0.6558    1.0939 H   0  0  0  0  0  0  0  0  0  0  0  0
    1.4762   -3.8522   -0.2217 H   0  0  0  0  0  0  0  0  0  0  0  0
    0.1834   -5.9223   -0.3296 H   0  0  0  0  0  0  0  0  0  0  0  0
   -2.2393   -5.8822    0.1757 H   0  0  0  0  0  0  0  0  0  0  0  0
   -3.3104   -3.7982    0.7705 H   0  0  0  0  0  0  0  0  0  0  0  0
   -2.0047   -1.6990    0.9010 H   0  0  0  0  0  0  0  0  0  0  0  0
   -0.3904   -1.2992   -2.5730 H   0  0  0  0  0  0  0  0  0  0  0  0
   -2.4559   -0.7407   -2.9398 H   0  0  0  0  0  0  0  0  0  0  0  0
   -2.4891    2.2435   -2.5821 H   0  0  0  0  0  0  0  0  0  0  0  0
   -1.7606    1.2521   -3.9521 H   0  0  0  0  0  0  0  0  0  0  0  0
   -4.5533    2.0544   -3.7020 H   0  0  0  0  0  0  0  0  0  0  0  0
   -3.8054    0.8642   -4.8653 H   0  0  0  0  0  0  0  0  0  0  0  0
   -5.5783   -0.1065   -3.0510 H   0  0  0  0  0  0  0  0  0  0  0  0
   -4.0895   -0.9821   -3.3827 H   0  0  0  0  0  0  0  0  0  0  0  0
   -5.7839   -0.4119    0.7790 H   0  0  0  0  0  0  0  0  0  0  0  0
   -6.8819   -0.6930   -1.2932 H   0  0  0  0  0  0  0  0  0  0  0  0
   -6.9163    1.1055   -1.6098 H   0  0  0  0  0  0  0  0  0  0  0  0
   -8.4379    2.4987   -0.3304 H   0  0  0  0  0  0  0  0  0  0  0  0
  -10.5637    2.6019    0.9369 H   0  0  0  0  0  0  0  0  0  0  0  0
  -11.4619    0.5637    1.8684 H   0  0  0  0  0  0  0  0  0  0  0  0
  -10.3085   -1.6185    1.5897 H   0  0  0  0  0  0  0  0  0  0  0  0
   -8.2101   -1.7197    0.3379 H   0  0  0  0  0  0  0  0  0  0  0  0
   -5.9160    2.5655    0.6251 H   0  0  0  0  0  0  0  0  0  0  0  0
   -7.1647    3.3015    2.8275 H   0  0  0  0  0  0  0  0  0  0  0  0
   -6.7928    2.3593    4.2677 H   0  0  0  0  0  0  0  0  0  0  0  0
   -5.4757    3.2726    3.3384 H   0  0  0  0  0  0  0  0  0  0  0  0
  1  2  1  0
  2  3  1  0
  3  4  1  0
  4  5  2  0
  4  6  1  0
  6  7  1  0
  7  8  1  0
  8  9  1  0
  9 10  1  0
 10 11  1  0
 11 12  1  0
 12 13  1  0
 13 14  2  0
 14 15  1  0
 15 16  2  0
 16 17  1  0
 17 18  2  0
 11 19  1  0
 10 20  1  0
 20 21  2  0
 20 22  1  0
 22 23  1  0
 23 24  1  0
 24 25  2  0
 25 26  1  0
 26 27  2  0
 27 28  1  0
 28 29  2  0
 22 30  1  0
 30 31  1  0
 31 32  2  0
 31 33  1  0
 33 34  1  0
 34 35  1  0
 35 36  1  0
 36 37  1  0
 37 38  1  0
 38 39  2  0
 38 40  1  0
 40 41  1  0
 41 42  1  0
 42 43  2  0
 43 44  1  0
 44 45  2  0
 45 46  1  0
 46 47  2  0
 40 48  1  0
 48 49  1  0
 49 50  1  0
 49 51  2  0
 19  7  1  0
 29 24  1  0
 37 33  1  0
 47 42  1  0
 18 13  1  0
  1 52  1  0
  1 53  1  0
  1 54  1  0
  3 55  1  0
  6 56  1  0
  7 57  1  6
  8 58  1  0
  8 59  1  0
  9 60  1  0
  9 61  1  0
 11 62  1  1
 12 63  1  0
 12 64  1  0
 14 65  1  0
 15 66  1  0
 16 67  1  0
 17 68  1  0
 18 69  1  0
 19 70  1  0
 19 71  1  0
 22 72  1  6
 23 73  1  0
 23 74  1  0
 25 75  1  0
 26 76  1  0
 27 77  1  0
 28 78  1  0
 29 79  1  0
 30 80  1  0
 33 81  1  6
 34 82  1  0
 34 83  1  0
 35 84  1  0
 35 85  1  0
 36 86  1  0
 36 87  1  0
 40 88  1  1
 41 89  1  0
 41 90  1  0
 43 91  1  0
 44 92  1  0
 45 93  1  0
 46 94  1  0
 47 95  1  0
 48 96  1  0
 50 97  1  0
 50 98  1  0
 50 99  1  0
M  END
$$$$
[H]c1c([H])c(C(=O)N([H])[C@@]2([H])[C@@]([H])(Oc3c([H])c([H])c4c(c(C([H])([H])[H])nn4[H])c3[H])[C@]2([H])C(F)(F)F)c(Cl)c([H])c1F
     RDKit          3D

 43 46  0  0  0  0  0  0  0  0999 V2000
    4.1607    2.6487    1.9563 C   0  0  0  0  0  0  0  0  0  0  0  0
    4.4962    2.1618    0.5943 C   0  0  0  0  0  0  0  0  0  0  0  0
    5.5275    2.4810   -0.2047 N   0  0  0  0  0  0  0  0  0  0  0  0
    5.4593    1.8236   -1.3389 N   0  0  0  0  0  0  0  0  0  0  0  0
    4.3615    1.0196   -1.3546 C   0  0  0  0  0  0  0  0  0  0  0  0
    3.8604    0.1531   -2.2938 C   0  0  0  0  0  0  0  0  0  0  0  0
    2.7101   -0.5379   -2.0276 C   0  0  0  0  0  0  0  0  0  0  0  0
    2.0608   -0.3647   -0.8264 C   0  0  0  0  0  0  0  0  0  0  0  0
    0.8945   -1.0118   -0.4566 O   0  0  0  0  0  0  0  0  0  0  0  0
    0.2264   -1.9214   -1.2505 C   0  0  2  0  0  0  0  0  0  0  0  0
   -1.2712   -1.8414   -1.1806 C   0  0  2  0  0  0  0  0  0  0  0  0
   -1.8842   -1.0456   -0.1331 N   0  0  0  0  0  0  0  0  0  0  0  0
   -3.1085   -0.3937   -0.4164 C   0  0  0  0  0  0  0  0  0  0  0  0
   -3.6482   -0.5107   -1.5663 O   0  0  0  0  0  0  0  0  0  0  0  0
   -3.8205    0.4271    0.5379 C   0  0  0  0  0  0  0  0  0  0  0  0
   -4.7608   -0.1217    1.3788 C   0  0  0  0  0  0  0  0  0  0  0  0
   -5.4459    0.6807    2.3004 C   0  0  0  0  0  0  0  0  0  0  0  0
   -5.1803    2.0381    2.3716 C   0  0  0  0  0  0  0  0  0  0  0  0
   -5.8231    2.8375    3.2482 F   0  0  0  0  0  0  0  0  0  0  0  0
   -4.2465    2.5840    1.5367 C   0  0  0  0  0  0  0  0  0  0  0  0
   -3.5657    1.7774    0.6186 C   0  0  0  0  0  0  0  0  0  0  0  0
   -2.3749    2.5203   -0.4343 Cl  0  0  0  0  0  0  0  0  0  0  0  0
   -0.5439   -3.0558   -0.6675 C   0  0  1  0  0  0  0  0  0  0  0  0
   -0.7553   -4.2949   -1.5048 C   0  0  0  0  0  0  0  0  0  0  0  0
    0.4521   -4.8762   -1.8653 F   0  0  0  0  0  0  0  0  0  0  0  0
   -1.3900   -3.9850   -2.7156 F   0  0  0  0  0  0  0  0  0  0  0  0
   -1.5922   -5.1890   -0.8662 F   0  0  0  0  0  0  0  0  0  0  0  0
    2.6072    0.5345    0.1124 C   0  0  0  0  0  0  0  0  0  0  0  0
    3.7489    1.2281   -0.1372 C   0  0  0  0  0  0  0  0  0  0  0  0
    4.7488    3.5818    2.1385 H   0  0  0  0  0  0  0  0  0  0  0  0
    3.0869    2.8824    2.0608 H   0  0  0  0  0  0  0  0  0  0  0  0
    4.5085    1.9198    2.7422 H   0  0  0  0  0  0  0  0  0  0  0  0
    6.1289    1.8718   -2.1545 H   0  0  0  0  0  0  0  0  0  0  0  0
    4.3437   -0.0067   -3.2453 H   0  0  0  0  0  0  0  0  0  0  0  0
    2.2875   -1.2384   -2.7630 H   0  0  0  0  0  0  0  0  0  0  0  0
    0.6586   -2.1369   -2.2373 H   0  0  0  0  0  0  0  0  0  0  0  0
   -1.7985   -1.8968   -2.1547 H   0  0  0  0  0  0  0  0  0  0  0  0
   -1.4757   -0.9295    0.8071 H   0  0  0  0  0  0  0  0  0  0  0  0
   -5.0184   -1.1680    1.3791 H   0  0  0  0  0  0  0  0  0  0  0  0
   -6.1889    0.2881    2.9755 H   0  0  0  0  0  0  0  0  0  0  0  0
   -4.0236    3.6370    1.5743 H   0  0  0  0  0  0  0  0  0  0  0  0
   -0.5135   -3.2492    0.4239 H   0  0  0  0  0  0  0  0  0  0  0  0
    2.1014    0.6789    1.0656 H   0  0  0  0  0  0  0  0  0  0  0  0
  1  2  1  0
  2  3  2  0
  3  4  1  0
  4  5  1  0
  5  6  2  0
  6  7  1  0
  7  8  2  0
  8  9  1  0
  9 10  1  0
 10 11  1  0
 11 12  1  0
 12 13  1  0
 13 14  2  0
 13 15  1  0
 15 16  2  0
 16 17  1  0
 17 18  2  0
 18 19  1  0
 18 20  1  0
 20 21  2  0
 21 22  1  0
 11 23  1  0
 23 24  1  0
 24 25  1  0
 24 26  1  0
 24 27  1  0
  8 28  1  0
 28 29  2  0
 29  2  1  0
 29  5  1  0
 23 10  1  0
 21 15  1  0
  1 30  1  0
  1 31  1  0
  1 32  1  0
  4 33  1  0
  6 34  1  0
  7 35  1  0
 10 36  1  6
 11 37  1  6
 12 38  1  0
 16 39  1  0
 17 40  1  0
 20 41  1  0
 23 42  1  1
 28 43  1  0
M  END
$$$$
[H]OC1([H])C2(N=C(N([H])C(=O)C([H])([H])c3c([H])c([H])c([H])c4c([H])c([H])c([H])c(C([H])([H])[H])c34)SSC([H])([H])[C@@]1([H])C(=O)O[C@]([H])(C([H])([H])[H])C([H])([H])N([H])[H])C([H])([H])C([H])([H])C([H])([H])C([H])([H])C2([H])[H]
     RDKit          3D

 71 74  0  0  0  0  0  0  0  0999 V2000
   -7.6417   -0.0606   -0.9105 C   0  0  0  0  0  0  0  0  0  0  0  0
   -6.5885   -1.1331   -0.9029 C   0  0  2  0  0  0  0  0  0  0  0  0
   -6.8740   -2.2035    0.1375 C   0  0  0  0  0  0  0  0  0  0  0  0
   -6.8455   -1.7087    1.4758 N   0  0  0  0  0  0  0  0  0  0  0  0
   -5.3258   -0.5207   -0.7314 O   0  0  0  0  0  0  0  0  0  0  0  0
   -4.2982   -0.5921   -1.6526 C   0  0  0  0  0  0  0  0  0  0  0  0
   -4.5876   -1.2921   -2.6939 O   0  0  0  0  0  0  0  0  0  0  0  0
   -2.9688    0.0497   -1.5263 C   0  0  2  0  0  0  0  0  0  0  0  0
   -2.0935   -0.5142   -2.6398 C   0  0  0  0  0  0  0  0  0  0  0  0
   -1.0700   -1.8708   -2.0896 S   0  0  0  0  0  0  0  0  0  0  0  0
    0.7557   -1.2260   -1.2790 S   0  0  0  0  0  0  0  0  0  0  0  0
    0.6086    0.0397   -0.0400 C   0  0  0  0  0  0  0  0  0  0  0  0
    1.8846    0.3236    0.5208 N   0  0  0  0  0  0  0  0  0  0  0  0
    3.0920   -0.2999    0.2116 C   0  0  0  0  0  0  0  0  0  0  0  0
    3.2000   -1.1827   -0.6149 O   0  0  0  0  0  0  0  0  0  0  0  0
    4.3971    0.1317    0.9679 C   0  0  0  0  0  0  0  0  0  0  0  0
    5.3324   -0.8816    0.5416 C   0  0  0  0  0  0  0  0  0  0  0  0
    4.9476   -2.2372    0.8297 C   0  0  0  0  0  0  0  0  0  0  0  0
    5.5606   -3.3139    0.3096 C   0  0  0  0  0  0  0  0  0  0  0  0
    6.6041   -3.1486   -0.5385 C   0  0  0  0  0  0  0  0  0  0  0  0
    7.0329   -1.8694   -0.8551 C   0  0  0  0  0  0  0  0  0  0  0  0
    8.1268   -1.7261   -1.6690 C   0  0  0  0  0  0  0  0  0  0  0  0
    8.6280   -0.5045   -1.9628 C   0  0  0  0  0  0  0  0  0  0  0  0
    8.0146    0.5843   -1.4234 C   0  0  0  0  0  0  0  0  0  0  0  0
    6.8851    0.5150   -0.5788 C   0  0  0  0  0  0  0  0  0  0  0  0
    6.3876    1.7161    0.0683 C   0  0  0  0  0  0  0  0  0  0  0  0
    6.3855   -0.7379   -0.3008 C   0  0  0  0  0  0  0  0  0  0  0  0
   -0.3056    0.7392    0.4772 N   0  0  0  0  0  0  0  0  0  0  0  0
   -1.7158    0.9853    0.4423 C   0  0  0  0  0  0  0  0  0  0  0  0
   -1.9699    2.2984   -0.1739 C   0  0  0  0  0  0  0  0  0  0  0  0
   -1.4717    3.4368    0.7226 C   0  0  0  0  0  0  0  0  0  0  0  0
   -2.3331    3.4711    1.9487 C   0  0  0  0  0  0  0  0  0  0  0  0
   -3.1361    2.1863    2.1047 C   0  0  0  0  0  0  0  0  0  0  0  0
   -2.1339    1.0668    1.9193 C   0  0  0  0  0  0  0  0  0  0  0  0
   -2.4211   -0.1824   -0.1681 C   0  0  0  0  0  0  0  0  0  0  0  0
   -3.4589   -0.6092    0.6595 O   0  0  0  0  0  0  0  0  0  0  0  0
   -8.6183   -0.4316   -1.2950 H   0  0  0  0  0  0  0  0  0  0  0  0
   -7.7450    0.3792    0.1049 H   0  0  0  0  0  0  0  0  0  0  0  0
   -7.2473    0.7639   -1.5647 H   0  0  0  0  0  0  0  0  0  0  0  0
   -6.5739   -1.6035   -1.9240 H   0  0  0  0  0  0  0  0  0  0  0  0
   -7.9172   -2.5807   -0.0870 H   0  0  0  0  0  0  0  0  0  0  0  0
   -6.2143   -3.0587   -0.0774 H   0  0  0  0  0  0  0  0  0  0  0  0
   -5.9372   -2.0092    1.9255 H   0  0  0  0  0  0  0  0  0  0  0  0
   -7.6429   -2.0948    2.0171 H   0  0  0  0  0  0  0  0  0  0  0  0
   -3.1779    1.1284   -1.7440 H   0  0  0  0  0  0  0  0  0  0  0  0
   -1.4651    0.2419   -3.1005 H   0  0  0  0  0  0  0  0  0  0  0  0
   -2.7534   -0.9154   -3.4548 H   0  0  0  0  0  0  0  0  0  0  0  0
    1.8993    1.1084    1.2534 H   0  0  0  0  0  0  0  0  0  0  0  0
    4.0012    0.0242    2.0054 H   0  0  0  0  0  0  0  0  0  0  0  0
    4.3235    1.1268    0.5682 H   0  0  0  0  0  0  0  0  0  0  0  0
    4.1006   -2.2794    1.5249 H   0  0  0  0  0  0  0  0  0  0  0  0
    5.2062   -4.3111    0.5830 H   0  0  0  0  0  0  0  0  0  0  0  0
    7.1345   -3.9885   -0.9991 H   0  0  0  0  0  0  0  0  0  0  0  0
    8.5918   -2.6038   -2.0845 H   0  0  0  0  0  0  0  0  0  0  0  0
    9.4985   -0.3736   -2.6111 H   0  0  0  0  0  0  0  0  0  0  0  0
    8.3874    1.6102   -1.6265 H   0  0  0  0  0  0  0  0  0  0  0  0
    7.3472    2.3910    0.0778 H   0  0  0  0  0  0  0  0  0  0  0  0
    6.3284    1.7108    1.1879 H   0  0  0  0  0  0  0  0  0  0  0  0
    5.7713    2.4116   -0.4827 H   0  0  0  0  0  0  0  0  0  0  0  0
   -3.0247    2.5583   -0.3655 H   0  0  0  0  0  0  0  0  0  0  0  0
   -1.4362    2.4506   -1.1564 H   0  0  0  0  0  0  0  0  0  0  0  0
   -1.7220    4.3612    0.1166 H   0  0  0  0  0  0  0  0  0  0  0  0
   -0.3963    3.3880    0.9082 H   0  0  0  0  0  0  0  0  0  0  0  0
   -1.7400    3.6449    2.8845 H   0  0  0  0  0  0  0  0  0  0  0  0
   -3.0634    4.2965    1.8527 H   0  0  0  0  0  0  0  0  0  0  0  0
   -3.9419    2.0906    1.3828 H   0  0  0  0  0  0  0  0  0  0  0  0
   -3.5384    2.1172    3.1183 H   0  0  0  0  0  0  0  0  0  0  0  0
   -2.5943    0.1309    2.2650 H   0  0  0  0  0  0  0  0  0  0  0  0
   -1.2604    1.2368    2.5819 H   0  0  0  0  0  0  0  0  0  0  0  0
   -1.7308   -1.0596   -0.2077 H   0  0  0  0  0  0  0  0  0  0  0  0
   -3.4521   -1.5907    0.8319 H   0  0  0  0  0  0  0  0  0  0  0  0
  1  2  1  0
  2  3  1  0
  3  4  1  0
  2  5  1  0
  5  6  1  0
  6  7  2  0
  6  8  1  0
  8  9  1  0
  9 10  1  0
 10 11  1  0
 11 12  1  0
 12 13  1  0
 13 14  1  0
 14 15  2  0
 14 16  1  0
 16 17  1  0
 17 18  2  0
 18 19  1  0
 19 20  2  0
 20 21  1  0
 21 22  2  0
 22 23  1  0
 23 24  2  0
 24 25  1  0
 25 26  1  0
 25 27  2  0
 12 28  2  0
 28 29  1  0
 29 30  1  0
 30 31  1  0
 31 32  1  0
 32 33  1  0
 33 34  1  0
 29 35  1  0
 35 36  1  0
 35  8  1  0
 27 17  1  0
 34 29  1  0
 27 21  1  0
  1 37  1  0
  1 38  1  0
  1 39  1  0
  2 40  1  6
  3 41  1  0
  3 42  1  0
  4 43  1  0
  4 44  1  0
  8 45  1  6
  9 46  1  0
  9 47  1  0
 13 48  1  0
 16 49  1  0
 16 50  1  0
 18 51  1  0
 19 52  1  0
 20 53  1  0
 22 54  1  0
 23 55  1  0
 24 56  1  0
 26 57  1  0
 26 58  1  0
 26 59  1  0
 30 60  1  0
 30 61  1  0
 31 62  1  0
 31 63  1  0
 32 64  1  0
 32 65  1  0
 33 66  1  0
 33 67  1  0
 34 68  1  0
 34 69  1  0
 35 70  1  0
 36 71  1  0
M  END
$$$$
[H]c1c([H])c([H])c(C([H])([H])N([H])[C@]2([H])C([H])([H])[C@@]3(OC([H])([H])[H])C(=O)c4c([H])c([H])c([H])c(c4[H])C([H])([H])[C@]32[H])c([H])c1[H]
     RDKit          2D

 44 47  0  0  0  0  0  0  0  0999 V2000
    2.5908   -0.8665    0.0000 C   0  0  0  0  0  0  0  0  0  0  0  0
    1.3515   -1.7115    0.0000 O   0  0  0  0  0  0  0  0  0  0  0  0
   -0.0000   -1.0607    0.0000 C   0  0  0  0  0  0  0  0  0  0  0  0
    1.0607    0.0000    0.0000 C   0  0  0  0  0  0  0  0  0  0  0  0
    0.0000    1.0607    0.0000 C   0  0  0  0  0  0  0  0  0  0  0  0
   -1.0607    2.1213    0.0000 N   0  0  0  0  0  0  0  0  0  0  0  0
   -0.6724    3.5702    0.0000 C   0  0  0  0  0  0  0  0  0  0  0  0
   -0.2842    5.0191    0.0000 C   0  0  0  0  0  0  0  0  0  0  0  0
    1.1647    5.4073    0.0000 C   0  0  0  0  0  0  0  0  0  0  0  0
    1.5529    6.8562    0.0000 C   0  0  0  0  0  0  0  0  0  0  0  0
    0.4923    7.9169    0.0000 C   0  0  0  0  0  0  0  0  0  0  0  0
   -0.9566    7.5286    0.0000 C   0  0  0  0  0  0  0  0  0  0  0  0
   -1.3449    6.0798    0.0000 C   0  0  0  0  0  0  0  0  0  0  0  0
   -1.0607    0.0000    0.0000 C   0  0  0  0  0  0  0  0  0  0  0  0
   -2.5512   -0.1679    0.0000 C   0  0  0  0  0  0  0  0  0  0  0  0
   -3.3493   -1.4380    0.0000 C   0  0  0  0  0  0  0  0  0  0  0  0
   -4.3358   -2.5728    0.0000 C   0  0  0  0  0  0  0  0  0  0  0  0
   -3.9476   -4.0217    0.0000 C   0  0  0  0  0  0  0  0  0  0  0  0
   -2.4987   -4.4099    0.0000 C   0  0  0  0  0  0  0  0  0  0  0  0
   -1.4380   -3.3493    0.0000 C   0  0  0  0  0  0  0  0  0  0  0  0
   -0.1679   -2.5512    0.0000 C   0  0  0  0  0  0  0  0  0  0  0  0
    1.1021   -3.3493    0.0000 O   0  0  0  0  0  0  0  0  0  0  0  0
   -2.8539   -2.8539    0.0000 C   0  0  0  0  0  0  0  0  0  0  0  0
    3.8302   -0.0215    0.0000 H   0  0  0  0  0  0  0  0  0  0  0  0
    3.4358   -2.1059    0.0000 H   0  0  0  0  0  0  0  0  0  0  0  0
    2.3873   -0.0045    0.0000 H   0  0  0  0  0  0  0  0  0  0  0  0
    1.6665    0.7755    0.0000 H   0  0  0  0  0  0  0  0  0  0  0  0
    1.7440   -0.4105    0.0000 H   0  0  0  0  0  0  0  0  0  0  0  0
    1.0607    2.1213    0.0000 H   0  0  0  0  0  0  0  0  0  0  0  0
   -2.5604    2.0952    0.0000 H   0  0  0  0  0  0  0  0  0  0  0  0
    0.7765    3.1820    0.0000 H   0  0  0  0  0  0  0  0  0  0  0  0
   -2.1213    3.9584    0.0000 H   0  0  0  0  0  0  0  0  0  0  0  0
    2.2253    4.3467    0.0000 H   0  0  0  0  0  0  0  0  0  0  0  0
    3.0018    7.2444    0.0000 H   0  0  0  0  0  0  0  0  0  0  0  0
    0.8805    9.3658    0.0000 H   0  0  0  0  0  0  0  0  0  0  0  0
   -2.0173    8.5893    0.0000 H   0  0  0  0  0  0  0  0  0  0  0  0
   -2.7938    5.6915    0.0000 H   0  0  0  0  0  0  0  0  0  0  0  0
   -1.7115    1.3515    0.0000 H   0  0  0  0  0  0  0  0  0  0  0  0
   -2.7490    1.3190    0.0000 H   0  0  0  0  0  0  0  0  0  0  0  0
   -3.9671    0.3275    0.0000 H   0  0  0  0  0  0  0  0  0  0  0  0
   -5.7847   -2.1846    0.0000 H   0  0  0  0  0  0  0  0  0  0  0  0
   -5.0082   -5.0824    0.0000 H   0  0  0  0  0  0  0  0  0  0  0  0
   -2.1105   -5.8588    0.0000 H   0  0  0  0  0  0  0  0  0  0  0  0
   -3.6263   -4.1397    0.0000 H   0  0  0  0  0  0  0  0  0  0  0  0
  1  2  1  0
  3  2  1  6
  3  4  1  0
  4  5  1  0
  5  6  1  0
  6  7  1  0
  7  8  1  0
  8  9  2  0
  9 10  1  0
 10 11  2  0
 11 12  1  0
 12 13  2  0
  5 14  1  0
 14 15  1  0
 15 16  1  0
 16 17  1  0
 17 18  2  0
 18 19  1  0
 19 20  2  0
 20 21  1  0
 21 22  2  0
 20 23  1  0
 14  3  1  0
 23 16  2  0
 21  3  1  0
 13  8  1  0
  1 24  1  0
  1 25  1  0
  1 26  1  0
  4 27  1  0
  4 28  1  0
  5 29  1  1
  6 30  1  0
  7 31  1  0
  7 32  1  0
  9 33  1  0
 10 34  1  0
 11 35  1  0
 12 36  1  0
 13 37  1  0
 14 38  1  6
 15 39  1  0
 15 40  1  0
 17 41  1  0
 18 42  1  0
 19 43  1  0
 23 44  1  0
M  END
$$$$
[H]c1nc(N([H])[H])nc(C([H])([H])[H])c1C([H])([H])C([H])([H])C(=O)OC1([H])C([H])([H])C([H])([H])N(C(=O)N([H])C([H])([H])c2c([H])c(Cl)c(Cl)c([H])c2Cl)C([H])([H])C1([H])[H]
     RDKit          3D

 56 58  0  0  0  0  0  0  0  0999 V2000
    6.0692    0.0628    2.0241 C   0  0  0  0  0  0  0  0  0  0  0  0
    5.5308    0.3081    0.6838 C   0  0  0  0  0  0  0  0  0  0  0  0
    5.4232    1.5915    0.2467 N   0  0  0  0  0  0  0  0  0  0  0  0
    4.9423    1.8921   -0.9645 C   0  0  0  0  0  0  0  0  0  0  0  0
    4.8431    3.2644   -1.3932 N   0  0  0  0  0  0  0  0  0  0  0  0
    4.5522    0.8908   -1.7771 N   0  0  0  0  0  0  0  0  0  0  0  0
    4.6400   -0.3976   -1.3870 C   0  0  0  0  0  0  0  0  0  0  0  0
    5.1299   -0.7081   -0.1525 C   0  0  0  0  0  0  0  0  0  0  0  0
    5.2365   -2.1142    0.2845 C   0  0  0  0  0  0  0  0  0  0  0  0
    4.1914   -2.5154    1.2841 C   0  0  0  0  0  0  0  0  0  0  0  0
    2.8430   -2.3993    0.7251 C   0  0  0  0  0  0  0  0  0  0  0  0
    2.1665   -3.4680    0.5502 O   0  0  0  0  0  0  0  0  0  0  0  0
    2.1968   -1.2430    0.3557 O   0  0  0  0  0  0  0  0  0  0  0  0
    0.8600   -1.2552   -0.1665 C   0  0  0  0  0  0  0  0  0  0  0  0
    0.8100   -0.8423   -1.6108 C   0  0  0  0  0  0  0  0  0  0  0  0
   -0.5936   -0.6644   -2.1235 C   0  0  0  0  0  0  0  0  0  0  0  0
   -1.4661   -0.0942   -1.1069 N   0  0  0  0  0  0  0  0  0  0  0  0
   -0.8904    0.5233    0.0434 C   0  0  0  0  0  0  0  0  0  0  0  0
    0.0591   -0.4055    0.7673 C   0  0  0  0  0  0  0  0  0  0  0  0
   -2.8643   -0.1662   -1.2705 C   0  0  0  0  0  0  0  0  0  0  0  0
   -3.3337   -0.7296   -2.3049 O   0  0  0  0  0  0  0  0  0  0  0  0
   -3.8173    0.3615   -0.3329 N   0  0  0  0  0  0  0  0  0  0  0  0
   -5.2054    0.2117   -0.6289 C   0  0  0  0  0  0  0  0  0  0  0  0
   -6.0958    0.7869    0.3834 C   0  0  0  0  0  0  0  0  0  0  0  0
   -5.6770    1.4190    1.5172 C   0  0  0  0  0  0  0  0  0  0  0  0
   -6.6083    1.9257    2.4120 C   0  0  0  0  0  0  0  0  0  0  0  0
   -6.0103    2.7231    3.8506 Cl  0  0  0  0  0  0  0  0  0  0  0  0
   -7.9579    1.8372    2.2378 C   0  0  0  0  0  0  0  0  0  0  0  0
   -9.0966    2.4941    3.4060 Cl  0  0  0  0  0  0  0  0  0  0  0  0
   -8.3720    1.1906    1.0772 C   0  0  0  0  0  0  0  0  0  0  0  0
   -7.4893    0.6849    0.1847 C   0  0  0  0  0  0  0  0  0  0  0  0
   -8.0552   -0.1239   -1.2644 Cl  0  0  0  0  0  0  0  0  0  0  0  0
    6.8131    0.8538    2.3276 H   0  0  0  0  0  0  0  0  0  0  0  0
    5.2283    0.1650    2.7642 H   0  0  0  0  0  0  0  0  0  0  0  0
    6.4784   -0.9573    2.1500 H   0  0  0  0  0  0  0  0  0  0  0  0
    4.0905    3.5636   -2.0673 H   0  0  0  0  0  0  0  0  0  0  0  0
    5.4993    4.0050   -1.0594 H   0  0  0  0  0  0  0  0  0  0  0  0
    4.3142   -1.1376   -2.0793 H   0  0  0  0  0  0  0  0  0  0  0  0
    5.1535   -2.7498   -0.6367 H   0  0  0  0  0  0  0  0  0  0  0  0
    6.2733   -2.3476    0.6690 H   0  0  0  0  0  0  0  0  0  0  0  0
    4.3828   -3.5975    1.5165 H   0  0  0  0  0  0  0  0  0  0  0  0
    4.3093   -1.9867    2.2564 H   0  0  0  0  0  0  0  0  0  0  0  0
    0.4586   -2.3017   -0.1487 H   0  0  0  0  0  0  0  0  0  0  0  0
    1.2806   -1.6716   -2.1858 H   0  0  0  0  0  0  0  0  0  0  0  0
    1.4442    0.0478   -1.7486 H   0  0  0  0  0  0  0  0  0  0  0  0
   -1.0457   -1.6224   -2.4471 H   0  0  0  0  0  0  0  0  0  0  0  0
   -0.5937    0.0065   -3.0048 H   0  0  0  0  0  0  0  0  0  0  0  0
   -1.5642    1.0336    0.7293 H   0  0  0  0  0  0  0  0  0  0  0  0
   -0.2175    1.3440   -0.3580 H   0  0  0  0  0  0  0  0  0  0  0  0
   -0.5314   -1.0761    1.4209 H   0  0  0  0  0  0  0  0  0  0  0  0
    0.7119    0.1775    1.4803 H   0  0  0  0  0  0  0  0  0  0  0  0
   -3.5117    0.8299    0.5242 H   0  0  0  0  0  0  0  0  0  0  0  0
   -5.4752    0.6347   -1.6265 H   0  0  0  0  0  0  0  0  0  0  0  0
   -5.3707   -0.9054   -0.7308 H   0  0  0  0  0  0  0  0  0  0  0  0
   -4.6393    1.5425    1.7462 H   0  0  0  0  0  0  0  0  0  0  0  0
   -9.4492    1.1086    0.9198 H   0  0  0  0  0  0  0  0  0  0  0  0
  1  2  1  0
  2  3  2  0
  3  4  1  0
  4  5  1  0
  4  6  2  0
  6  7  1  0
  7  8  2  0
  8  9  1  0
  9 10  1  0
 10 11  1  0
 11 12  2  0
 11 13  1  0
 13 14  1  0
 14 15  1  0
 15 16  1  0
 16 17  1  0
 17 18  1  0
 18 19  1  0
 17 20  1  0
 20 21  2  0
 20 22  1  0
 22 23  1  0
 23 24  1  0
 24 25  2  0
 25 26  1  0
 26 27  1  0
 26 28  2  0
 28 29  1  0
 28 30  1  0
 30 31  2  0
 31 32  1  0
  8  2  1  0
 19 14  1  0
 31 24  1  0
  1 33  1  0
  1 34  1  0
  1 35  1  0
  5 36  1  0
  5 37  1  0
  7 38  1  0
  9 39  1  0
  9 40  1  0
 10 41  1  0
 10 42  1  0
 14 43  1  0
 15 44  1  0
 15 45  1  0
 16 46  1  0
 16 47  1  0
 18 48  1  0
 18 49  1  0
 19 50  1  0
 19 51  1  0
 22 52  1  0
 23 53  1  0
 23 54  1  0
 25 55  1  0
 30 56  1  0
M  END
$$$$
[H]ON([H])C(=O)C([H])([H])N([H])C(=O)C([H])(N([H])C(=O)C([H])([H])n1c(=O)n(C([H])([H])c2c([H])c([H])c([H])c([H])c2[H])c2c([H])c([H])c([H])c([H])c21)C1([H])C([H])([H])C1([H])[H]
     RDKit          3D

 58 61  0  0  0  0  0  0  0  0999 V2000
    8.3814    2.6806   -1.7814 O   0  0  0  0  0  0  0  0  0  0  0  0
    7.9100    1.4278   -1.8996 N   0  0  0  0  0  0  0  0  0  0  0  0
    6.9365    0.9113   -1.0118 C   0  0  0  0  0  0  0  0  0  0  0  0
    6.5206    1.6654   -0.0993 O   0  0  0  0  0  0  0  0  0  0  0  0
    6.4143   -0.4764   -1.1430 C   0  0  0  0  0  0  0  0  0  0  0  0
    5.4212   -0.8063   -0.1571 N   0  0  0  0  0  0  0  0  0  0  0  0
    4.1769   -0.1313   -0.0350 C   0  0  0  0  0  0  0  0  0  0  0  0
    3.9316    0.8013   -0.8360 O   0  0  0  0  0  0  0  0  0  0  0  0
    3.1865   -0.5202    1.0174 C   0  0  0  0  0  0  0  0  0  0  0  0
    2.0060    0.2892    0.9624 N   0  0  0  0  0  0  0  0  0  0  0  0
    0.7211   -0.2065    0.6336 C   0  0  0  0  0  0  0  0  0  0  0  0
    0.6271   -1.4378    0.3757 O   0  0  0  0  0  0  0  0  0  0  0  0
   -0.4397    0.6798    0.5976 C   0  0  0  0  0  0  0  0  0  0  0  0
   -1.6658   -0.0054    0.2369 N   0  0  0  0  0  0  0  0  0  0  0  0
   -2.5474   -0.5984    1.0588 C   0  0  0  0  0  0  0  0  0  0  0  0
   -2.5707   -0.7407    2.4297 C   0  0  0  0  0  0  0  0  0  0  0  0
   -3.6097   -1.4105    3.0700 C   0  0  0  0  0  0  0  0  0  0  0  0
   -4.6263   -1.9330    2.2816 C   0  0  0  0  0  0  0  0  0  0  0  0
   -4.6340   -1.8086    0.9088 C   0  0  0  0  0  0  0  0  0  0  0  0
   -3.5834   -1.1366    0.3172 C   0  0  0  0  0  0  0  0  0  0  0  0
   -3.3204   -0.8626   -0.9712 N   0  0  0  0  0  0  0  0  0  0  0  0
   -4.1383   -1.2347   -2.1081 C   0  0  0  0  0  0  0  0  0  0  0  0
   -5.1481   -0.2172   -2.4681 C   0  0  0  0  0  0  0  0  0  0  0  0
   -4.7882    0.7798   -3.3501 C   0  0  0  0  0  0  0  0  0  0  0  0
   -5.7318    1.7317   -3.6906 C   0  0  0  0  0  0  0  0  0  0  0  0
   -7.0136    1.7372   -3.1952 C   0  0  0  0  0  0  0  0  0  0  0  0
   -7.3619    0.7328   -2.3123 C   0  0  0  0  0  0  0  0  0  0  0  0
   -6.4267   -0.2343   -1.9573 C   0  0  0  0  0  0  0  0  0  0  0  0
   -2.1488   -0.1733   -1.0019 C   0  0  0  0  0  0  0  0  0  0  0  0
   -1.6084    0.2396   -2.0373 O   0  0  0  0  0  0  0  0  0  0  0  0
    3.8803   -0.5295    2.3326 C   0  0  0  0  0  0  0  0  0  0  0  0
    4.5074    0.7789    2.8089 C   0  0  0  0  0  0  0  0  0  0  0  0
    3.3499    0.1296    3.5379 C   0  0  0  0  0  0  0  0  0  0  0  0
    7.9783    3.1230   -0.9840 H   0  0  0  0  0  0  0  0  0  0  0  0
    8.2720    0.8270   -2.6629 H   0  0  0  0  0  0  0  0  0  0  0  0
    7.2807   -1.1700   -1.0146 H   0  0  0  0  0  0  0  0  0  0  0  0
    6.0246   -0.6209   -2.1783 H   0  0  0  0  0  0  0  0  0  0  0  0
    5.6528   -1.6061    0.5099 H   0  0  0  0  0  0  0  0  0  0  0  0
    2.9142   -1.5874    0.7700 H   0  0  0  0  0  0  0  0  0  0  0  0
    2.1004    1.3028    1.1775 H   0  0  0  0  0  0  0  0  0  0  0  0
   -0.2330    1.5368   -0.0819 H   0  0  0  0  0  0  0  0  0  0  0  0
   -0.5487    1.1458    1.6196 H   0  0  0  0  0  0  0  0  0  0  0  0
   -1.7505   -0.3141    3.0116 H   0  0  0  0  0  0  0  0  0  0  0  0
   -3.5720   -1.4884    4.1336 H   0  0  0  0  0  0  0  0  0  0  0  0
   -5.4191   -2.4466    2.7958 H   0  0  0  0  0  0  0  0  0  0  0  0
   -5.4370   -2.2250    0.3205 H   0  0  0  0  0  0  0  0  0  0  0  0
   -3.4263   -1.4226   -2.9610 H   0  0  0  0  0  0  0  0  0  0  0  0
   -4.6397   -2.2188   -1.9401 H   0  0  0  0  0  0  0  0  0  0  0  0
   -3.8196    0.8779   -3.8005 H   0  0  0  0  0  0  0  0  0  0  0  0
   -5.4691    2.5227   -4.3813 H   0  0  0  0  0  0  0  0  0  0  0  0
   -7.7211    2.5008   -3.4873 H   0  0  0  0  0  0  0  0  0  0  0  0
   -8.3713    0.7201   -1.9096 H   0  0  0  0  0  0  0  0  0  0  0  0
   -6.7515   -0.9974   -1.2647 H   0  0  0  0  0  0  0  0  0  0  0  0
    4.5279   -1.4222    2.5042 H   0  0  0  0  0  0  0  0  0  0  0  0
    5.5079    0.7512    3.2544 H   0  0  0  0  0  0  0  0  0  0  0  0
    4.3113    1.6961    2.2047 H   0  0  0  0  0  0  0  0  0  0  0  0
    3.5456   -0.3508    4.5212 H   0  0  0  0  0  0  0  0  0  0  0  0
    2.4360    0.7447    3.5423 H   0  0  0  0  0  0  0  0  0  0  0  0
  1  2  1  0
  2  3  1  0
  3  4  2  0
  3  5  1  0
  5  6  1  0
  6  7  1  0
  7  8  2  0
  7  9  1  0
  9 10  1  0
 10 11  1  0
 11 12  2  0
 11 13  1  0
 13 14  1  0
 14 15  1  0
 15 16  2  0
 16 17  1  0
 17 18  2  0
 18 19  1  0
 19 20  2  0
 20 21  1  0
 21 22  1  0
 22 23  1  0
 23 24  2  0
 24 25  1  0
 25 26  2  0
 26 27  1  0
 27 28  2  0
 21 29  1  0
 29 30  2  0
  9 31  1  0
 31 32  1  0
 32 33  1  0
 29 14  1  0
 33 31  1  0
 20 15  1  0
 28 23  1  0
  1 34  1  0
  2 35  1  0
  5 36  1  0
  5 37  1  0
  6 38  1  0
  9 39  1  0
 10 40  1  0
 13 41  1  0
 13 42  1  0
 16 43  1  0
 17 44  1  0
 18 45  1  0
 19 46  1  0
 22 47  1  0
 22 48  1  0
 24 49  1  0
 25 50  1  0
 26 51  1  0
 27 52  1  0
 28 53  1  0
 31 54  1  0
 32 55  1  0
 32 56  1  0
 33 57  1  0
 33 58  1  0
M  END
$$$$
[H]c1nc(N([H])c2c([H])c(N([H])C(=O)C([H])([H])c3c([H])c([H])c([H])c([H])c3[H])c([H])c([H])c2F)c2nc(-c3c([H])nn(C([H])([H])C([H])([H])[H])c3[H])c([H])n2n1
     RDKit          3D

 55 59  0  0  0  0  0  0  0  0999 V2000
   10.3548    0.6318    1.0801 C   0  0  0  0  0  0  0  0  0  0  0  0
    9.8992    0.4946   -0.3558 C   0  0  0  0  0  0  0  0  0  0  0  0
    8.4451    0.6729   -0.3980 N   0  0  0  0  0  0  0  0  0  0  0  0
    7.4991   -0.2761   -0.2792 C   0  0  0  0  0  0  0  0  0  0  0  0
    6.2310    0.3052   -0.3745 C   0  0  0  0  0  0  0  0  0  0  0  0
    6.4911    1.6473   -0.5556 C   0  0  0  0  0  0  0  0  0  0  0  0
    7.8065    1.8155   -0.5627 N   0  0  0  0  0  0  0  0  0  0  0  0
    4.9461   -0.3734   -0.2970 C   0  0  0  0  0  0  0  0  0  0  0  0
    4.7163   -1.7164   -0.1154 C   0  0  0  0  0  0  0  0  0  0  0  0
    3.3731   -1.8820   -0.1091 N   0  0  0  0  0  0  0  0  0  0  0  0
    2.6146   -2.9637    0.0302 N   0  0  0  0  0  0  0  0  0  0  0  0
    1.2735   -2.9018    0.0053 C   0  0  0  0  0  0  0  0  0  0  0  0
    0.7213   -1.6940   -0.1672 N   0  0  0  0  0  0  0  0  0  0  0  0
    1.3876   -0.5491   -0.3163 C   0  0  0  0  0  0  0  0  0  0  0  0
    0.8272    0.7238   -0.4980 N   0  0  0  0  0  0  0  0  0  0  0  0
   -0.5272    1.1039   -0.5666 C   0  0  0  0  0  0  0  0  0  0  0  0
   -1.5874    0.2567   -0.4619 C   0  0  0  0  0  0  0  0  0  0  0  0
   -2.9476    0.6556   -0.5333 C   0  0  0  0  0  0  0  0  0  0  0  0
   -3.9492   -0.3320   -0.4323 N   0  0  0  0  0  0  0  0  0  0  0  0
   -5.2733   -0.1219   -0.1096 C   0  0  0  0  0  0  0  0  0  0  0  0
   -5.7657    0.9911    0.1472 O   0  0  0  0  0  0  0  0  0  0  0  0
   -6.2295   -1.2922   -0.0511 C   0  0  0  0  0  0  0  0  0  0  0  0
   -7.5979   -0.8727    0.3091 C   0  0  0  0  0  0  0  0  0  0  0  0
   -8.5197   -0.5180   -0.6385 C   0  0  0  0  0  0  0  0  0  0  0  0
   -9.8074   -0.1239   -0.2905 C   0  0  0  0  0  0  0  0  0  0  0  0
  -10.1547   -0.0926    1.0413 C   0  0  0  0  0  0  0  0  0  0  0  0
   -9.2384   -0.4460    1.9964 C   0  0  0  0  0  0  0  0  0  0  0  0
   -7.9780   -0.8304    1.6326 C   0  0  0  0  0  0  0  0  0  0  0  0
   -3.1989    1.9891   -0.7213 C   0  0  0  0  0  0  0  0  0  0  0  0
   -2.1506    2.8664   -0.8299 C   0  0  0  0  0  0  0  0  0  0  0  0
   -0.8491    2.4640   -0.7585 C   0  0  0  0  0  0  0  0  0  0  0  0
    0.1740    3.3504   -0.8686 F   0  0  0  0  0  0  0  0  0  0  0  0
    2.7846   -0.6921   -0.2796 C   0  0  0  0  0  0  0  0  0  0  0  0
    3.7473    0.2136   -0.3922 N   0  0  0  0  0  0  0  0  0  0  0  0
   10.0963   -0.3033    1.6138 H   0  0  0  0  0  0  0  0  0  0  0  0
    9.8327    1.5085    1.5129 H   0  0  0  0  0  0  0  0  0  0  0  0
   11.4637    0.7590    1.0845 H   0  0  0  0  0  0  0  0  0  0  0  0
   10.4125    1.1703   -1.0468 H   0  0  0  0  0  0  0  0  0  0  0  0
   10.1301   -0.5699   -0.6571 H   0  0  0  0  0  0  0  0  0  0  0  0
    7.6903   -1.3269   -0.1325 H   0  0  0  0  0  0  0  0  0  0  0  0
    5.6894    2.3723   -0.6650 H   0  0  0  0  0  0  0  0  0  0  0  0
    5.4516   -2.5156    0.0033 H   0  0  0  0  0  0  0  0  0  0  0  0
    0.6661   -3.8119    0.1228 H   0  0  0  0  0  0  0  0  0  0  0  0
    1.5313    1.5360   -0.6010 H   0  0  0  0  0  0  0  0  0  0  0  0
   -1.4366   -0.7866   -0.3140 H   0  0  0  0  0  0  0  0  0  0  0  0
   -3.6461   -1.3375   -0.6305 H   0  0  0  0  0  0  0  0  0  0  0  0
   -6.2126   -1.7959   -1.0260 H   0  0  0  0  0  0  0  0  0  0  0  0
   -5.7908   -1.9900    0.6921 H   0  0  0  0  0  0  0  0  0  0  0  0
   -8.2867   -0.5292   -1.6933 H   0  0  0  0  0  0  0  0  0  0  0  0
  -10.5556    0.1611   -1.0115 H   0  0  0  0  0  0  0  0  0  0  0  0
  -11.1642    0.2163    1.3154 H   0  0  0  0  0  0  0  0  0  0  0  0
   -9.5050   -0.4237    3.0456 H   0  0  0  0  0  0  0  0  0  0  0  0
   -7.2532   -1.1113    2.4103 H   0  0  0  0  0  0  0  0  0  0  0  0
   -4.2330    2.3569   -0.7996 H   0  0  0  0  0  0  0  0  0  0  0  0
   -2.3982    3.9176   -0.9781 H   0  0  0  0  0  0  0  0  0  0  0  0
  1  2  1  0
  2  3  1  0
  3  4  1  0
  4  5  2  0
  5  6  1  0
  6  7  2  0
  5  8  1  0
  8  9  2  0
  9 10  1  0
 10 11  1  0
 11 12  2  0
 12 13  1  0
 13 14  2  0
 14 15  1  0
 15 16  1  0
 16 17  2  0
 17 18  1  0
 18 19  1  0
 19 20  1  0
 20 21  2  0
 20 22  1  0
 22 23  1  0
 23 24  2  0
 24 25  1  0
 25 26  2  0
 26 27  1  0
 27 28  2  0
 18 29  2  0
 29 30  1  0
 30 31  2  0
 31 32  1  0
 14 33  1  0
 33 34  2  0
  7  3  1  0
 34  8  1  0
 33 10  1  0
 31 16  1  0
 28 23  1  0
  1 35  1  0
  1 36  1  0
  1 37  1  0
  2 38  1  0
  2 39  1  0
  4 40  1  0
  6 41  1  0
  9 42  1  0
 12 43  1  0
 15 44  1  0
 17 45  1  0
 19 46  1  0
 22 47  1  0
 22 48  1  0
 24 49  1  0
 25 50  1  0
 26 51  1  0
 27 52  1  0
 28 53  1  0
 29 54  1  0
 30 55  1  0
M  END
$$$$
[H]OC1([H])C([H])([H])C([H])([H])N(C([H])([H])C([H])([H])N(C2([H])C([H])([H])C([H])([H])C([H])([H])C2([H])[H])S(=O)(=O)c2c([H])c([H])c3c(c2[H])OC([H])(C([H])([H])[H])C(=O)N3[H])C([H])([H])C([H])([H])C1([H])[H]
     RDKit          3D

 64 67  0  0  0  0  0  0  0  0999 V2000
   -6.5899    3.2990   -1.4231 C   0  0  0  0  0  0  0  0  0  0  0  0
   -6.2852    1.8430   -1.5659 C   0  0  0  0  0  0  0  0  0  0  0  0
   -6.6871    1.0232   -0.3751 C   0  0  0  0  0  0  0  0  0  0  0  0
   -7.7493    0.4197   -0.2410 O   0  0  0  0  0  0  0  0  0  0  0  0
   -5.6863    0.9799    0.6769 N   0  0  0  0  0  0  0  0  0  0  0  0
   -4.3426    1.2611    0.3218 C   0  0  0  0  0  0  0  0  0  0  0  0
   -3.3682    1.2151    1.3036 C   0  0  0  0  0  0  0  0  0  0  0  0
   -2.0456    1.4717    1.0441 C   0  0  0  0  0  0  0  0  0  0  0  0
   -1.6083    1.7877   -0.2000 C   0  0  0  0  0  0  0  0  0  0  0  0
   -2.5880    1.8335   -1.1994 C   0  0  0  0  0  0  0  0  0  0  0  0
   -3.9222    1.5775   -0.9620 C   0  0  0  0  0  0  0  0  0  0  0  0
   -4.9117    1.6075   -1.9268 O   0  0  0  0  0  0  0  0  0  0  0  0
    0.0786    2.0997   -0.5995 S   0  0  0  0  0  0  0  0  0  0  0  0
    0.1261    3.2953   -1.5115 O   0  0  0  0  0  0  0  0  0  0  0  0
    0.7174    2.6090    0.6894 O   0  0  0  0  0  0  0  0  0  0  0  0
    0.8756    0.7430   -1.1125 N   0  0  0  0  0  0  0  0  0  0  0  0
    0.9359   -0.3006   -0.1444 C   0  0  0  0  0  0  0  0  0  0  0  0
    2.1331   -0.2631    0.7816 C   0  0  0  0  0  0  0  0  0  0  0  0
    2.0864   -1.2990    1.7189 N   0  0  0  0  0  0  0  0  0  0  0  0
    3.1297   -1.4123    2.6757 C   0  0  0  0  0  0  0  0  0  0  0  0
    2.6549   -2.1086    3.9108 C   0  0  0  0  0  0  0  0  0  0  0  0
    2.3297   -3.5473    3.7772 C   0  0  0  0  0  0  0  0  0  0  0  0
    2.6820   -4.2103    2.4926 C   0  0  0  0  0  0  0  0  0  0  0  0
    4.0552   -4.2741    2.2781 O   0  0  0  0  0  0  0  0  0  0  0  0
    1.9486   -3.6950    1.2871 C   0  0  0  0  0  0  0  0  0  0  0  0
    1.2174   -2.3871    1.6063 C   0  0  0  0  0  0  0  0  0  0  0  0
    1.8664    0.7026   -2.0576 C   0  0  0  0  0  0  0  0  0  0  0  0
    1.2499    1.0708   -3.4294 C   0  0  0  0  0  0  0  0  0  0  0  0
    2.5293    0.8715   -4.2655 C   0  0  0  0  0  0  0  0  0  0  0  0
    3.5432    1.6572   -3.4540 C   0  0  0  0  0  0  0  0  0  0  0  0
    3.0838    1.5188   -2.0197 C   0  0  0  0  0  0  0  0  0  0  0  0
   -5.8955    3.9516   -1.9614 H   0  0  0  0  0  0  0  0  0  0  0  0
   -6.6706    3.5637   -0.3443 H   0  0  0  0  0  0  0  0  0  0  0  0
   -7.6237    3.4485   -1.8571 H   0  0  0  0  0  0  0  0  0  0  0  0
   -6.8537    1.3651   -2.4183 H   0  0  0  0  0  0  0  0  0  0  0  0
   -5.9802    0.7562    1.6453 H   0  0  0  0  0  0  0  0  0  0  0  0
   -3.7148    0.9497    2.3122 H   0  0  0  0  0  0  0  0  0  0  0  0
   -1.3226    1.4264    1.8493 H   0  0  0  0  0  0  0  0  0  0  0  0
   -2.2494    2.0908   -2.2169 H   0  0  0  0  0  0  0  0  0  0  0  0
    1.0327   -1.2785   -0.7196 H   0  0  0  0  0  0  0  0  0  0  0  0
    0.0032   -0.3756    0.4617 H   0  0  0  0  0  0  0  0  0  0  0  0
    3.0929   -0.4057    0.1815 H   0  0  0  0  0  0  0  0  0  0  0  0
    2.2459    0.7476    1.2421 H   0  0  0  0  0  0  0  0  0  0  0  0
    3.3727   -0.3564    3.0051 H   0  0  0  0  0  0  0  0  0  0  0  0
    4.0822   -1.8132    2.3040 H   0  0  0  0  0  0  0  0  0  0  0  0
    3.3652   -1.8865    4.7625 H   0  0  0  0  0  0  0  0  0  0  0  0
    1.7145   -1.5668    4.2318 H   0  0  0  0  0  0  0  0  0  0  0  0
    1.2746   -3.7741    4.0521 H   0  0  0  0  0  0  0  0  0  0  0  0
    2.9387   -4.0814    4.5717 H   0  0  0  0  0  0  0  0  0  0  0  0
    2.3570   -5.2891    2.6007 H   0  0  0  0  0  0  0  0  0  0  0  0
    4.5073   -4.9093    2.8953 H   0  0  0  0  0  0  0  0  0  0  0  0
    2.6150   -3.4783    0.4269 H   0  0  0  0  0  0  0  0  0  0  0  0
    1.1794   -4.3916    0.9007 H   0  0  0  0  0  0  0  0  0  0  0  0
    0.6549   -2.5225    2.5767 H   0  0  0  0  0  0  0  0  0  0  0  0
    0.4474   -2.2600    0.8431 H   0  0  0  0  0  0  0  0  0  0  0  0
    2.2312   -0.3753   -2.2564 H   0  0  0  0  0  0  0  0  0  0  0  0
    1.0904    2.1484   -3.4228 H   0  0  0  0  0  0  0  0  0  0  0  0
    0.4433    0.4233   -3.7254 H   0  0  0  0  0  0  0  0  0  0  0  0
    2.4441    1.2546   -5.2766 H   0  0  0  0  0  0  0  0  0  0  0  0
    2.7455   -0.2035   -4.2679 H   0  0  0  0  0  0  0  0  0  0  0  0
    3.5767    2.7223   -3.7800 H   0  0  0  0  0  0  0  0  0  0  0  0
    4.5186    1.1548   -3.5746 H   0  0  0  0  0  0  0  0  0  0  0  0
    3.9497    1.0162   -1.4834 H   0  0  0  0  0  0  0  0  0  0  0  0
    2.9687    2.5590   -1.6344 H   0  0  0  0  0  0  0  0  0  0  0  0
  1  2  1  0
  2  3  1  0
  3  4  2  0
  3  5  1  0
  5  6  1  0
  6  7  2  0
  7  8  1  0
  8  9  2  0
  9 10  1  0
 10 11  2  0
 11 12  1  0
  9 13  1  0
 13 14  2  0
 13 15  2  0
 13 16  1  0
 16 17  1  0
 17 18  1  0
 18 19  1  0
 19 20  1  0
 20 21  1  0
 21 22  1  0
 22 23  1  0
 23 24  1  0
 23 25  1  0
 25 26  1  0
 16 27  1  0
 27 28  1  0
 28 29  1  0
 29 30  1  0
 30 31  1  0
 12  2  1  0
 26 19  1  0
 31 27  1  0
 11  6  1  0
  1 32  1  0
  1 33  1  0
  1 34  1  0
  2 35  1  0
  5 36  1  0
  7 37  1  0
  8 38  1  0
 10 39  1  0
 17 40  1  0
 17 41  1  0
 18 42  1  0
 18 43  1  0
 20 44  1  0
 20 45  1  0
 21 46  1  0
 21 47  1  0
 22 48  1  0
 22 49  1  0
 23 50  1  0
 24 51  1  0
 25 52  1  0
 25 53  1  0
 26 54  1  0
 26 55  1  0
 27 56  1  0
 28 57  1  0
 28 58  1  0
 29 59  1  0
 29 60  1  0
 30 61  1  0
 30 62  1  0
 31 63  1  0
 31 64  1  0
M  END
$$$$
[H]OC(=O)C([H])([H])C([H])([H])[C@@]([H])(C(=O)c1nc2c([H])c([H])c([H])c([H])c2o1)N([H])C(=O)[C@@]([H])(N([H])C(=O)C([H])([H])C([H])([H])C([H])([H])C([H])([H])C([H])([H])C([H])([H])C([H])([H])C([H])([H])C([H])([H])C([H])([H])C([H])([H])C([H])([H])C([H])([H])C([H])([H])C([H])([H])C([H])([H])C([H])([H])[H])C([H])([H])C([H])([H])c1c([H])c([H])c(O[H])c([H])c1[H]
     RDKit          3D

107109  0  0  0  0  0  0  0  0999 V2000
   11.4184   -1.3105    1.7697 C   0  0  0  0  0  0  0  0  0  0  0  0
   11.3048   -1.6586    0.3365 C   0  0  0  0  0  0  0  0  0  0  0  0
   10.6489   -0.7165   -0.5597 C   0  0  0  0  0  0  0  0  0  0  0  0
    9.1936   -0.4636   -0.3646 C   0  0  0  0  0  0  0  0  0  0  0  0
    8.8146    0.1392    0.9202 C   0  0  0  0  0  0  0  0  0  0  0  0
    7.3828    0.4906    1.1686 C   0  0  0  0  0  0  0  0  0  0  0  0
    6.6672    1.4318    0.3155 C   0  0  0  0  0  0  0  0  0  0  0  0
    6.3647    1.3143   -1.0870 C   0  0  0  0  0  0  0  0  0  0  0  0
    5.5321    0.3581   -1.7838 C   0  0  0  0  0  0  0  0  0  0  0  0
    5.6650   -1.0791   -1.8621 C   0  0  0  0  0  0  0  0  0  0  0  0
    5.5657   -2.0397   -0.7803 C   0  0  0  0  0  0  0  0  0  0  0  0
    4.3276   -2.2713   -0.0046 C   0  0  0  0  0  0  0  0  0  0  0  0
    3.7307   -1.0902    0.6417 C   0  0  0  0  0  0  0  0  0  0  0  0
    2.5524   -1.3920    1.5568 C   0  0  0  0  0  0  0  0  0  0  0  0
    1.4560   -2.1652    0.9554 C   0  0  0  0  0  0  0  0  0  0  0  0
    0.7856   -1.6868   -0.2550 C   0  0  0  0  0  0  0  0  0  0  0  0
    0.1230   -0.3829   -0.3078 C   0  0  0  0  0  0  0  0  0  0  0  0
   -0.9663   -0.1046    0.6405 C   0  0  0  0  0  0  0  0  0  0  0  0
   -1.0719   -0.7314    1.7185 O   0  0  0  0  0  0  0  0  0  0  0  0
   -1.8844    0.8957    0.2754 N   0  0  0  0  0  0  0  0  0  0  0  0
   -3.0425    1.3148    1.1271 C   0  0  1  0  0  0  0  0  0  0  0  0
   -3.3048    2.7432    0.9568 C   0  0  0  0  0  0  0  0  0  0  0  0
   -4.3392    3.4164    1.7801 C   0  0  0  0  0  0  0  0  0  0  0  0
   -4.4336    4.8361    1.3014 C   0  0  0  0  0  0  0  0  0  0  0  0
   -5.3435    5.1372    0.3014 C   0  0  0  0  0  0  0  0  0  0  0  0
   -5.4610    6.4211   -0.1806 C   0  0  0  0  0  0  0  0  0  0  0  0
   -4.6422    7.4121    0.3604 C   0  0  0  0  0  0  0  0  0  0  0  0
   -4.7584    8.7040   -0.1239 O   0  0  0  0  0  0  0  0  0  0  0  0
   -3.7394    7.0942    1.3586 C   0  0  0  0  0  0  0  0  0  0  0  0
   -3.6260    5.7930    1.8422 C   0  0  0  0  0  0  0  0  0  0  0  0
   -4.0986    0.3503    0.7314 C   0  0  0  0  0  0  0  0  0  0  0  0
   -3.7352   -0.9012    0.6791 O   0  0  0  0  0  0  0  0  0  0  0  0
   -5.3967    0.6087    0.4098 N   0  0  0  0  0  0  0  0  0  0  0  0
   -6.2778   -0.5187    0.0608 C   0  0  1  0  0  0  0  0  0  0  0  0
   -7.6491   -0.2832    0.5406 C   0  0  0  0  0  0  0  0  0  0  0  0
   -7.7349   -0.1142    2.0361 C   0  0  0  0  0  0  0  0  0  0  0  0
   -7.2993   -1.2928    2.8052 C   0  0  0  0  0  0  0  0  0  0  0  0
   -8.1768   -2.3016    3.1947 O   0  0  0  0  0  0  0  0  0  0  0  0
   -6.1141   -1.4203    3.1353 O   0  0  0  0  0  0  0  0  0  0  0  0
   -6.2258   -0.6955   -1.4425 C   0  0  0  0  0  0  0  0  0  0  0  0
   -5.5976    0.1449   -2.1432 O   0  0  0  0  0  0  0  0  0  0  0  0
   -6.8931   -1.8311   -2.0746 C   0  0  0  0  0  0  0  0  0  0  0  0
   -7.6041   -2.8127   -1.5040 N   0  0  0  0  0  0  0  0  0  0  0  0
   -8.0640   -3.6908   -2.4164 C   0  0  0  0  0  0  0  0  0  0  0  0
   -8.8159   -4.8476   -2.4215 C   0  0  0  0  0  0  0  0  0  0  0  0
   -9.1209   -5.5350   -3.5677 C   0  0  0  0  0  0  0  0  0  0  0  0
   -8.6338   -5.0134   -4.7600 C   0  0  0  0  0  0  0  0  0  0  0  0
   -7.8796   -3.8617   -4.7969 C   0  0  0  0  0  0  0  0  0  0  0  0
   -7.5891   -3.1918   -3.6219 C   0  0  0  0  0  0  0  0  0  0  0  0
   -6.9000   -2.0860   -3.3600 O   0  0  0  0  0  0  0  0  0  0  0  0
   12.4627   -1.6129    2.1374 H   0  0  0  0  0  0  0  0  0  0  0  0
   11.2723   -0.2461    1.9840 H   0  0  0  0  0  0  0  0  0  0  0  0
   10.7735   -1.9669    2.4341 H   0  0  0  0  0  0  0  0  0  0  0  0
   12.3623   -1.9143   -0.0112 H   0  0  0  0  0  0  0  0  0  0  0  0
   10.7808   -2.6681    0.2910 H   0  0  0  0  0  0  0  0  0  0  0  0
   11.2217    0.2822   -0.4386 H   0  0  0  0  0  0  0  0  0  0  0  0
   10.8435   -0.9851   -1.6577 H   0  0  0  0  0  0  0  0  0  0  0  0
    8.6298   -1.4635   -0.5065 H   0  0  0  0  0  0  0  0  0  0  0  0
    8.7931    0.1062   -1.2604 H   0  0  0  0  0  0  0  0  0  0  0  0
    9.4207    1.0482    1.1899 H   0  0  0  0  0  0  0  0  0  0  0  0
    9.0130   -0.6428    1.7400 H   0  0  0  0  0  0  0  0  0  0  0  0
    6.8369   -0.4445    1.4600 H   0  0  0  0  0  0  0  0  0  0  0  0
    7.4181    0.9982    2.2529 H   0  0  0  0  0  0  0  0  0  0  0  0
    7.2614    2.4431    0.4330 H   0  0  0  0  0  0  0  0  0  0  0  0
    5.7063    1.8039    0.9021 H   0  0  0  0  0  0  0  0  0  0  0  0
    7.3002    1.5486   -1.7257 H   0  0  0  0  0  0  0  0  0  0  0  0
    5.8211    2.3741   -1.3500 H   0  0  0  0  0  0  0  0  0  0  0  0
    4.4419    0.7107   -1.6770 H   0  0  0  0  0  0  0  0  0  0  0  0
    5.6397    0.6980   -2.9400 H   0  0  0  0  0  0  0  0  0  0  0  0
    4.9144   -1.4624   -2.6869 H   0  0  0  0  0  0  0  0  0  0  0  0
    6.6521   -1.2851   -2.4702 H   0  0  0  0  0  0  0  0  0  0  0  0
    5.7143   -3.0941   -1.3325 H   0  0  0  0  0  0  0  0  0  0  0  0
    6.4267   -2.0955   -0.0595 H   0  0  0  0  0  0  0  0  0  0  0  0
    4.5816   -3.0724    0.7650 H   0  0  0  0  0  0  0  0  0  0  0  0
    3.5938   -2.7870   -0.7060 H   0  0  0  0  0  0  0  0  0  0  0  0
    4.4680   -0.5762    1.2791 H   0  0  0  0  0  0  0  0  0  0  0  0
    3.3716   -0.4082   -0.1750 H   0  0  0  0  0  0  0  0  0  0  0  0
    2.8852   -1.8963    2.4820 H   0  0  0  0  0  0  0  0  0  0  0  0
    2.2042   -0.3715    1.9036 H   0  0  0  0  0  0  0  0  0  0  0  0
    0.6866   -2.3942    1.7634 H   0  0  0  0  0  0  0  0  0  0  0  0
    1.8318   -3.2136    0.7163 H   0  0  0  0  0  0  0  0  0  0  0  0
    1.4998   -1.7293   -1.1324 H   0  0  0  0  0  0  0  0  0  0  0  0
    0.0272   -2.5091   -0.5292 H   0  0  0  0  0  0  0  0  0  0  0  0
    0.8884    0.4366   -0.3023 H   0  0  0  0  0  0  0  0  0  0  0  0
   -0.3305   -0.2871   -1.3454 H   0  0  0  0  0  0  0  0  0  0  0  0
   -1.8256    1.4185   -0.6179 H   0  0  0  0  0  0  0  0  0  0  0  0
   -2.6910    1.0910    2.1662 H   0  0  0  0  0  0  0  0  0  0  0  0
   -3.5078    3.0225   -0.1219 H   0  0  0  0  0  0  0  0  0  0  0  0
   -2.3263    3.3345    1.1383 H   0  0  0  0  0  0  0  0  0  0  0  0
   -3.9910    3.5324    2.8591 H   0  0  0  0  0  0  0  0  0  0  0  0
   -5.3108    2.9907    1.7369 H   0  0  0  0  0  0  0  0  0  0  0  0
   -5.9703    4.3293   -0.1002 H   0  0  0  0  0  0  0  0  0  0  0  0
   -6.1720    6.6738   -0.9672 H   0  0  0  0  0  0  0  0  0  0  0  0
   -5.4238    8.9069   -0.8494 H   0  0  0  0  0  0  0  0  0  0  0  0
   -3.1119    7.8754    1.7651 H   0  0  0  0  0  0  0  0  0  0  0  0
   -2.9043    5.5993    2.6255 H   0  0  0  0  0  0  0  0  0  0  0  0
   -5.8421    1.5247    0.3504 H   0  0  0  0  0  0  0  0  0  0  0  0
   -5.8519   -1.4489    0.4454 H   0  0  0  0  0  0  0  0  0  0  0  0
   -7.9873    0.7121    0.1184 H   0  0  0  0  0  0  0  0  0  0  0  0
   -8.3515   -1.0862    0.2208 H   0  0  0  0  0  0  0  0  0  0  0  0
   -8.7484    0.1970    2.3661 H   0  0  0  0  0  0  0  0  0  0  0  0
   -7.0489    0.7337    2.3395 H   0  0  0  0  0  0  0  0  0  0  0  0
   -8.1912   -3.1335    2.5840 H   0  0  0  0  0  0  0  0  0  0  0  0
   -9.1769   -5.2240   -1.4754 H   0  0  0  0  0  0  0  0  0  0  0  0
   -9.7051   -6.4396   -3.6108 H   0  0  0  0  0  0  0  0  0  0  0  0
   -8.8760   -5.5666   -5.6827 H   0  0  0  0  0  0  0  0  0  0  0  0
   -7.5137   -3.4822   -5.7319 H   0  0  0  0  0  0  0  0  0  0  0  0
  1  2  1  0
  2  3  1  0
  3  4  1  0
  4  5  1  0
  5  6  1  0
  6  7  1  0
  7  8  1  0
  8  9  1  0
  9 10  1  0
 10 11  1  0
 11 12  1  0
 12 13  1  0
 13 14  1  0
 14 15  1  0
 15 16  1  0
 16 17  1  0
 17 18  1  0
 18 19  2  0
 18 20  1  0
 20 21  1  0
 21 22  1  0
 22 23  1  0
 23 24  1  0
 24 25  2  0
 25 26  1  0
 26 27  2  0
 27 28  1  0
 27 29  1  0
 29 30  2  0
 21 31  1  0
 31 32  2  0
 31 33  1  0
 33 34  1  0
 34 35  1  0
 35 36  1  0
 36 37  1  0
 37 38  1  0
 37 39  2  0
 34 40  1  0
 40 41  2  0
 40 42  1  0
 42 43  2  0
 43 44  1  0
 44 45  2  0
 45 46  1  0
 46 47  2  0
 47 48  1  0
 48 49  2  0
 49 50  1  0
 30 24  1  0
 50 42  1  0
 49 44  1  0
  1 51  1  0
  1 52  1  0
  1 53  1  0
  2 54  1  0
  2 55  1  0
  3 56  1  0
  3 57  1  0
  4 58  1  0
  4 59  1  0
  5 60  1  0
  5 61  1  0
  6 62  1  0
  6 63  1  0
  7 64  1  0
  7 65  1  0
  8 66  1  0
  8 67  1  0
  9 68  1  0
  9 69  1  0
 10 70  1  0
 10 71  1  0
 11 72  1  0
 11 73  1  0
 12 74  1  0
 12 75  1  0
 13 76  1  0
 13 77  1  0
 14 78  1  0
 14 79  1  0
 15 80  1  0
 15 81  1  0
 16 82  1  0
 16 83  1  0
 17 84  1  0
 17 85  1  0
 20 86  1  0
 21 87  1  1
 22 88  1  0
 22 89  1  0
 23 90  1  0
 23 91  1  0
 25 92  1  0
 26 93  1  0
 28 94  1  0
 29 95  1  0
 30 96  1  0
 33 97  1  0
 34 98  1  1
 35 99  1  0
 35100  1  0
 36101  1  0
 36102  1  0
 38103  1  0
 45104  1  0
 46105  1  0
 47106  1  0
 48107  1  0
M  END
$$$$
[H]N=C(N([H])[H])N([H])C([H])([H])C([H])([H])C([H])([H])C([H])([H])[C@@]([H])(C(=O)c1nc2c(Br)c([H])c([H])c([H])c2s1)N([H])C(=O)[C@@]([H])(N([H])C(=O)[C@]([H])(N(C([H])([H])[H])C([H])([H])[H])C([H])([H])C([H])([H])C([H])([H])N=C(N([H])[H])N([H])[H])C([H])([H])C(=O)O[H]
     RDKit          3D

 82 83  0  0  0  0  0  0  0  0999 V2000
    3.5769    1.6003    0.3762 C   0  0  0  0  0  0  0  0  0  0  0  0
    4.5569    0.6132    0.6076 N   0  0  0  0  0  0  0  0  0  0  0  0
    5.1240    0.6286    1.9370 C   0  0  0  0  0  0  0  0  0  0  0  0
    4.5168   -0.6095   -0.0390 C   0  0  2  0  0  0  0  0  0  0  0  0
    4.7332   -0.5734   -1.5190 C   0  0  0  0  0  0  0  0  0  0  0  0
    6.0352   -0.0988   -2.0044 C   0  0  0  0  0  0  0  0  0  0  0  0
    6.4735    1.2987   -1.7883 C   0  0  0  0  0  0  0  0  0  0  0  0
    5.6827    2.3032   -2.4623 N   0  0  0  0  0  0  0  0  0  0  0  0
    6.1406    3.4954   -2.6045 C   0  0  0  0  0  0  0  0  0  0  0  0
    7.4282    3.8185   -2.0953 N   0  0  0  0  0  0  0  0  0  0  0  0
    5.3857    4.5051   -3.2629 N   0  0  0  0  0  0  0  0  0  0  0  0
    3.3864   -1.5225    0.2803 C   0  0  0  0  0  0  0  0  0  0  0  0
    3.2828   -2.5953   -0.3681 O   0  0  0  0  0  0  0  0  0  0  0  0
    2.4169   -1.2671    1.2679 N   0  0  0  0  0  0  0  0  0  0  0  0
    1.3256   -2.1175    1.6045 C   0  0  1  0  0  0  0  0  0  0  0  0
    1.2332   -2.2858    3.0818 C   0  0  0  0  0  0  0  0  0  0  0  0
    2.4286   -2.8784    3.7047 C   0  0  0  0  0  0  0  0  0  0  0  0
    3.5114   -3.2371    2.9311 O   0  0  0  0  0  0  0  0  0  0  0  0
    2.4590   -3.0567    4.9436 O   0  0  0  0  0  0  0  0  0  0  0  0
    0.0612   -1.5165    1.0456 C   0  0  0  0  0  0  0  0  0  0  0  0
    0.1746   -0.4625    0.4079 O   0  0  0  0  0  0  0  0  0  0  0  0
   -1.1432   -2.1650    1.2719 N   0  0  0  0  0  0  0  0  0  0  0  0
   -2.4802   -1.7814    0.8617 C   0  0  1  0  0  0  0  0  0  0  0  0
   -2.6086   -0.2986    0.5579 C   0  0  0  0  0  0  0  0  0  0  0  0
   -2.3502    0.5623    1.7603 C   0  0  0  0  0  0  0  0  0  0  0  0
   -2.4389    2.0153    1.3677 C   0  0  0  0  0  0  0  0  0  0  0  0
   -3.7994    2.3108    0.8408 C   0  0  0  0  0  0  0  0  0  0  0  0
   -3.9338    3.7195    0.4623 N   0  0  0  0  0  0  0  0  0  0  0  0
   -5.1918    4.1007   -0.0527 C   0  0  0  0  0  0  0  0  0  0  0  0
   -5.9277    3.2549   -0.9149 N   0  0  0  0  0  0  0  0  0  0  0  0
   -5.6810    5.2402    0.2669 N   0  0  0  0  0  0  0  0  0  0  0  0
   -2.9075   -2.6591   -0.1962 C   0  0  0  0  0  0  0  0  0  0  0  0
   -2.1062   -3.4923   -0.7100 O   0  0  0  0  0  0  0  0  0  0  0  0
   -4.2765   -2.6421   -0.7289 C   0  0  0  0  0  0  0  0  0  0  0  0
   -4.7716   -3.3883   -1.7086 N   0  0  0  0  0  0  0  0  0  0  0  0
   -6.0215   -3.2672   -2.0520 C   0  0  0  0  0  0  0  0  0  0  0  0
   -6.6819   -3.9941   -3.0722 C   0  0  0  0  0  0  0  0  0  0  0  0
   -5.7845   -5.2958   -4.1137 Br  0  0  0  0  0  0  0  0  0  0  0  0
   -7.9977   -3.7540   -3.3135 C   0  0  0  0  0  0  0  0  0  0  0  0
   -8.7755   -2.8408   -2.6377 C   0  0  0  0  0  0  0  0  0  0  0  0
   -8.1390   -2.1340   -1.6478 C   0  0  0  0  0  0  0  0  0  0  0  0
   -6.7818   -2.3531   -1.3685 C   0  0  0  0  0  0  0  0  0  0  0  0
   -5.6374   -1.7235   -0.2673 S   0  0  0  0  0  0  0  0  0  0  0  0
    3.0893    1.8723    1.3504 H   0  0  0  0  0  0  0  0  0  0  0  0
    2.7752    1.3444   -0.3186 H   0  0  0  0  0  0  0  0  0  0  0  0
    4.0565    2.5498    0.0447 H   0  0  0  0  0  0  0  0  0  0  0  0
    6.0084    1.3250    2.0001 H   0  0  0  0  0  0  0  0  0  0  0  0
    4.4016    0.9881    2.6902 H   0  0  0  0  0  0  0  0  0  0  0  0
    5.5078   -0.3686    2.2281 H   0  0  0  0  0  0  0  0  0  0  0  0
    5.4282   -1.2156    0.3696 H   0  0  0  0  0  0  0  0  0  0  0  0
    3.8788    0.0092   -1.9680 H   0  0  0  0  0  0  0  0  0  0  0  0
    4.5512   -1.6293   -1.8782 H   0  0  0  0  0  0  0  0  0  0  0  0
    6.8627   -0.8295   -1.7437 H   0  0  0  0  0  0  0  0  0  0  0  0
    5.9959   -0.2194   -3.1485 H   0  0  0  0  0  0  0  0  0  0  0  0
    7.5254    1.4572   -2.1895 H   0  0  0  0  0  0  0  0  0  0  0  0
    6.5253    1.6001   -0.7161 H   0  0  0  0  0  0  0  0  0  0  0  0
    8.2823    3.8835   -2.6942 H   0  0  0  0  0  0  0  0  0  0  0  0
    7.5900    4.0129   -1.0677 H   0  0  0  0  0  0  0  0  0  0  0  0
    4.3878    4.6722   -3.0088 H   0  0  0  0  0  0  0  0  0  0  0  0
    5.8671    5.0625   -3.9999 H   0  0  0  0  0  0  0  0  0  0  0  0
    2.5137   -0.3629    1.8111 H   0  0  0  0  0  0  0  0  0  0  0  0
    1.4404   -3.0803    1.0659 H   0  0  0  0  0  0  0  0  0  0  0  0
    1.1508   -1.2443    3.5159 H   0  0  0  0  0  0  0  0  0  0  0  0
    0.2933   -2.7792    3.4115 H   0  0  0  0  0  0  0  0  0  0  0  0
    3.7358   -4.1895    2.7225 H   0  0  0  0  0  0  0  0  0  0  0  0
   -1.0587   -3.0907    1.8384 H   0  0  0  0  0  0  0  0  0  0  0  0
   -3.1717   -1.8678    1.7861 H   0  0  0  0  0  0  0  0  0  0  0  0
   -2.0459   -0.0549   -0.3361 H   0  0  0  0  0  0  0  0  0  0  0  0
   -3.6960   -0.1485    0.3130 H   0  0  0  0  0  0  0  0  0  0  0  0
   -1.5209    0.2927    2.3987 H   0  0  0  0  0  0  0  0  0  0  0  0
   -3.2632    0.4336    2.4653 H   0  0  0  0  0  0  0  0  0  0  0  0
   -1.6319    2.1822    0.6194 H   0  0  0  0  0  0  0  0  0  0  0  0
   -2.2092    2.6915    2.2105 H   0  0  0  0  0  0  0  0  0  0  0  0
   -4.0647    1.7532   -0.0870 H   0  0  0  0  0  0  0  0  0  0  0  0
   -4.5413    2.1122    1.6326 H   0  0  0  0  0  0  0  0  0  0  0  0
   -3.1326    4.3808    0.5770 H   0  0  0  0  0  0  0  0  0  0  0  0
   -5.9913    3.3490   -1.9406 H   0  0  0  0  0  0  0  0  0  0  0  0
   -6.4542    2.4631   -0.4723 H   0  0  0  0  0  0  0  0  0  0  0  0
   -6.6014    5.5637   -0.0867 H   0  0  0  0  0  0  0  0  0  0  0  0
   -8.5355   -4.3074   -4.1033 H   0  0  0  0  0  0  0  0  0  0  0  0
   -9.8038   -2.6675   -2.8417 H   0  0  0  0  0  0  0  0  0  0  0  0
   -8.6429   -1.4001   -1.0591 H   0  0  0  0  0  0  0  0  0  0  0  0
  1  2  1  0
  2  3  1  0
  2  4  1  0
  4  5  1  0
  5  6  1  0
  6  7  1  0
  7  8  1  0
  8  9  2  3
  9 10  1  0
  9 11  1  0
  4 12  1  0
 12 13  2  0
 12 14  1  0
 14 15  1  0
 15 16  1  0
 16 17  1  0
 17 18  1  0
 17 19  2  0
 15 20  1  0
 20 21  2  0
 20 22  1  0
 22 23  1  0
 23 24  1  0
 24 25  1  0
 25 26  1  0
 26 27  1  0
 27 28  1  0
 28 29  1  0
 29 30  1  0
 29 31  2  3
 23 32  1  0
 32 33  2  0
 32 34  1  0
 34 35  2  0
 35 36  1  0
 36 37  2  0
 37 38  1  0
 37 39  1  0
 39 40  2  0
 40 41  1  0
 41 42  2  0
 42 43  1  0
 43 34  1  0
 42 36  1  0
  1 44  1  0
  1 45  1  0
  1 46  1  0
  3 47  1  0
  3 48  1  0
  3 49  1  0
  4 50  1  1
  5 51  1  0
  5 52  1  0
  6 53  1  0
  6 54  1  0
  7 55  1  0
  7 56  1  0
 10 57  1  0
 10 58  1  0
 11 59  1  0
 11 60  1  0
 14 61  1  0
 15 62  1  6
 16 63  1  0
 16 64  1  0
 18 65  1  0
 22 66  1  0
 23 67  1  1
 24 68  1  0
 24 69  1  0
 25 70  1  0
 25 71  1  0
 26 72  1  0
 26 73  1  0
 27 74  1  0
 27 75  1  0
 28 76  1  0
 30 77  1  0
 30 78  1  0
 31 79  1  0
 39 80  1  0
 40 81  1  0
 41 82  1  0
M  END
$$$$
[H]ON([H])C(=O)c1c([H])nc(N([H])C([H])([H])c2c([H])c([H])c([H])c([H])c2F)nc1[H]
     RDKit          3D

 30 31  0  0  0  0  0  0  0  0999 V2000
    7.0661   -0.6622    0.5237 O   0  0  0  0  0  0  0  0  0  0  0  0
    5.7054   -0.6294    0.6423 N   0  0  0  0  0  0  0  0  0  0  0  0
    4.9266   -0.1793   -0.4517 C   0  0  0  0  0  0  0  0  0  0  0  0
    5.3973    0.1999   -1.5438 O   0  0  0  0  0  0  0  0  0  0  0  0
    3.4894   -0.1471   -0.3019 C   0  0  0  0  0  0  0  0  0  0  0  0
    2.8528   -0.9924    0.5407 C   0  0  0  0  0  0  0  0  0  0  0  0
    1.5010   -0.8515    0.6708 N   0  0  0  0  0  0  0  0  0  0  0  0
    0.7613    0.0146    0.0630 C   0  0  0  0  0  0  0  0  0  0  0  0
   -0.6200    0.0844    0.0722 N   0  0  0  0  0  0  0  0  0  0  0  0
   -1.6474   -0.7803    0.6261 C   0  0  0  0  0  0  0  0  0  0  0  0
   -2.9505   -0.1179    0.2995 C   0  0  0  0  0  0  0  0  0  0  0  0
   -3.7570    0.5654    1.2053 C   0  0  0  0  0  0  0  0  0  0  0  0
   -5.0174    1.0310    0.8260 C   0  0  0  0  0  0  0  0  0  0  0  0
   -5.5155    0.8339   -0.4605 C   0  0  0  0  0  0  0  0  0  0  0  0
   -4.7118    0.1642   -1.3503 C   0  0  0  0  0  0  0  0  0  0  0  0
   -3.4835   -0.2938   -0.9859 C   0  0  0  0  0  0  0  0  0  0  0  0
   -2.6478   -0.9541   -1.8555 F   0  0  0  0  0  0  0  0  0  0  0  0
    1.4543    0.8773   -0.7981 N   0  0  0  0  0  0  0  0  0  0  0  0
    2.7459    0.8166   -0.9858 C   0  0  0  0  0  0  0  0  0  0  0  0
    7.3244    0.3098    0.3363 H   0  0  0  0  0  0  0  0  0  0  0  0
    5.2231   -0.9212    1.5121 H   0  0  0  0  0  0  0  0  0  0  0  0
    3.3528   -1.7620    1.1003 H   0  0  0  0  0  0  0  0  0  0  0  0
   -1.0411    0.9344   -0.4464 H   0  0  0  0  0  0  0  0  0  0  0  0
   -1.5079   -0.6578    1.7771 H   0  0  0  0  0  0  0  0  0  0  0  0
   -1.5939   -1.8314    0.4568 H   0  0  0  0  0  0  0  0  0  0  0  0
   -3.4131    0.7036    2.2195 H   0  0  0  0  0  0  0  0  0  0  0  0
   -5.6168    1.5405    1.5450 H   0  0  0  0  0  0  0  0  0  0  0  0
   -6.5108    1.1979   -0.7444 H   0  0  0  0  0  0  0  0  0  0  0  0
   -5.0659    0.0446   -2.3854 H   0  0  0  0  0  0  0  0  0  0  0  0
    3.3002    1.4623   -1.6412 H   0  0  0  0  0  0  0  0  0  0  0  0
  1  2  1  0
  2  3  1  0
  3  4  2  0
  3  5  1  0
  5  6  2  0
  6  7  1  0
  7  8  2  0
  8  9  1  0
  9 10  1  0
 10 11  1  0
 11 12  2  0
 12 13  1  0
 13 14  2  0
 14 15  1  0
 15 16  2  0
 16 17  1  0
  8 18  1  0
 18 19  2  0
 19  5  1  0
 16 11  1  0
  1 20  1  0
  2 21  1  0
  6 22  1  0
  9 23  1  0
 10 24  1  0
 10 25  1  0
 12 26  1  0
 13 27  1  0
 14 28  1  0
 15 29  1  0
 19 30  1  0
M  END
$$$$
[H]c1c([H])c([H])c(C([H])([H])n2c(=O)n(C3([H])C([H])([H])C([H])([H])N(C([H])([H])C([H])([H])C([H])([H])N([H])S(=O)(=O)c4c([H])c([H])c(Cl)c([H])c4[H])C([H])([H])C3([H])[H])c3c([H])c([H])c([H])c([H])c32)c([H])c1[H]
     RDKit          3D

 68 72  0  0  0  0  0  0  0  0999 V2000
    9.5654    2.2846   -2.0714 Cl  0  0  0  0  0  0  0  0  0  0  0  0
    8.6239    1.5934   -0.7472 C   0  0  0  0  0  0  0  0  0  0  0  0
    7.4106    2.1288   -0.3770 C   0  0  0  0  0  0  0  0  0  0  0  0
    6.6511    1.6008    0.6631 C   0  0  0  0  0  0  0  0  0  0  0  0
    7.1435    0.5074    1.3336 C   0  0  0  0  0  0  0  0  0  0  0  0
    8.3427   -0.0435    0.9883 C   0  0  0  0  0  0  0  0  0  0  0  0
    9.0848    0.4936   -0.0481 C   0  0  0  0  0  0  0  0  0  0  0  0
    6.2064   -0.1679    2.6380 S   0  0  0  0  0  0  0  0  0  0  0  0
    5.3645    0.8555    3.3269 O   0  0  0  0  0  0  0  0  0  0  0  0
    7.1730   -0.7817    3.6086 O   0  0  0  0  0  0  0  0  0  0  0  0
    5.1725   -1.3806    1.9483 N   0  0  0  0  0  0  0  0  0  0  0  0
    4.2764   -0.7969    0.9866 C   0  0  0  0  0  0  0  0  0  0  0  0
    3.3608   -1.8409    0.3661 C   0  0  0  0  0  0  0  0  0  0  0  0
    2.4759   -1.1406   -0.6198 C   0  0  0  0  0  0  0  0  0  0  0  0
    1.6716   -0.1304    0.0225 N   0  0  0  0  0  0  0  0  0  0  0  0
    0.9085    0.5866   -0.9606 C   0  0  0  0  0  0  0  0  0  0  0  0
   -0.1376   -0.2774   -1.5762 C   0  0  0  0  0  0  0  0  0  0  0  0
   -1.0623   -0.8167   -0.5006 C   0  0  0  0  0  0  0  0  0  0  0  0
   -0.6249   -0.2847    0.8560 C   0  0  0  0  0  0  0  0  0  0  0  0
    0.8188   -0.7556    1.0194 C   0  0  0  0  0  0  0  0  0  0  0  0
   -2.4546   -0.5359   -0.7884 N   0  0  0  0  0  0  0  0  0  0  0  0
   -3.3981   -1.4844   -1.0644 C   0  0  0  0  0  0  0  0  0  0  0  0
   -3.2788   -2.8630   -1.1335 C   0  0  0  0  0  0  0  0  0  0  0  0
   -4.3958   -3.5947   -1.4351 C   0  0  0  0  0  0  0  0  0  0  0  0
   -5.5932   -2.9507   -1.6592 C   0  0  0  0  0  0  0  0  0  0  0  0
   -5.7324   -1.5827   -1.5953 C   0  0  0  0  0  0  0  0  0  0  0  0
   -4.5938   -0.8347   -1.2877 C   0  0  0  0  0  0  0  0  0  0  0  0
   -4.3796    0.4935   -1.1489 N   0  0  0  0  0  0  0  0  0  0  0  0
   -5.3511    1.5323   -1.2965 C   0  0  0  0  0  0  0  0  0  0  0  0
   -6.0518    1.8881   -0.0406 C   0  0  0  0  0  0  0  0  0  0  0  0
   -7.2242    1.2613    0.3057 C   0  0  0  0  0  0  0  0  0  0  0  0
   -7.9006    1.5857    1.4882 C   0  0  0  0  0  0  0  0  0  0  0  0
   -7.3821    2.5537    2.3244 C   0  0  0  0  0  0  0  0  0  0  0  0
   -6.1985    3.1908    1.9808 C   0  0  0  0  0  0  0  0  0  0  0  0
   -5.5409    2.8608    0.8104 C   0  0  0  0  0  0  0  0  0  0  0  0
   -3.0597    0.6639   -0.8416 C   0  0  0  0  0  0  0  0  0  0  0  0
   -2.4668    1.7616   -0.6335 O   0  0  0  0  0  0  0  0  0  0  0  0
    7.0483    2.9895   -0.9231 H   0  0  0  0  0  0  0  0  0  0  0  0
    5.6980    2.0646    0.9136 H   0  0  0  0  0  0  0  0  0  0  0  0
    8.7784   -0.9102    1.4871 H   0  0  0  0  0  0  0  0  0  0  0  0
   10.0447    0.0813   -0.3515 H   0  0  0  0  0  0  0  0  0  0  0  0
    5.6970   -2.1925    1.6017 H   0  0  0  0  0  0  0  0  0  0  0  0
    3.6613   -0.0367    1.4821 H   0  0  0  0  0  0  0  0  0  0  0  0
    4.8195   -0.2798    0.1499 H   0  0  0  0  0  0  0  0  0  0  0  0
    3.9535   -2.6567   -0.1025 H   0  0  0  0  0  0  0  0  0  0  0  0
    2.7369   -2.2316    1.1910 H   0  0  0  0  0  0  0  0  0  0  0  0
    3.0442   -0.6479   -1.4330 H   0  0  0  0  0  0  0  0  0  0  0  0
    1.8332   -1.9283   -1.1008 H   0  0  0  0  0  0  0  0  0  0  0  0
    1.6176    0.9157   -1.7483 H   0  0  0  0  0  0  0  0  0  0  0  0
    0.5211    1.5162   -0.5007 H   0  0  0  0  0  0  0  0  0  0  0  0
    0.3437   -1.0701   -2.1634 H   0  0  0  0  0  0  0  0  0  0  0  0
   -0.7828    0.3003   -2.2770 H   0  0  0  0  0  0  0  0  0  0  0  0
   -0.8975   -1.9151   -0.4593 H   0  0  0  0  0  0  0  0  0  0  0  0
   -0.7310    0.7954    0.9333 H   0  0  0  0  0  0  0  0  0  0  0  0
   -1.2337   -0.8328    1.6105 H   0  0  0  0  0  0  0  0  0  0  0  0
    0.7853   -1.8689    0.9228 H   0  0  0  0  0  0  0  0  0  0  0  0
    1.2124   -0.5246    2.0206 H   0  0  0  0  0  0  0  0  0  0  0  0
   -2.3126   -3.3119   -0.9478 H   0  0  0  0  0  0  0  0  0  0  0  0
   -4.3307   -4.6897   -1.4965 H   0  0  0  0  0  0  0  0  0  0  0  0
   -6.4687   -3.5668   -1.8986 H   0  0  0  0  0  0  0  0  0  0  0  0
   -6.6612   -1.0977   -1.7701 H   0  0  0  0  0  0  0  0  0  0  0  0
   -6.1232    1.3159   -2.0672 H   0  0  0  0  0  0  0  0  0  0  0  0
   -4.8378    2.4784   -1.6395 H   0  0  0  0  0  0  0  0  0  0  0  0
   -7.6862    0.5000   -0.2984 H   0  0  0  0  0  0  0  0  0  0  0  0
   -8.8337    1.0775    1.7511 H   0  0  0  0  0  0  0  0  0  0  0  0
   -7.8937    2.8149    3.2411 H   0  0  0  0  0  0  0  0  0  0  0  0
   -5.8081    3.9569    2.6632 H   0  0  0  0  0  0  0  0  0  0  0  0
   -4.6178    3.3752    0.5675 H   0  0  0  0  0  0  0  0  0  0  0  0
  1  2  1  0
  2  3  2  0
  3  4  1  0
  4  5  2  0
  5  6  1  0
  6  7  2  0
  5  8  1  0
  8  9  2  0
  8 10  2  0
  8 11  1  0
 11 12  1  0
 12 13  1  0
 13 14  1  0
 14 15  1  0
 15 16  1  0
 16 17  1  0
 17 18  1  0
 18 19  1  0
 19 20  1  0
 18 21  1  0
 21 22  1  0
 22 23  2  0
 23 24  1  0
 24 25  2  0
 25 26  1  0
 26 27  2  0
 27 28  1  0
 28 29  1  0
 29 30  1  0
 30 31  2  0
 31 32  1  0
 32 33  2  0
 33 34  1  0
 34 35  2  0
 28 36  1  0
 36 37  2  0
  7  2  1  0
 20 15  1  0
 36 21  1  0
 27 22  1  0
 35 30  1  0
  3 38  1  0
  4 39  1  0
  6 40  1  0
  7 41  1  0
 11 42  1  0
 12 43  1  0
 12 44  1  0
 13 45  1  0
 13 46  1  0
 14 47  1  0
 14 48  1  0
 16 49  1  0
 16 50  1  0
 17 51  1  0
 17 52  1  0
 18 53  1  0
 19 54  1  0
 19 55  1  0
 20 56  1  0
 20 57  1  0
 23 58  1  0
 24 59  1  0
 25 60  1  0
 26 61  1  0
 29 62  1  0
 29 63  1  0
 31 64  1  0
 32 65  1  0
 33 66  1  0
 34 67  1  0
 35 68  1  0
M  END
$$$$
[H]C([H])=C([H])C([H])([H])Oc1c([H])c(Cl)c([H])c([H])c1C([H])([H])C([H])([H])C([H])([H])[H].[H]OP([O-])(=S)OC([H])([H])C([H])(C([H])([H])[H])C([H])([H])[H]
     RDKit          3D

 48 47  0  0  0  0  0  0  0  0999 V2000
   -1.6207   -0.5303    1.2412 C   0  0  0  0  0  0  0  0  0  0  0  0
   -1.0168    0.5353    0.3477 C   0  0  0  0  0  0  0  0  0  0  0  0
   -2.0070    0.8495   -0.7270 C   0  0  0  0  0  0  0  0  0  0  0  0
    0.2970    0.0256   -0.1751 C   0  0  0  0  0  0  0  0  0  0  0  0
    1.1406   -0.2368    0.9034 O   0  0  0  0  0  0  0  0  0  0  0  0
    2.6401   -0.8148    0.3873 P   0  0  0  0  0  0  0  0  0  0  0  0
    3.6843    0.5198    0.2977 O   0  0  0  0  0  0  0  0  0  0  0  0
    2.5228   -1.5358   -1.1585 O   0  0  0  0  0  0  0  0  0  0  0  0
    3.3001   -1.9055    1.5372 S   0  0  0  0  0  0  0  0  0  0  0  0
   -2.8993   -1.9380    0.9525 C   0  0  0  0  0  0  0  0  0  0  0  0
   -1.9463   -0.8046    0.7542 C   0  0  0  0  0  0  0  0  0  0  0  0
   -1.9228   -0.3062   -0.6728 C   0  0  0  0  0  0  0  0  0  0  0  0
   -0.9489    0.8091   -0.7491 C   0  0  0  0  0  0  0  0  0  0  0  0
   -1.4342    2.0918   -0.8073 C   0  0  0  0  0  0  0  0  0  0  0  0
   -0.5803    3.1687   -0.8770 C   0  0  0  0  0  0  0  0  0  0  0  0
    0.7780    2.9673   -0.8896 C   0  0  0  0  0  0  0  0  0  0  0  0
    1.9061    4.2997   -0.9771 Cl  0  0  0  0  0  0  0  0  0  0  0  0
    1.2573    1.6458   -0.8298 C   0  0  0  0  0  0  0  0  0  0  0  0
    0.4284    0.5746   -0.7598 C   0  0  0  0  0  0  0  0  0  0  0  0
    0.8227   -0.7038   -0.7039 O   0  0  0  0  0  0  0  0  0  0  0  0
    2.1056   -1.2074   -0.6723 C   0  0  0  0  0  0  0  0  0  0  0  0
    2.7995   -0.8076    0.5696 C   0  0  0  0  0  0  0  0  0  0  0  0
    3.2368   -1.7507    1.3883 C   0  0  0  0  0  0  0  0  0  0  0  0
   -0.7768   -1.0751    1.6996 H   0  0  0  0  0  0  0  0  0  0  0  0
   -2.2760   -0.0251    1.9793 H   0  0  0  0  0  0  0  0  0  0  0  0
   -2.2526   -1.1897    0.6023 H   0  0  0  0  0  0  0  0  0  0  0  0
   -0.8187    1.4150    1.0128 H   0  0  0  0  0  0  0  0  0  0  0  0
   -2.4935    1.8270   -0.4431 H   0  0  0  0  0  0  0  0  0  0  0  0
   -2.8564    0.1107   -0.7717 H   0  0  0  0  0  0  0  0  0  0  0  0
   -1.5617    0.9625   -1.7321 H   0  0  0  0  0  0  0  0  0  0  0  0
    0.7729    0.6702   -0.9129 H   0  0  0  0  0  0  0  0  0  0  0  0
    0.1361   -0.9686   -0.6774 H   0  0  0  0  0  0  0  0  0  0  0  0
    3.1863    1.3662    0.1985 H   0  0  0  0  0  0  0  0  0  0  0  0
   -3.6195   -1.9543    0.1150 H   0  0  0  0  0  0  0  0  0  0  0  0
   -3.4542   -1.7731    1.8923 H   0  0  0  0  0  0  0  0  0  0  0  0
   -2.3880   -2.9174    1.0438 H   0  0  0  0  0  0  0  0  0  0  0  0
   -0.9122   -1.0577    1.0402 H   0  0  0  0  0  0  0  0  0  0  0  0
   -2.2495    0.0522    1.3814 H   0  0  0  0  0  0  0  0  0  0  0  0
   -2.9026    0.0412   -1.0154 H   0  0  0  0  0  0  0  0  0  0  0  0
   -1.5175   -1.1412   -1.2936 H   0  0  0  0  0  0  0  0  0  0  0  0
   -2.5154    2.2673   -0.7986 H   0  0  0  0  0  0  0  0  0  0  0  0
   -0.9833    4.1672   -0.9213 H   0  0  0  0  0  0  0  0  0  0  0  0
    2.3327    1.5400   -0.8681 H   0  0  0  0  0  0  0  0  0  0  0  0
    2.1078   -2.3317   -0.7930 H   0  0  0  0  0  0  0  0  0  0  0  0
    2.7190   -0.8831   -1.5756 H   0  0  0  0  0  0  0  0  0  0  0  0
    2.9508    0.2122    0.8197 H   0  0  0  0  0  0  0  0  0  0  0  0
    3.7454   -1.4701    2.2994 H   0  0  0  0  0  0  0  0  0  0  0  0
    3.0840   -2.7902    1.1436 H   0  0  0  0  0  0  0  0  0  0  0  0
  1  2  1  0
  2  3  1  0
  2  4  1  0
  4  5  1  0
  5  6  1  0
  6  7  1  0
  6  8  1  0
  6  9  2  0
 10 11  1  0
 11 12  1  0
 12 13  1  0
 13 14  2  0
 14 15  1  0
 15 16  2  0
 16 17  1  0
 16 18  1  0
 18 19  2  0
 19 20  1  0
 20 21  1  0
 21 22  1  0
 22 23  2  3
 19 13  1  0
  1 24  1  0
  1 25  1  0
  1 26  1  0
  2 27  1  0
  3 28  1  0
  3 29  1  0
  3 30  1  0
  4 31  1  0
  4 32  1  0
  7 33  1  0
 10 34  1  0
 10 35  1  0
 10 36  1  0
 11 37  1  0
 11 38  1  0
 12 39  1  0
 12 40  1  0
 14 41  1  0
 15 42  1  0
 18 43  1  0
 21 44  1  0
 21 45  1  0
 22 46  1  0
 23 47  1  0
 23 48  1  0
M  CHG  1   8  -1
M  END
$$$$
[H]OC(=O)[C@@]([H])(N([H])C(=O)[C@@]1([H])N(C(=O)[C@@]([H])(N([H])C(=O)[C@@]2([H])N([C@@]3([H])C([H])([H])C([H])([H])C([H])([H])[C@@]3([H])O[H])C([H])([H])C([H])([H])C2([H])[H])C([H])([H])C([H])=C([H])[H])C([H])([H])C([H])([H])C1([H])[H])C([H])([H])c1c([H])c([H])c([H])c([H])c1[H]
     RDKit          3D

 79 82  0  0  0  0  0  0  0  0999 V2000
    5.3216   -2.1429    2.1591 O   0  0  0  0  0  0  0  0  0  0  0  0
    4.6851   -1.0751    1.5323 C   0  0  0  0  0  0  0  0  0  0  0  0
    4.0039   -0.3043    2.2982 O   0  0  0  0  0  0  0  0  0  0  0  0
    4.7589   -0.8197    0.1062 C   0  0  2  0  0  0  0  0  0  0  0  0
    6.1417   -0.4133   -0.3203 C   0  0  0  0  0  0  0  0  0  0  0  0
    7.1697   -1.4298   -0.0489 C   0  0  0  0  0  0  0  0  0  0  0  0
    7.4012   -2.4873   -0.9291 C   0  0  0  0  0  0  0  0  0  0  0  0
    8.3688   -3.4396   -0.7208 C   0  0  0  0  0  0  0  0  0  0  0  0
    9.1697   -3.3819    0.4040 C   0  0  0  0  0  0  0  0  0  0  0  0
    8.9573   -2.3475    1.2832 C   0  0  0  0  0  0  0  0  0  0  0  0
    7.9844   -1.3924    1.0687 C   0  0  0  0  0  0  0  0  0  0  0  0
    3.7948    0.2426   -0.2241 N   0  0  0  0  0  0  0  0  0  0  0  0
    3.0426    0.2183   -1.3979 C   0  0  0  0  0  0  0  0  0  0  0  0
    3.2797   -0.7900   -2.1646 O   0  0  0  0  0  0  0  0  0  0  0  0
    2.0382    1.1415   -1.9018 C   0  0  2  0  0  0  0  0  0  0  0  0
    2.8001    2.3753   -2.4064 C   0  0  0  0  0  0  0  0  0  0  0  0
    2.8217    3.2587   -1.2025 C   0  0  0  0  0  0  0  0  0  0  0  0
    1.7242    2.7950   -0.2837 C   0  0  0  0  0  0  0  0  0  0  0  0
    1.1046    1.7257   -0.9835 N   0  0  0  0  0  0  0  0  0  0  0  0
   -0.2809    1.3187   -0.8182 C   0  0  0  0  0  0  0  0  0  0  0  0
   -0.7037    0.3835   -1.5291 O   0  0  0  0  0  0  0  0  0  0  0  0
   -1.2199    1.9387    0.1266 C   0  0  2  0  0  0  0  0  0  0  0  0
   -0.8465    1.8311    1.5758 C   0  0  0  0  0  0  0  0  0  0  0  0
   -0.7384    0.4295    2.0342 C   0  0  0  0  0  0  0  0  0  0  0  0
    0.4158   -0.0102    2.4875 C   0  0  0  0  0  0  0  0  0  0  0  0
   -2.5541    1.3512   -0.0286 N   0  0  0  0  0  0  0  0  0  0  0  0
   -3.6914    2.0502   -0.4534 C   0  0  0  0  0  0  0  0  0  0  0  0
   -3.5465    3.2896   -0.7259 O   0  0  0  0  0  0  0  0  0  0  0  0
   -5.0535    1.4913   -0.6196 C   0  0  2  0  0  0  0  0  0  0  0  0
   -5.9853    2.2058    0.3591 C   0  0  0  0  0  0  0  0  0  0  0  0
   -6.0543    1.3487    1.5841 C   0  0  0  0  0  0  0  0  0  0  0  0
   -5.6508   -0.0191    1.0683 C   0  0  0  0  0  0  0  0  0  0  0  0
   -5.0940    0.1357   -0.2133 N   0  0  0  0  0  0  0  0  0  0  0  0
   -5.2559   -0.8662   -1.1726 C   0  0  1  0  0  0  0  0  0  0  0  0
   -4.9799   -2.2145   -0.5511 C   0  0  0  0  0  0  0  0  0  0  0  0
   -6.2046   -3.0461   -0.8429 C   0  0  0  0  0  0  0  0  0  0  0  0
   -6.7453   -2.4330   -2.1164 C   0  0  0  0  0  0  0  0  0  0  0  0
   -6.5580   -0.9538   -1.8679 C   0  0  1  0  0  0  0  0  0  0  0  0
   -7.6452   -0.5334   -1.1133 O   0  0  0  0  0  0  0  0  0  0  0  0
    4.9966   -3.0710    1.8421 H   0  0  0  0  0  0  0  0  0  0  0  0
    4.4954   -1.7338   -0.4690 H   0  0  0  0  0  0  0  0  0  0  0  0
    6.4766    0.5248    0.2184 H   0  0  0  0  0  0  0  0  0  0  0  0
    6.1995   -0.1445   -1.3970 H   0  0  0  0  0  0  0  0  0  0  0  0
    6.7689   -2.5210   -1.8037 H   0  0  0  0  0  0  0  0  0  0  0  0
    8.5438   -4.2634   -1.4076 H   0  0  0  0  0  0  0  0  0  0  0  0
    9.9276   -4.1386    0.5568 H   0  0  0  0  0  0  0  0  0  0  0  0
    9.6045   -2.3275    2.1664 H   0  0  0  0  0  0  0  0  0  0  0  0
    7.8744   -0.6026    1.8001 H   0  0  0  0  0  0  0  0  0  0  0  0
    3.7247    1.0010    0.4631 H   0  0  0  0  0  0  0  0  0  0  0  0
    1.4801    0.6996   -2.7888 H   0  0  0  0  0  0  0  0  0  0  0  0
    2.2798    2.8260   -3.2753 H   0  0  0  0  0  0  0  0  0  0  0  0
    3.8233    2.0642   -2.6902 H   0  0  0  0  0  0  0  0  0  0  0  0
    3.7967    3.1078   -0.6577 H   0  0  0  0  0  0  0  0  0  0  0  0
    2.6970    4.3430   -1.4588 H   0  0  0  0  0  0  0  0  0  0  0  0
    1.0236    3.6666   -0.1359 H   0  0  0  0  0  0  0  0  0  0  0  0
    2.0790    2.5759    0.7352 H   0  0  0  0  0  0  0  0  0  0  0  0
   -1.3197    3.0091   -0.1254 H   0  0  0  0  0  0  0  0  0  0  0  0
    0.0064    2.4684    1.7910 H   0  0  0  0  0  0  0  0  0  0  0  0
   -1.7092    2.2875    2.1380 H   0  0  0  0  0  0  0  0  0  0  0  0
   -1.5909   -0.2141    1.9952 H   0  0  0  0  0  0  0  0  0  0  0  0
    0.5047   -1.0367    2.8250 H   0  0  0  0  0  0  0  0  0  0  0  0
    1.3044    0.6478    2.5344 H   0  0  0  0  0  0  0  0  0  0  0  0
   -2.6332    0.3345    0.2039 H   0  0  0  0  0  0  0  0  0  0  0  0
   -5.4323    1.6827   -1.6521 H   0  0  0  0  0  0  0  0  0  0  0  0
   -6.9538    2.4412   -0.1005 H   0  0  0  0  0  0  0  0  0  0  0  0
   -5.5354    3.2069    0.6201 H   0  0  0  0  0  0  0  0  0  0  0  0
   -5.3437    1.7401    2.3586 H   0  0  0  0  0  0  0  0  0  0  0  0
   -7.0539    1.3421    2.0599 H   0  0  0  0  0  0  0  0  0  0  0  0
   -4.8216   -0.3634    1.7548 H   0  0  0  0  0  0  0  0  0  0  0  0
   -6.4411   -0.7841    1.1800 H   0  0  0  0  0  0  0  0  0  0  0  0
   -4.4672   -0.7228   -1.9664 H   0  0  0  0  0  0  0  0  0  0  0  0
   -4.1199   -2.7331   -1.0360 H   0  0  0  0  0  0  0  0  0  0  0  0
   -4.7598   -2.1327    0.5361 H   0  0  0  0  0  0  0  0  0  0  0  0
   -5.9498   -4.1230   -0.9727 H   0  0  0  0  0  0  0  0  0  0  0  0
   -6.9687   -2.8928   -0.0503 H   0  0  0  0  0  0  0  0  0  0  0  0
   -7.8519   -2.6644   -2.1256 H   0  0  0  0  0  0  0  0  0  0  0  0
   -6.2432   -2.7990   -3.0313 H   0  0  0  0  0  0  0  0  0  0  0  0
   -6.5636   -0.4552   -2.8712 H   0  0  0  0  0  0  0  0  0  0  0  0
   -8.0243    0.3232   -1.4458 H   0  0  0  0  0  0  0  0  0  0  0  0
  1  2  1  0
  2  3  2  0
  2  4  1  0
  4  5  1  0
  5  6  1  0
  6  7  2  0
  7  8  1  0
  8  9  2  0
  9 10  1  0
 10 11  2  0
  4 12  1  0
 12 13  1  0
 13 14  2  0
 13 15  1  0
 15 16  1  0
 16 17  1  0
 17 18  1  0
 18 19  1  0
 19 20  1  0
 20 21  2  0
 20 22  1  0
 22 23  1  0
 23 24  1  0
 24 25  2  3
 22 26  1  0
 26 27  1  0
 27 28  2  0
 27 29  1  0
 29 30  1  0
 30 31  1  0
 31 32  1  0
 32 33  1  0
 33 34  1  0
 34 35  1  0
 35 36  1  0
 36 37  1  0
 37 38  1  0
 38 39  1  0
 11  6  1  0
 19 15  1  0
 33 29  1  0
 38 34  1  0
  1 40  1  0
  4 41  1  6
  5 42  1  0
  5 43  1  0
  7 44  1  0
  8 45  1  0
  9 46  1  0
 10 47  1  0
 11 48  1  0
 12 49  1  0
 15 50  1  6
 16 51  1  0
 16 52  1  0
 17 53  1  0
 17 54  1  0
 18 55  1  0
 18 56  1  0
 22 57  1  6
 23 58  1  0
 23 59  1  0
 24 60  1  0
 25 61  1  0
 25 62  1  0
 26 63  1  0
 29 64  1  6
 30 65  1  0
 30 66  1  0
 31 67  1  0
 31 68  1  0
 32 69  1  0
 32 70  1  0
 34 71  1  6
 35 72  1  0
 35 73  1  0
 36 74  1  0
 36 75  1  0
 37 76  1  0
 37 77  1  0
 38 78  1  6
 39 79  1  0
M  END
$$$$
[H]c1c([H])c(Cl)c([H])c(Oc2c([H])c([H])c(C(=O)N([H])[C@]([H])(C(=O)c3nc4c([H])c([H])c([H])c([H])c4s3)C([H])([H])C([H])([H])C([H])([H])N=C(N([H])[H])N([H])[H])c(C([H])([H])[H])c2[H])c1[H]
     RDKit          3D

 63 66  0  0  0  0  0  0  0  0999 V2000
    2.3772    0.2191    1.8298 C   0  0  0  0  0  0  0  0  0  0  0  0
    2.9884    0.2055    0.4502 C   0  0  0  0  0  0  0  0  0  0  0  0
    4.3962    0.1797    0.3807 C   0  0  0  0  0  0  0  0  0  0  0  0
    5.0319    0.1145   -0.8250 C   0  0  0  0  0  0  0  0  0  0  0  0
    6.4132    0.0867   -0.9629 O   0  0  0  0  0  0  0  0  0  0  0  0
    7.1565   -1.0932   -1.0001 C   0  0  0  0  0  0  0  0  0  0  0  0
    6.5855   -2.3309   -0.9222 C   0  0  0  0  0  0  0  0  0  0  0  0
    7.3611   -3.4590   -0.9635 C   0  0  0  0  0  0  0  0  0  0  0  0
    8.7266   -3.3287   -1.0846 C   0  0  0  0  0  0  0  0  0  0  0  0
    9.3448   -2.0974   -1.1663 C   0  0  0  0  0  0  0  0  0  0  0  0
   11.0979   -1.9347   -1.3209 Cl  0  0  0  0  0  0  0  0  0  0  0  0
    8.5246   -0.9888   -1.1209 C   0  0  0  0  0  0  0  0  0  0  0  0
    4.2614    0.0746   -1.9654 C   0  0  0  0  0  0  0  0  0  0  0  0
    2.8944    0.1013   -1.8818 C   0  0  0  0  0  0  0  0  0  0  0  0
    2.2025    0.1702   -0.6428 C   0  0  0  0  0  0  0  0  0  0  0  0
    0.7715    0.2506   -0.7171 C   0  0  0  0  0  0  0  0  0  0  0  0
    0.1610   -0.2895   -1.7260 O   0  0  0  0  0  0  0  0  0  0  0  0
   -0.0572    0.8802    0.2163 N   0  0  0  0  0  0  0  0  0  0  0  0
   -1.5339    0.8969    0.0258 C   0  0  1  0  0  0  0  0  0  0  0  0
   -2.1218    0.0761    1.1410 C   0  0  0  0  0  0  0  0  0  0  0  0
   -1.6245   -1.3342    1.0851 C   0  0  0  0  0  0  0  0  0  0  0  0
   -2.2509   -2.1193    2.2432 C   0  0  0  0  0  0  0  0  0  0  0  0
   -3.6959   -2.1136    2.1401 N   0  0  0  0  0  0  0  0  0  0  0  0
   -4.3133   -3.1603    1.6758 C   0  0  0  0  0  0  0  0  0  0  0  0
   -5.7287   -3.1021    1.5963 N   0  0  0  0  0  0  0  0  0  0  0  0
   -3.5788   -4.2918    1.2757 N   0  0  0  0  0  0  0  0  0  0  0  0
   -1.9455    2.3013    0.0276 C   0  0  0  0  0  0  0  0  0  0  0  0
   -1.0820    3.2076    0.1687 O   0  0  0  0  0  0  0  0  0  0  0  0
   -3.3536    2.6977   -0.1317 C   0  0  0  0  0  0  0  0  0  0  0  0
   -3.7915    3.9354   -0.1401 N   0  0  0  0  0  0  0  0  0  0  0  0
   -5.0613    4.1790   -0.2855 C   0  0  0  0  0  0  0  0  0  0  0  0
   -5.6688    5.4548   -0.3125 C   0  0  0  0  0  0  0  0  0  0  0  0
   -7.0094    5.5440   -0.4718 C   0  0  0  0  0  0  0  0  0  0  0  0
   -7.8800    4.4891   -0.6158 C   0  0  0  0  0  0  0  0  0  0  0  0
   -7.2882    3.2300   -0.5901 C   0  0  0  0  0  0  0  0  0  0  0  0
   -5.9025    3.1069   -0.4267 C   0  0  0  0  0  0  0  0  0  0  0  0
   -4.7864    1.7970   -0.3386 S   0  0  0  0  0  0  0  0  0  0  0  0
    1.4934   -0.4365    1.8760 H   0  0  0  0  0  0  0  0  0  0  0  0
    2.2794    1.2182    2.2447 H   0  0  0  0  0  0  0  0  0  0  0  0
    3.1209   -0.3093    2.5216 H   0  0  0  0  0  0  0  0  0  0  0  0
    4.9520    0.2119    1.2892 H   0  0  0  0  0  0  0  0  0  0  0  0
    5.5079   -2.4084   -0.8267 H   0  0  0  0  0  0  0  0  0  0  0  0
    6.9109   -4.4660   -0.9009 H   0  0  0  0  0  0  0  0  0  0  0  0
    9.3857   -4.2092   -1.1218 H   0  0  0  0  0  0  0  0  0  0  0  0
    9.0238   -0.0261   -1.1857 H   0  0  0  0  0  0  0  0  0  0  0  0
    4.7399    0.0215   -2.9337 H   0  0  0  0  0  0  0  0  0  0  0  0
    2.2764    0.0695   -2.7802 H   0  0  0  0  0  0  0  0  0  0  0  0
    0.2955    1.3788    1.0468 H   0  0  0  0  0  0  0  0  0  0  0  0
   -1.7470    0.4176   -0.9567 H   0  0  0  0  0  0  0  0  0  0  0  0
   -3.2305    0.1423    1.1540 H   0  0  0  0  0  0  0  0  0  0  0  0
   -1.8108    0.4729    2.1506 H   0  0  0  0  0  0  0  0  0  0  0  0
   -0.5353   -1.4028    1.1628 H   0  0  0  0  0  0  0  0  0  0  0  0
   -1.9933   -1.7618    0.1075 H   0  0  0  0  0  0  0  0  0  0  0  0
   -2.0164   -1.5111    3.1634 H   0  0  0  0  0  0  0  0  0  0  0  0
   -1.8294   -3.1283    2.3193 H   0  0  0  0  0  0  0  0  0  0  0  0
   -6.1901   -2.7507    0.7506 H   0  0  0  0  0  0  0  0  0  0  0  0
   -6.2759   -3.4253    2.4180 H   0  0  0  0  0  0  0  0  0  0  0  0
   -3.3356   -4.4330    0.2802 H   0  0  0  0  0  0  0  0  0  0  0  0
   -3.2745   -4.9939    1.9733 H   0  0  0  0  0  0  0  0  0  0  0  0
   -5.0983    6.3608   -0.2107 H   0  0  0  0  0  0  0  0  0  0  0  0
   -7.4934    6.5351   -0.4944 H   0  0  0  0  0  0  0  0  0  0  0  0
   -8.9464    4.5729   -0.7416 H   0  0  0  0  0  0  0  0  0  0  0  0
   -7.8293    2.3061   -0.6889 H   0  0  0  0  0  0  0  0  0  0  0  0
  1  2  1  0
  2  3  2  0
  3  4  1  0
  4  5  1  0
  5  6  1  0
  6  7  2  0
  7  8  1  0
  8  9  2  0
  9 10  1  0
 10 11  1  0
 10 12  2  0
  4 13  2  0
 13 14  1  0
 14 15  2  0
 15 16  1  0
 16 17  2  0
 16 18  1  0
 18 19  1  0
 19 20  1  0
 20 21  1  0
 21 22  1  0
 22 23  1  0
 23 24  2  3
 24 25  1  0
 24 26  1  0
 19 27  1  0
 27 28  2  0
 27 29  1  0
 29 30  2  0
 30 31  1  0
 31 32  2  0
 32 33  1  0
 33 34  2  0
 34 35  1  0
 35 36  2  0
 36 37  1  0
 15  2  1  0
 37 29  1  0
 12  6  1  0
 36 31  1  0
  1 38  1  0
  1 39  1  0
  1 40  1  0
  3 41  1  0
  7 42  1  0
  8 43  1  0
  9 44  1  0
 12 45  1  0
 13 46  1  0
 14 47  1  0
 18 48  1  0
 19 49  1  6
 20 50  1  0
 20 51  1  0
 21 52  1  0
 21 53  1  0
 22 54  1  0
 22 55  1  0
 25 56  1  0
 25 57  1  0
 26 58  1  0
 26 59  1  0
 32 60  1  0
 33 61  1  0
 34 62  1  0
 35 63  1  0
M  END
$$$$
[H]/C(=C(/[H])C([H])([H])[H])c1noc(-c2c([H])c(C(=O)N3C([H])([H])C([H])([H])C([H])(c4nc5c([H])c([H])c([H])c([H])c5n4[H])C([H])([H])C3([H])[H])c(=O)n([H])c2[H])c1[H]
     RDKit          3D

 55 59  0  0  0  0  0  0  0  0999 V2000
   -9.8858    1.3216    0.4095 C   0  0  0  0  0  0  0  0  0  0  0  0
   -8.4737    0.9410    0.1089 C   0  0  0  0  0  0  0  0  0  0  0  0
   -7.9905   -0.2534    0.4083 C   0  0  0  0  0  0  0  0  0  0  0  0
   -6.6226   -0.6444    0.1256 C   0  0  0  0  0  0  0  0  0  0  0  0
   -5.6410    0.1002   -0.4647 C   0  0  0  0  0  0  0  0  0  0  0  0
   -4.5253   -0.7120   -0.5088 C   0  0  0  0  0  0  0  0  0  0  0  0
   -4.8512   -1.8618    0.0283 O   0  0  0  0  0  0  0  0  0  0  0  0
   -6.0768   -1.8381    0.4050 N   0  0  0  0  0  0  0  0  0  0  0  0
   -3.2212   -0.3569   -1.0534 C   0  0  0  0  0  0  0  0  0  0  0  0
   -2.9869    0.8880   -1.5977 C   0  0  0  0  0  0  0  0  0  0  0  0
   -1.7722    1.1829   -2.0914 N   0  0  0  0  0  0  0  0  0  0  0  0
   -0.7622    0.3016   -2.0761 C   0  0  0  0  0  0  0  0  0  0  0  0
    0.3718    0.6269   -2.5560 O   0  0  0  0  0  0  0  0  0  0  0  0
   -0.9795   -0.9395   -1.5387 C   0  0  0  0  0  0  0  0  0  0  0  0
   -2.2027   -1.2821   -1.0243 C   0  0  0  0  0  0  0  0  0  0  0  0
    0.0904   -1.9263   -1.5025 C   0  0  0  0  0  0  0  0  0  0  0  0
    0.1886   -2.6908   -2.4969 O   0  0  0  0  0  0  0  0  0  0  0  0
    0.9445   -1.9805   -0.3875 N   0  0  0  0  0  0  0  0  0  0  0  0
    2.0368   -2.9266   -0.2597 C   0  0  0  0  0  0  0  0  0  0  0  0
    3.3060   -2.1182   -0.1150 C   0  0  0  0  0  0  0  0  0  0  0  0
    3.2315   -1.1334    1.0181 C   0  0  0  0  0  0  0  0  0  0  0  0
    2.0066   -0.2551    0.9442 C   0  0  0  0  0  0  0  0  0  0  0  0
    0.7471   -1.0550    0.7063 C   0  0  0  0  0  0  0  0  0  0  0  0
    4.4380   -0.2631    0.9492 C   0  0  0  0  0  0  0  0  0  0  0  0
    4.7990    0.5011   -0.1072 N   0  0  0  0  0  0  0  0  0  0  0  0
    5.9367    1.1626    0.1552 C   0  0  0  0  0  0  0  0  0  0  0  0
    6.6969    2.0477   -0.5807 C   0  0  0  0  0  0  0  0  0  0  0  0
    7.8439    2.5764   -0.0321 C   0  0  0  0  0  0  0  0  0  0  0  0
    8.2432    2.2340    1.2415 C   0  0  0  0  0  0  0  0  0  0  0  0
    7.4636    1.3473    1.9530 C   0  0  0  0  0  0  0  0  0  0  0  0
    6.2984    0.7920    1.4329 C   0  0  0  0  0  0  0  0  0  0  0  0
    5.3783   -0.0781    1.9099 N   0  0  0  0  0  0  0  0  0  0  0  0
  -10.5777    0.7904   -0.2531 H   0  0  0  0  0  0  0  0  0  0  0  0
   -9.9905    2.4192    0.4030 H   0  0  0  0  0  0  0  0  0  0  0  0
  -10.0594    1.0051    1.4707 H   0  0  0  0  0  0  0  0  0  0  0  0
   -7.8244    1.6456   -0.3617 H   0  0  0  0  0  0  0  0  0  0  0  0
   -8.6750   -0.9410    0.8836 H   0  0  0  0  0  0  0  0  0  0  0  0
   -5.6887    1.1070   -0.8302 H   0  0  0  0  0  0  0  0  0  0  0  0
   -3.7952    1.5910   -1.6090 H   0  0  0  0  0  0  0  0  0  0  0  0
   -1.5803    2.1207   -2.5062 H   0  0  0  0  0  0  0  0  0  0  0  0
   -2.3860   -2.2799   -0.5895 H   0  0  0  0  0  0  0  0  0  0  0  0
    2.0965   -3.5144   -1.1800 H   0  0  0  0  0  0  0  0  0  0  0  0
    1.9358   -3.5312    0.6620 H   0  0  0  0  0  0  0  0  0  0  0  0
    4.1597   -2.7951    0.0878 H   0  0  0  0  0  0  0  0  0  0  0  0
    3.5120   -1.5638   -1.0503 H   0  0  0  0  0  0  0  0  0  0  0  0
    3.2262   -1.6190    2.0093 H   0  0  0  0  0  0  0  0  0  0  0  0
    2.1025    0.4915    0.1488 H   0  0  0  0  0  0  0  0  0  0  0  0
    1.9169    0.2596    1.9229 H   0  0  0  0  0  0  0  0  0  0  0  0
    0.4601   -1.6583    1.5897 H   0  0  0  0  0  0  0  0  0  0  0  0
   -0.0638   -0.3361    0.5108 H   0  0  0  0  0  0  0  0  0  0  0  0
    6.4363    2.3549   -1.5842 H   0  0  0  0  0  0  0  0  0  0  0  0
    8.4384    3.2777   -0.6263 H   0  0  0  0  0  0  0  0  0  0  0  0
    9.1604    2.6581    1.6775 H   0  0  0  0  0  0  0  0  0  0  0  0
    7.7806    1.0767    2.9615 H   0  0  0  0  0  0  0  0  0  0  0  0
    5.3860   -0.5346    2.8596 H   0  0  0  0  0  0  0  0  0  0  0  0
  1  2  1  0
  2  3  2  0
  3  4  1  0
  4  5  1  0
  5  6  2  0
  6  7  1  0
  7  8  1  0
  6  9  1  0
  9 10  2  0
 10 11  1  0
 11 12  1  0
 12 13  2  0
 12 14  1  0
 14 15  2  0
 14 16  1  0
 16 17  2  0
 16 18  1  0
 18 19  1  0
 19 20  1  0
 20 21  1  0
 21 22  1  0
 22 23  1  0
 21 24  1  0
 24 25  2  0
 25 26  1  0
 26 27  2  0
 27 28  1  0
 28 29  2  0
 29 30  1  0
 30 31  2  0
 31 32  1  0
  8  4  2  0
 15  9  1  0
 23 18  1  0
 32 24  1  0
 31 26  1  0
  1 33  1  0
  1 34  1  0
  1 35  1  0
  2 36  1  0
  3 37  1  0
  5 38  1  0
 10 39  1  0
 11 40  1  0
 15 41  1  0
 19 42  1  0
 19 43  1  0
 20 44  1  0
 20 45  1  0
 21 46  1  0
 22 47  1  0
 22 48  1  0
 23 49  1  0
 23 50  1  0
 27 51  1  0
 28 52  1  0
 29 53  1  0
 30 54  1  0
 32 55  1  0
M  END
$$$$
[H]OC(=O)C([H])(OC(=O)C([H])([H])C([H])([H])C([H])([H])C([H])([H])C([H])([H])C([H])([H])C([H])([H])C(=O)N([H])C([H])([H])C([H])([H])C([H])([H])C([H])([H])N([H])C(=O)C([H])([H])C([H])([H])C([H])([H])C([H])([H])C(=O)N([H])C([H])([H])C([H])([H])C([H])([H])OC([H])([H])C1([H])C([H])([H])C([H])([H])C([H])([H])C([H])([H])C([H])([H])C([H])([H])C1([H])[H])[C@@]([H])(OC(=O)N([H])C([H])([H])C([H])([H])C(=O)N([H])c1c([H])c([H])nc([H])c1[H])[C@]([H])(O[H])C(=O)O[H]
     RDKit          3D

137138  0  0  0  0  0  0  0  0999 V2000
  -13.2018    0.8486    4.1241 O   0  0  0  0  0  0  0  0  0  0  0  0
  -12.0300    0.0283    3.9849 C   0  0  1  0  0  0  0  0  0  0  0  0
  -11.3516    0.4965    2.6627 C   0  0  2  0  0  0  0  0  0  0  0  0
  -12.3134    0.3581    1.6467 O   0  0  0  0  0  0  0  0  0  0  0  0
  -13.1381    1.4659    1.2363 C   0  0  0  0  0  0  0  0  0  0  0  0
  -12.8227    2.5086    1.9463 O   0  0  0  0  0  0  0  0  0  0  0  0
  -14.0601    1.3742    0.3000 N   0  0  0  0  0  0  0  0  0  0  0  0
  -15.0870    1.3645   -0.7050 C   0  0  0  0  0  0  0  0  0  0  0  0
  -15.2092   -0.0210   -1.3732 C   0  0  0  0  0  0  0  0  0  0  0  0
  -16.1802    0.1755   -2.5268 C   0  0  0  0  0  0  0  0  0  0  0  0
  -16.5678    1.3062   -2.7523 O   0  0  0  0  0  0  0  0  0  0  0  0
  -16.5779   -0.9569   -3.2804 N   0  0  0  0  0  0  0  0  0  0  0  0
  -17.4448   -0.9521   -4.4138 C   0  0  0  0  0  0  0  0  0  0  0  0
  -18.1771    0.1236   -4.7934 C   0  0  0  0  0  0  0  0  0  0  0  0
  -18.9369    0.0344   -5.9880 C   0  0  0  0  0  0  0  0  0  0  0  0
  -18.8891   -1.0949   -6.6577 N   0  0  0  0  0  0  0  0  0  0  0  0
  -18.2121   -2.1790   -6.3576 C   0  0  0  0  0  0  0  0  0  0  0  0
  -17.4467   -2.1258   -5.1823 C   0  0  0  0  0  0  0  0  0  0  0  0
  -10.0607   -0.1702    2.5145 C   0  0  0  0  0  0  0  0  0  0  0  0
   -9.2390    0.2791    1.4008 O   0  0  0  0  0  0  0  0  0  0  0  0
   -8.0559    0.9338    1.5637 C   0  0  0  0  0  0  0  0  0  0  0  0
   -7.6564    1.2427    2.7162 O   0  0  0  0  0  0  0  0  0  0  0  0
   -7.1802    1.3116    0.4158 C   0  0  0  0  0  0  0  0  0  0  0  0
   -6.1407    2.3255    0.6977 C   0  0  0  0  0  0  0  0  0  0  0  0
   -5.1568    2.4394   -0.4172 C   0  0  0  0  0  0  0  0  0  0  0  0
   -3.9900    1.5147   -0.3899 C   0  0  0  0  0  0  0  0  0  0  0  0
   -4.2844    0.1095   -0.1256 C   0  0  0  0  0  0  0  0  0  0  0  0
   -3.0673   -0.8187   -0.1472 C   0  0  0  0  0  0  0  0  0  0  0  0
   -1.9050   -0.2927    0.6405 C   0  0  0  0  0  0  0  0  0  0  0  0
   -0.8880   -1.3688    0.7422 C   0  0  0  0  0  0  0  0  0  0  0  0
   -1.0452   -2.2224    1.6608 O   0  0  0  0  0  0  0  0  0  0  0  0
    0.2239   -1.4315   -0.1723 N   0  0  0  0  0  0  0  0  0  0  0  0
    1.2037   -2.4734    0.0176 C   0  0  0  0  0  0  0  0  0  0  0  0
    1.9803   -2.2433    1.2904 C   0  0  0  0  0  0  0  0  0  0  0  0
    2.9663   -3.3666    1.5196 C   0  0  0  0  0  0  0  0  0  0  0  0
    3.9486   -3.5102    0.3449 C   0  0  0  0  0  0  0  0  0  0  0  0
    4.7035   -2.3747    0.0998 N   0  0  0  0  0  0  0  0  0  0  0  0
    5.4379   -1.2868   -0.1474 C   0  0  0  0  0  0  0  0  0  0  0  0
    6.3432   -1.1549   -1.0605 O   0  0  0  0  0  0  0  0  0  0  0  0
    5.3262    0.0164    0.6516 C   0  0  0  0  0  0  0  0  0  0  0  0
    6.7105    0.5198    0.9314 C   0  0  0  0  0  0  0  0  0  0  0  0
    6.6973    1.8509    1.6337 C   0  0  0  0  0  0  0  0  0  0  0  0
    8.1609    2.1028    2.0476 C   0  0  0  0  0  0  0  0  0  0  0  0
    9.0106    2.1245    0.8706 C   0  0  0  0  0  0  0  0  0  0  0  0
    8.5704    2.3855   -0.2701 O   0  0  0  0  0  0  0  0  0  0  0  0
   10.4010    1.8231    1.0139 N   0  0  0  0  0  0  0  0  0  0  0  0
   11.2847    1.7661   -0.1470 C   0  0  0  0  0  0  0  0  0  0  0  0
   10.8576    0.6271   -1.0797 C   0  0  0  0  0  0  0  0  0  0  0  0
   11.8247    0.6000   -2.2441 C   0  0  0  0  0  0  0  0  0  0  0  0
   13.0740    0.3596   -1.6706 O   0  0  0  0  0  0  0  0  0  0  0  0
   14.0904    0.2368   -2.6150 C   0  0  0  0  0  0  0  0  0  0  0  0
   15.4119   -0.0031   -1.8389 C   0  0  0  0  0  0  0  0  0  0  0  0
   15.1855   -1.2631   -1.0783 C   0  0  0  0  0  0  0  0  0  0  0  0
   16.3735   -1.8485   -0.4123 C   0  0  0  0  0  0  0  0  0  0  0  0
   17.5762   -1.0034   -0.2498 C   0  0  0  0  0  0  0  0  0  0  0  0
   17.6941   -0.3085    1.0947 C   0  0  0  0  0  0  0  0  0  0  0  0
   17.2623    1.1431    0.8419 C   0  0  0  0  0  0  0  0  0  0  0  0
   15.7710    1.0481    0.4551 C   0  0  0  0  0  0  0  0  0  0  0  0
   15.5936    1.2380   -1.0044 C   0  0  0  0  0  0  0  0  0  0  0  0
  -10.1927   -1.6181    2.2527 C   0  0  0  0  0  0  0  0  0  0  0  0
   -9.5365   -2.1939    1.1695 O   0  0  0  0  0  0  0  0  0  0  0  0
  -10.8649   -2.3765    2.9635 O   0  0  0  0  0  0  0  0  0  0  0  0
  -11.1672    0.2624    5.1462 C   0  0  0  0  0  0  0  0  0  0  0  0
  -11.4535    1.3884    5.9704 O   0  0  0  0  0  0  0  0  0  0  0  0
  -10.1972   -0.4143    5.5069 O   0  0  0  0  0  0  0  0  0  0  0  0
  -13.8472    0.2799    4.5995 H   0  0  0  0  0  0  0  0  0  0  0  0
  -12.4129   -0.9723    3.9428 H   0  0  0  0  0  0  0  0  0  0  0  0
  -11.2192    1.5966    2.9234 H   0  0  0  0  0  0  0  0  0  0  0  0
  -14.4097    2.6945    0.5580 H   0  0  0  0  0  0  0  0  0  0  0  0
  -16.0985    1.5352   -0.2598 H   0  0  0  0  0  0  0  0  0  0  0  0
  -14.8242    2.0461   -1.5185 H   0  0  0  0  0  0  0  0  0  0  0  0
  -15.6794   -0.7442   -0.6887 H   0  0  0  0  0  0  0  0  0  0  0  0
  -14.2320   -0.3366   -1.7532 H   0  0  0  0  0  0  0  0  0  0  0  0
  -16.2098   -1.9071   -2.9594 H   0  0  0  0  0  0  0  0  0  0  0  0
  -18.2169    1.0232   -4.2651 H   0  0  0  0  0  0  0  0  0  0  0  0
  -19.5191    0.8662   -6.3280 H   0  0  0  0  0  0  0  0  0  0  0  0
  -18.2146   -3.0859   -6.9545 H   0  0  0  0  0  0  0  0  0  0  0  0
  -16.8786   -2.9804   -4.8967 H   0  0  0  0  0  0  0  0  0  0  0  0
   -9.4333    0.0637    3.4105 H   0  0  0  0  0  0  0  0  0  0  0  0
   -6.8405    0.3963   -0.0300 H   0  0  0  0  0  0  0  0  0  0  0  0
   -7.9100    1.7224   -0.3961 H   0  0  0  0  0  0  0  0  0  0  0  0
   -6.5944    3.3541    0.8373 H   0  0  0  0  0  0  0  0  0  0  0  0
   -5.6481    2.1016    1.6700 H   0  0  0  0  0  0  0  0  0  0  0  0
   -5.6601    2.3242   -1.4413 H   0  0  0  0  0  0  0  0  0  0  0  0
   -4.7278    3.4921   -0.4687 H   0  0  0  0  0  0  0  0  0  0  0  0
   -3.2107    1.9473    0.3157 H   0  0  0  0  0  0  0  0  0  0  0  0
   -3.4978    1.6243   -1.4164 H   0  0  0  0  0  0  0  0  0  0  0  0
   -4.9234   -0.2786   -0.9594 H   0  0  0  0  0  0  0  0  0  0  0  0
   -4.8333   -0.0203    0.8185 H   0  0  0  0  0  0  0  0  0  0  0  0
   -2.8004   -0.9575   -1.2277 H   0  0  0  0  0  0  0  0  0  0  0  0
   -3.3746   -1.7895    0.2275 H   0  0  0  0  0  0  0  0  0  0  0  0
   -2.2075   -0.0308    1.6934 H   0  0  0  0  0  0  0  0  0  0  0  0
   -1.4946    0.6274    0.2234 H   0  0  0  0  0  0  0  0  0  0  0  0
    0.2565   -0.7150   -0.9217 H   0  0  0  0  0  0  0  0  0  0  0  0
    0.6881   -3.4650    0.1764 H   0  0  0  0  0  0  0  0  0  0  0  0
    1.8191   -2.5998   -0.8675 H   0  0  0  0  0  0  0  0  0  0  0  0
    1.3238   -2.1976    2.1567 H   0  0  0  0  0  0  0  0  0  0  0  0
    2.4757   -1.2443    1.1858 H   0  0  0  0  0  0  0  0  0  0  0  0
    3.4913   -3.1894    2.4741 H   0  0  0  0  0  0  0  0  0  0  0  0
    2.3680   -4.2903    1.6378 H   0  0  0  0  0  0  0  0  0  0  0  0
    3.3098   -3.9186   -0.4758 H   0  0  0  0  0  0  0  0  0  0  0  0
    4.5904   -4.4116    0.6644 H   0  0  0  0  0  0  0  0  0  0  0  0
    5.2687   -3.0228   -0.9664 H   0  0  0  0  0  0  0  0  0  0  0  0
    4.7460    0.7604    0.1435 H   0  0  0  0  0  0  0  0  0  0  0  0
    4.8254   -0.2296    1.6034 H   0  0  0  0  0  0  0  0  0  0  0  0
    7.2151    0.6462   -0.0575 H   0  0  0  0  0  0  0  0  0  0  0  0
    7.3257   -0.2312    1.4952 H   0  0  0  0  0  0  0  0  0  0  0  0
    6.3514    2.6775    1.0098 H   0  0  0  0  0  0  0  0  0  0  0  0
    6.1316    1.7757    2.6003 H   0  0  0  0  0  0  0  0  0  0  0  0
    8.4112    1.2348    2.7260 H   0  0  0  0  0  0  0  0  0  0  0  0
    8.2046    3.0043    2.6992 H   0  0  0  0  0  0  0  0  0  0  0  0
   10.7883    1.6474    1.9494 H   0  0  0  0  0  0  0  0  0  0  0  0
   11.1194    2.7086   -0.7701 H   0  0  0  0  0  0  0  0  0  0  0  0
   12.3184    1.7467    0.1568 H   0  0  0  0  0  0  0  0  0  0  0  0
   10.9331   -0.3314   -0.4873 H   0  0  0  0  0  0  0  0  0  0  0  0
    9.8499    0.8111   -1.4525 H   0  0  0  0  0  0  0  0  0  0  0  0
   11.8863    1.5848   -2.7761 H   0  0  0  0  0  0  0  0  0  0  0  0
   11.6253   -0.2270   -2.9418 H   0  0  0  0  0  0  0  0  0  0  0  0
   14.1578    1.1449   -3.2574 H   0  0  0  0  0  0  0  0  0  0  0  0
   13.8696   -0.6204   -3.2574 H   0  0  0  0  0  0  0  0  0  0  0  0
   16.1680   -0.0496   -2.6484 H   0  0  0  0  0  0  0  0  0  0  0  0
   14.2981   -1.0865   -0.3936 H   0  0  0  0  0  0  0  0  0  0  0  0
   14.8007   -2.0277   -1.8135 H   0  0  0  0  0  0  0  0  0  0  0  0
   16.6574   -2.8199   -0.8832 H   0  0  0  0  0  0  0  0  0  0  0  0
   16.0381   -2.1871    0.6239 H   0  0  0  0  0  0  0  0  0  0  0  0
   17.7491   -0.2857   -1.0716 H   0  0  0  0  0  0  0  0  0  0  0  0
   18.4634   -1.6936   -0.2903 H   0  0  0  0  0  0  0  0  0  0  0  0
   18.7376   -0.2582    1.4491 H   0  0  0  0  0  0  0  0  0  0  0  0
   17.0305   -0.7516    1.8503 H   0  0  0  0  0  0  0  0  0  0  0  0
   17.4245    1.7694    1.7393 H   0  0  0  0  0  0  0  0  0  0  0  0
   17.7917    1.5700   -0.0377 H   0  0  0  0  0  0  0  0  0  0  0  0
   15.3006    0.1537    0.9066 H   0  0  0  0  0  0  0  0  0  0  0  0
   15.2835    1.9177    0.9836 H   0  0  0  0  0  0  0  0  0  0  0  0
   16.4908    1.7918   -1.3727 H   0  0  0  0  0  0  0  0  0  0  0  0
   14.7329    1.9602   -1.1481 H   0  0  0  0  0  0  0  0  0  0  0  0
   -9.0444   -1.5926    0.5058 H   0  0  0  0  0  0  0  0  0  0  0  0
  -12.3103    1.3253    6.5227 H   0  0  0  0  0  0  0  0  0  0  0  0
  1  2  1  0
  2  3  1  0
  3  4  1  0
  4  5  1  0
  5  6  2  0
  5  7  1  0
  7  8  1  0
  8  9  1  0
  9 10  1  0
 10 11  2  0
 10 12  1  0
 12 13  1  0
 13 14  2  0
 14 15  1  0
 15 16  2  0
 16 17  1  0
 17 18  2  0
  3 19  1  0
 19 20  1  0
 20 21  1  0
 21 22  2  0
 21 23  1  0
 23 24  1  0
 24 25  1  0
 25 26  1  0
 26 27  1  0
 27 28  1  0
 28 29  1  0
 29 30  1  0
 30 31  2  0
 30 32  1  0
 32 33  1  0
 33 34  1  0
 34 35  1  0
 35 36  1  0
 36 37  1  0
 37 38  1  0
 38 39  2  0
 38 40  1  0
 40 41  1  0
 41 42  1  0
 42 43  1  0
 43 44  1  0
 44 45  2  0
 44 46  1  0
 46 47  1  0
 47 48  1  0
 48 49  1  0
 49 50  1  0
 50 51  1  0
 51 52  1  0
 52 53  1  0
 53 54  1  0
 54 55  1  0
 55 56  1  0
 56 57  1  0
 57 58  1  0
 58 59  1  0
 19 60  1  0
 60 61  1  0
 60 62  2  0
  2 63  1  0
 63 64  1  0
 63 65  2  0
 18 13  1  0
 59 52  1  0
  1 66  1  0
  2 67  1  6
  3 68  1  1
  7 69  1  0
  8 70  1  0
  8 71  1  0
  9 72  1  0
  9 73  1  0
 12 74  1  0
 14 75  1  0
 15 76  1  0
 17 77  1  0
 18 78  1  0
 19 79  1  0
 23 80  1  0
 23 81  1  0
 24 82  1  0
 24 83  1  0
 25 84  1  0
 25 85  1  0
 26 86  1  0
 26 87  1  0
 27 88  1  0
 27 89  1  0
 28 90  1  0
 28 91  1  0
 29 92  1  0
 29 93  1  0
 32 94  1  0
 33 95  1  0
 33 96  1  0
 34 97  1  0
 34 98  1  0
 35 99  1  0
 35100  1  0
 36101  1  0
 36102  1  0
 37103  1  0
 40104  1  0
 40105  1  0
 41106  1  0
 41107  1  0
 42108  1  0
 42109  1  0
 43110  1  0
 43111  1  0
 46112  1  0
 47113  1  0
 47114  1  0
 48115  1  0
 48116  1  0
 49117  1  0
 49118  1  0
 51119  1  0
 51120  1  0
 52121  1  0
 53122  1  0
 53123  1  0
 54124  1  0
 54125  1  0
 55126  1  0
 55127  1  0
 56128  1  0
 56129  1  0
 57130  1  0
 57131  1  0
 58132  1  0
 58133  1  0
 59134  1  0
 59135  1  0
 61136  1  0
 64137  1  0
M  END
$$$$
[H]OC(=O)[C@@]([H])(N([H])[C@]([H])(C(=O)O[H])C([H])([H])c1c([H])c([H])c(-c2c([H])c([H])c([H])c([H])c2[H])c([H])c1[H])C([H])([H])[H]
     RDKit          3D

 42 43  0  0  0  0  0  0  0  0999 V2000
   -4.4683    1.0625    1.0021 C   0  0  0  0  0  0  0  0  0  0  0  0
   -4.5491   -0.2247    0.2115 C   0  0  2  0  0  0  0  0  0  0  0  0
   -3.6951   -0.4421   -0.8346 N   0  0  0  0  0  0  0  0  0  0  0  0
   -2.2956   -0.6185   -0.7927 C   0  0  1  0  0  0  0  0  0  0  0  0
   -1.5812    0.5773   -0.2443 C   0  0  0  0  0  0  0  0  0  0  0  0
   -0.1056    0.4966   -0.2026 C   0  0  0  0  0  0  0  0  0  0  0  0
    0.5282    0.1493    0.9532 C   0  0  0  0  0  0  0  0  0  0  0  0
    1.9076    0.0785    0.9849 C   0  0  0  0  0  0  0  0  0  0  0  0
    2.6567    0.3512   -0.1273 C   0  0  0  0  0  0  0  0  0  0  0  0
    2.0348    0.7012   -1.2955 C   0  0  0  0  0  0  0  0  0  0  0  0
    0.6619    0.7737   -1.3340 C   0  0  0  0  0  0  0  0  0  0  0  0
    4.1046    0.2658   -0.0608 C   0  0  0  0  0  0  0  0  0  0  0  0
    4.9022    1.0791   -0.8430 C   0  0  0  0  0  0  0  0  0  0  0  0
    6.2686    1.0149   -0.7972 C   0  0  0  0  0  0  0  0  0  0  0  0
    6.8730    0.0960    0.0697 C   0  0  0  0  0  0  0  0  0  0  0  0
    6.1081   -0.7274    0.8614 C   0  0  0  0  0  0  0  0  0  0  0  0
    4.7441   -0.6288    0.7825 C   0  0  0  0  0  0  0  0  0  0  0  0
   -1.9015   -1.8945   -0.1531 C   0  0  0  0  0  0  0  0  0  0  0  0
   -0.5926   -2.3175   -0.1143 O   0  0  0  0  0  0  0  0  0  0  0  0
   -2.7478   -2.6496    0.3780 O   0  0  0  0  0  0  0  0  0  0  0  0
   -5.9834   -0.2878   -0.2696 C   0  0  0  0  0  0  0  0  0  0  0  0
   -6.9716   -0.0861    0.6734 O   0  0  0  0  0  0  0  0  0  0  0  0
   -6.2863   -0.5117   -1.4621 O   0  0  0  0  0  0  0  0  0  0  0  0
   -3.9475    0.9267    1.9713 H   0  0  0  0  0  0  0  0  0  0  0  0
   -3.9503    1.8136    0.3734 H   0  0  0  0  0  0  0  0  0  0  0  0
   -5.4935    1.4282    1.2842 H   0  0  0  0  0  0  0  0  0  0  0  0
   -4.4521   -1.0718    0.9620 H   0  0  0  0  0  0  0  0  0  0  0  0
   -4.0233   -0.1780   -1.7992 H   0  0  0  0  0  0  0  0  0  0  0  0
   -1.9543   -0.6941   -1.8925 H   0  0  0  0  0  0  0  0  0  0  0  0
   -1.9331    0.7188    0.8242 H   0  0  0  0  0  0  0  0  0  0  0  0
   -1.8617    1.5113   -0.7573 H   0  0  0  0  0  0  0  0  0  0  0  0
   -0.0134   -0.0828    1.8808 H   0  0  0  0  0  0  0  0  0  0  0  0
    2.4082   -0.1987    1.9108 H   0  0  0  0  0  0  0  0  0  0  0  0
    2.5884    0.9276   -2.2072 H   0  0  0  0  0  0  0  0  0  0  0  0
    0.1199    1.0456   -2.2301 H   0  0  0  0  0  0  0  0  0  0  0  0
    4.4001    1.7874   -1.5109 H   0  0  0  0  0  0  0  0  0  0  0  0
    6.9110    1.6392   -1.3996 H   0  0  0  0  0  0  0  0  0  0  0  0
    7.9564    0.0531    0.0973 H   0  0  0  0  0  0  0  0  0  0  0  0
    6.5922   -1.4202    1.5156 H   0  0  0  0  0  0  0  0  0  0  0  0
    4.0779   -1.2572    1.3876 H   0  0  0  0  0  0  0  0  0  0  0  0
   -0.2154   -2.9034    0.6099 H   0  0  0  0  0  0  0  0  0  0  0  0
   -6.8211   -0.3027    1.6435 H   0  0  0  0  0  0  0  0  0  0  0  0
  1  2  1  0
  2  3  1  0
  3  4  1  0
  4  5  1  0
  5  6  1  0
  6  7  2  0
  7  8  1  0
  8  9  2  0
  9 10  1  0
 10 11  2  0
  9 12  1  0
 12 13  2  0
 13 14  1  0
 14 15  2  0
 15 16  1  0
 16 17  2  0
  4 18  1  0
 18 19  1  0
 18 20  2  0
  2 21  1  0
 21 22  1  0
 21 23  2  0
 11  6  1  0
 17 12  1  0
  1 24  1  0
  1 25  1  0
  1 26  1  0
  2 27  1  1
  3 28  1  0
  4 29  1  6
  5 30  1  0
  5 31  1  0
  7 32  1  0
  8 33  1  0
 10 34  1  0
 11 35  1  0
 13 36  1  0
 14 37  1  0
 15 38  1  0
 16 39  1  0
 17 40  1  0
 19 41  1  0
 22 42  1  0
M  END
$$$$
[H]c1c([H])c(N2C(=O)C(C([H])([H])[H])(C([H])([H])[H])N(c3c([H])c([H])c(C#N)c(Cl)c3C([H])([H])[H])C2=S)c([H])c(Cl)c1C#N
     RDKit          3D

 42 44  0  0  0  0  0  0  0  0999 V2000
   -2.8762   -0.5194   -1.5360 C   0  0  0  0  0  0  0  0  0  0  0  0
   -3.0219    0.5769   -0.5542 C   0  0  0  0  0  0  0  0  0  0  0  0
   -4.2038    1.3243   -0.5577 C   0  0  0  0  0  0  0  0  0  0  0  0
   -5.4500    0.9133   -1.7392 Cl  0  0  0  0  0  0  0  0  0  0  0  0
   -4.3851    2.3378    0.3232 C   0  0  0  0  0  0  0  0  0  0  0  0
   -3.3790    2.6188    1.2258 C   0  0  0  0  0  0  0  0  0  0  0  0
   -2.2203    1.8804    1.2237 C   0  0  0  0  0  0  0  0  0  0  0  0
   -2.0018    0.8264    0.3262 C   0  0  0  0  0  0  0  0  0  0  0  0
   -0.7871    0.0884    0.3572 N   0  0  0  0  0  0  0  0  0  0  0  0
    0.3881    0.4192   -0.3910 C   0  0  0  0  0  0  0  0  0  0  0  0
    0.4241    1.4881   -1.6193 S   0  0  0  0  0  0  0  0  0  0  0  0
    1.5040   -0.3220    0.1119 N   0  0  0  0  0  0  0  0  0  0  0  0
    1.0321   -1.1180    1.1757 C   0  0  0  0  0  0  0  0  0  0  0  0
    1.7309   -1.7216    2.0047 O   0  0  0  0  0  0  0  0  0  0  0  0
   -0.4455   -1.1000    1.1198 C   0  0  0  0  0  0  0  0  0  0  0  0
   -0.9503   -0.9946    2.5432 C   0  0  0  0  0  0  0  0  0  0  0  0
   -0.8530   -2.3874    0.4658 C   0  0  0  0  0  0  0  0  0  0  0  0
    2.8541   -0.3116   -0.3232 C   0  0  0  0  0  0  0  0  0  0  0  0
    3.3295   -1.2675   -1.1973 C   0  0  0  0  0  0  0  0  0  0  0  0
    4.6409   -1.2707   -1.6306 C   0  0  0  0  0  0  0  0  0  0  0  0
    5.5274   -0.3002   -1.1927 C   0  0  0  0  0  0  0  0  0  0  0  0
    6.8955   -0.2638   -1.6146 C   0  0  0  0  0  0  0  0  0  0  0  0
    8.0238   -0.2365   -1.9406 N   0  0  0  0  0  0  0  0  0  0  0  0
    5.0790    0.6611   -0.3234 C   0  0  0  0  0  0  0  0  0  0  0  0
    6.1556    1.9064    0.2584 Cl  0  0  0  0  0  0  0  0  0  0  0  0
    3.7498    0.6463    0.1021 C   0  0  0  0  0  0  0  0  0  0  0  0
   -5.6127    3.0736    0.2796 C   0  0  0  0  0  0  0  0  0  0  0  0
   -6.6155    3.6529    0.2499 N   0  0  0  0  0  0  0  0  0  0  0  0
   -1.8805   -0.6647   -1.9384 H   0  0  0  0  0  0  0  0  0  0  0  0
   -3.5152   -0.2440   -2.4308 H   0  0  0  0  0  0  0  0  0  0  0  0
   -3.3753   -1.4297   -1.1400 H   0  0  0  0  0  0  0  0  0  0  0  0
   -3.5404    3.4291    1.9208 H   0  0  0  0  0  0  0  0  0  0  0  0
   -1.4314    2.0925    1.9228 H   0  0  0  0  0  0  0  0  0  0  0  0
   -1.0814   -2.0112    2.9921 H   0  0  0  0  0  0  0  0  0  0  0  0
   -1.8781   -0.4190    2.5524 H   0  0  0  0  0  0  0  0  0  0  0  0
   -0.2147   -0.4699    3.1912 H   0  0  0  0  0  0  0  0  0  0  0  0
   -0.2689   -3.2370    0.9312 H   0  0  0  0  0  0  0  0  0  0  0  0
   -1.9107   -2.6423    0.5691 H   0  0  0  0  0  0  0  0  0  0  0  0
   -0.5249   -2.3747   -0.5869 H   0  0  0  0  0  0  0  0  0  0  0  0
    2.6579   -2.0244   -1.5453 H   0  0  0  0  0  0  0  0  0  0  0  0
    5.0493   -2.0030   -2.3151 H   0  0  0  0  0  0  0  0  0  0  0  0
    3.3814    1.3976    0.7876 H   0  0  0  0  0  0  0  0  0  0  0  0
  1  2  1  0
  2  3  2  0
  3  4  1  0
  3  5  1  0
  5  6  2  0
  6  7  1  0
  7  8  2  0
  8  9  1  0
  9 10  1  0
 10 11  2  0
 10 12  1  0
 12 13  1  0
 13 14  2  0
 13 15  1  0
 15 16  1  0
 15 17  1  0
 12 18  1  0
 18 19  2  0
 19 20  1  0
 20 21  2  0
 21 22  1  0
 22 23  3  0
 21 24  1  0
 24 25  1  0
 24 26  2  0
  5 27  1  0
 27 28  3  0
  8  2  1  0
 15  9  1  0
 26 18  1  0
  1 29  1  0
  1 30  1  0
  1 31  1  0
  6 32  1  0
  7 33  1  0
 16 34  1  0
 16 35  1  0
 16 36  1  0
 17 37  1  0
 17 38  1  0
 17 39  1  0
 19 40  1  0
 20 41  1  0
 26 42  1  0
M  END
$$$$
[H]c1c([H])c([H])c(C(F)(F)F)c(Oc2c([H])c(Cl)c(Cl)c([H])c2C(=O)N([H])C([H])([H])C2([H])N(C([H])([H])[H])C([H])([H])C([H])([H])C2([H])[H])c1[H]
     RDKit          3D

 48 50  0  0  0  0  0  0  0  0999 V2000
    4.8845   -0.7015    1.4840 C   0  0  0  0  0  0  0  0  0  0  0  0
    3.8700   -0.6054    0.3994 N   0  0  0  0  0  0  0  0  0  0  0  0
    4.5877   -0.6843   -0.8357 C   0  0  0  0  0  0  0  0  0  0  0  0
    4.1266   -1.9563   -1.5221 C   0  0  0  0  0  0  0  0  0  0  0  0
    2.7221   -2.0845   -0.9673 C   0  0  0  0  0  0  0  0  0  0  0  0
    2.9516   -1.6633    0.4793 C   0  0  0  0  0  0  0  0  0  0  0  0
    1.6851   -1.4958    1.2179 C   0  0  0  0  0  0  0  0  0  0  0  0
    0.7446   -0.5180    0.8109 N   0  0  0  0  0  0  0  0  0  0  0  0
    0.8470    0.8754    0.7737 C   0  0  0  0  0  0  0  0  0  0  0  0
    1.9721    1.3680    1.1861 O   0  0  0  0  0  0  0  0  0  0  0  0
   -0.1144    1.8683    0.3429 C   0  0  0  0  0  0  0  0  0  0  0  0
    0.2524    3.2010    0.4110 C   0  0  0  0  0  0  0  0  0  0  0  0
   -0.5723    4.2165    0.0311 C   0  0  0  0  0  0  0  0  0  0  0  0
   -0.0457    5.9147    0.1410 Cl  0  0  0  0  0  0  0  0  0  0  0  0
   -1.8203    3.9187   -0.4401 C   0  0  0  0  0  0  0  0  0  0  0  0
   -2.8634    5.2621   -0.9240 Cl  0  0  0  0  0  0  0  0  0  0  0  0
   -2.2553    2.6326   -0.5375 C   0  0  0  0  0  0  0  0  0  0  0  0
   -1.3811    1.6018   -0.1373 C   0  0  0  0  0  0  0  0  0  0  0  0
   -1.8113    0.3211   -0.2331 O   0  0  0  0  0  0  0  0  0  0  0  0
   -3.0286   -0.1826   -0.5236 C   0  0  0  0  0  0  0  0  0  0  0  0
   -3.2144   -0.6963   -1.8142 C   0  0  0  0  0  0  0  0  0  0  0  0
   -4.4026   -1.2313   -2.1934 C   0  0  0  0  0  0  0  0  0  0  0  0
   -5.4615   -1.2936   -1.3446 C   0  0  0  0  0  0  0  0  0  0  0  0
   -5.2882   -0.7960   -0.0830 C   0  0  0  0  0  0  0  0  0  0  0  0
   -4.0773   -0.2322    0.3610 C   0  0  0  0  0  0  0  0  0  0  0  0
   -4.0068    0.1983    1.7689 C   0  0  0  0  0  0  0  0  0  0  0  0
   -2.9373   -0.5106    2.3336 F   0  0  0  0  0  0  0  0  0  0  0  0
   -3.9954    1.4941    2.0756 F   0  0  0  0  0  0  0  0  0  0  0  0
   -5.1755   -0.3308    2.4228 F   0  0  0  0  0  0  0  0  0  0  0  0
    4.4836   -1.2283    2.3517 H   0  0  0  0  0  0  0  0  0  0  0  0
    5.0535    0.3580    1.8035 H   0  0  0  0  0  0  0  0  0  0  0  0
    5.8345   -1.0897    1.0961 H   0  0  0  0  0  0  0  0  0  0  0  0
    5.6865   -0.6515   -0.6931 H   0  0  0  0  0  0  0  0  0  0  0  0
    4.3436    0.1887   -1.4868 H   0  0  0  0  0  0  0  0  0  0  0  0
    4.1425   -1.8656   -2.6208 H   0  0  0  0  0  0  0  0  0  0  0  0
    4.7943   -2.7727   -1.1774 H   0  0  0  0  0  0  0  0  0  0  0  0
    2.4059   -3.1298   -1.0580 H   0  0  0  0  0  0  0  0  0  0  0  0
    2.0876   -1.3698   -1.5134 H   0  0  0  0  0  0  0  0  0  0  0  0
    3.4876   -2.5379    0.9376 H   0  0  0  0  0  0  0  0  0  0  0  0
    1.2004   -2.5220    1.2404 H   0  0  0  0  0  0  0  0  0  0  0  0
    1.9723   -1.3530    2.3014 H   0  0  0  0  0  0  0  0  0  0  0  0
   -0.1851   -0.9364    0.4830 H   0  0  0  0  0  0  0  0  0  0  0  0
    1.2392    3.5222    0.7787 H   0  0  0  0  0  0  0  0  0  0  0  0
   -3.2445    2.3725   -0.9096 H   0  0  0  0  0  0  0  0  0  0  0  0
   -2.3854   -0.6652   -2.5294 H   0  0  0  0  0  0  0  0  0  0  0  0
   -4.5421   -1.6342   -3.2114 H   0  0  0  0  0  0  0  0  0  0  0  0
   -6.4226   -1.7236   -1.6468 H   0  0  0  0  0  0  0  0  0  0  0  0
   -6.1444   -0.8519    0.5836 H   0  0  0  0  0  0  0  0  0  0  0  0
  1  2  1  0
  2  3  1  0
  3  4  1  0
  4  5  1  0
  5  6  1  0
  6  7  1  0
  7  8  1  0
  8  9  1  0
  9 10  2  0
  9 11  1  0
 11 12  2  0
 12 13  1  0
 13 14  1  0
 13 15  2  0
 15 16  1  0
 15 17  1  0
 17 18  2  0
 18 19  1  0
 19 20  1  0
 20 21  2  0
 21 22  1  0
 22 23  2  0
 23 24  1  0
 24 25  2  0
 25 26  1  0
 26 27  1  0
 26 28  1  0
 26 29  1  0
  6  2  1  0
 18 11  1  0
 25 20  1  0
  1 30  1  0
  1 31  1  0
  1 32  1  0
  3 33  1  0
  3 34  1  0
  4 35  1  0
  4 36  1  0
  5 37  1  0
  5 38  1  0
  6 39  1  0
  7 40  1  0
  7 41  1  0
  8 42  1  0
 12 43  1  0
 17 44  1  0
 21 45  1  0
 22 46  1  0
 23 47  1  0
 24 48  1  0
M  END
$$$$
[H]OC1(C(=O)N([H])C([H])([H])C([H])([H])OC([H])([H])[H])C([H])([H])C([H])([H])N(C(=O)c2c([H])c(-c3c([H])c([H])c([H])c([H])c3[H])nc3c([H])c([H])c([H])c([H])c23)C([H])([H])C1([H])[H]
     RDKit          3D

 59 62  0  0  0  0  0  0  0  0999 V2000
    7.6565   -0.5425    1.4975 C   0  0  0  0  0  0  0  0  0  0  0  0
    6.7075    0.2149    0.8164 O   0  0  0  0  0  0  0  0  0  0  0  0
    7.0035    0.3059   -0.5272 C   0  0  0  0  0  0  0  0  0  0  0  0
    6.0366    1.1042   -1.3479 C   0  0  0  0  0  0  0  0  0  0  0  0
    4.7056    0.6033   -1.3434 N   0  0  0  0  0  0  0  0  0  0  0  0
    3.8139    0.4666   -0.2783 C   0  0  0  0  0  0  0  0  0  0  0  0
    4.0226    0.7779    0.9187 O   0  0  0  0  0  0  0  0  0  0  0  0
    2.4326   -0.1094   -0.5147 C   0  0  0  0  0  0  0  0  0  0  0  0
    2.3009   -0.4200   -1.8677 O   0  0  0  0  0  0  0  0  0  0  0  0
    1.4540    0.9558   -0.0767 C   0  0  0  0  0  0  0  0  0  0  0  0
    0.0582    0.3695   -0.0971 C   0  0  0  0  0  0  0  0  0  0  0  0
    0.0683   -0.7920    0.7521 N   0  0  0  0  0  0  0  0  0  0  0  0
    1.3017   -1.2029    1.3615 C   0  0  0  0  0  0  0  0  0  0  0  0
    2.3383   -1.3721    0.2771 C   0  0  0  0  0  0  0  0  0  0  0  0
   -1.1286   -1.5061    0.9722 C   0  0  0  0  0  0  0  0  0  0  0  0
   -1.1655   -2.5290    1.7112 O   0  0  0  0  0  0  0  0  0  0  0  0
   -2.3523   -1.0528    0.3314 C   0  0  0  0  0  0  0  0  0  0  0  0
   -3.1586   -0.1245    0.9941 C   0  0  0  0  0  0  0  0  0  0  0  0
   -4.3311    0.3643    0.4679 C   0  0  0  0  0  0  0  0  0  0  0  0
   -4.6844   -0.1091   -0.7646 N   0  0  0  0  0  0  0  0  0  0  0  0
   -3.9312   -1.0012   -1.4266 C   0  0  0  0  0  0  0  0  0  0  0  0
   -4.2917   -1.4817   -2.6771 C   0  0  0  0  0  0  0  0  0  0  0  0
   -3.5472   -2.3965   -3.3861 C   0  0  0  0  0  0  0  0  0  0  0  0
   -2.3756   -2.8782   -2.8484 C   0  0  0  0  0  0  0  0  0  0  0  0
   -1.9846   -2.4158   -1.5935 C   0  0  0  0  0  0  0  0  0  0  0  0
   -2.7528   -1.4984   -0.9079 C   0  0  0  0  0  0  0  0  0  0  0  0
   -5.1847    1.3342    1.1471 C   0  0  0  0  0  0  0  0  0  0  0  0
   -6.3472    1.7617    0.5258 C   0  0  0  0  0  0  0  0  0  0  0  0
   -7.1742    2.6762    1.1405 C   0  0  0  0  0  0  0  0  0  0  0  0
   -6.8740    3.1909    2.3829 C   0  0  0  0  0  0  0  0  0  0  0  0
   -5.7263    2.7764    3.0091 C   0  0  0  0  0  0  0  0  0  0  0  0
   -4.9134    1.8630    2.3800 C   0  0  0  0  0  0  0  0  0  0  0  0
    8.6746   -0.1105    1.4192 H   0  0  0  0  0  0  0  0  0  0  0  0
    7.3094   -0.5786    2.5626 H   0  0  0  0  0  0  0  0  0  0  0  0
    7.6496   -1.5534    1.0279 H   0  0  0  0  0  0  0  0  0  0  0  0
    8.0215    0.7826   -0.6183 H   0  0  0  0  0  0  0  0  0  0  0  0
    7.1102   -0.7143   -0.9863 H   0  0  0  0  0  0  0  0  0  0  0  0
    6.4238    1.1487   -2.4129 H   0  0  0  0  0  0  0  0  0  0  0  0
    6.0633    2.1799   -1.0183 H   0  0  0  0  0  0  0  0  0  0  0  0
    4.3148    0.2763   -2.2987 H   0  0  0  0  0  0  0  0  0  0  0  0
    2.2307    0.4187   -2.4082 H   0  0  0  0  0  0  0  0  0  0  0  0
    1.7499    1.2953    0.9234 H   0  0  0  0  0  0  0  0  0  0  0  0
    1.5402    1.8046   -0.7606 H   0  0  0  0  0  0  0  0  0  0  0  0
   -0.1878    0.1173   -1.1287 H   0  0  0  0  0  0  0  0  0  0  0  0
   -0.6641    1.1466    0.2417 H   0  0  0  0  0  0  0  0  0  0  0  0
    1.6683   -0.4541    2.1151 H   0  0  0  0  0  0  0  0  0  0  0  0
    1.1705   -2.1679    1.9098 H   0  0  0  0  0  0  0  0  0  0  0  0
    3.2954   -1.6276    0.7983 H   0  0  0  0  0  0  0  0  0  0  0  0
    2.0474   -2.2603   -0.3112 H   0  0  0  0  0  0  0  0  0  0  0  0
   -2.8418    0.2223    1.9650 H   0  0  0  0  0  0  0  0  0  0  0  0
   -5.2086   -1.1067   -3.1013 H   0  0  0  0  0  0  0  0  0  0  0  0
   -3.8687   -2.7534   -4.3779 H   0  0  0  0  0  0  0  0  0  0  0  0
   -1.7910   -3.5949   -3.4021 H   0  0  0  0  0  0  0  0  0  0  0  0
   -1.0602   -2.7962   -1.1698 H   0  0  0  0  0  0  0  0  0  0  0  0
   -6.5950    1.3682   -0.4453 H   0  0  0  0  0  0  0  0  0  0  0  0
   -8.0850    3.0242    0.6763 H   0  0  0  0  0  0  0  0  0  0  0  0
   -7.4898    3.9065    2.9007 H   0  0  0  0  0  0  0  0  0  0  0  0
   -5.4365    3.1402    3.9783 H   0  0  0  0  0  0  0  0  0  0  0  0
   -4.0178    1.5536    2.8931 H   0  0  0  0  0  0  0  0  0  0  0  0
  1  2  1  0
  2  3  1  0
  3  4  1  0
  4  5  1  0
  5  6  1  0
  6  7  2  0
  6  8  1  0
  8  9  1  0
  8 10  1  0
 10 11  1  0
 11 12  1  0
 12 13  1  0
 13 14  1  0
 12 15  1  0
 15 16  2  0
 15 17  1  0
 17 18  2  0
 18 19  1  0
 19 20  2  0
 20 21  1  0
 21 22  2  0
 22 23  1  0
 23 24  2  0
 24 25  1  0
 25 26  2  0
 19 27  1  0
 27 28  2  0
 28 29  1  0
 29 30  2  0
 30 31  1  0
 31 32  2  0
 14  8  1  0
 26 17  1  0
 32 27  1  0
 26 21  1  0
  1 33  1  0
  1 34  1  0
  1 35  1  0
  3 36  1  0
  3 37  1  0
  4 38  1  0
  4 39  1  0
  5 40  1  0
  9 41  1  0
 10 42  1  0
 10 43  1  0
 11 44  1  0
 11 45  1  0
 13 46  1  0
 13 47  1  0
 14 48  1  0
 14 49  1  0
 18 50  1  0
 22 51  1  0
 23 52  1  0
 24 53  1  0
 25 54  1  0
 28 55  1  0
 29 56  1  0
 30 57  1  0
 31 58  1  0
 32 59  1  0
M  END
$$$$
[H]O[C@]1([H])[C@]([H])([C@]([H])(C([H])([H])[H])C([H])([H])C([H])([H])[H])O[C@@]1([H])n1c([H])nc2c(N([H])[H])nc([H])nc21
     RDKit          3D

 36 38  0  0  0  0  0  0  0  0999 V2000
   -4.8699    0.0475   -1.1549 C   0  0  0  0  0  0  0  0  0  0  0  0
   -3.3801   -0.2303   -1.1574 C   0  0  0  0  0  0  0  0  0  0  0  0
   -2.7562    0.7067   -0.1259 C   0  0  1  0  0  0  0  0  0  0  0  0
   -3.3730    0.3955    1.1974 C   0  0  0  0  0  0  0  0  0  0  0  0
   -1.2679    0.6463   -0.1597 C   0  0  2  0  0  0  0  0  0  0  0  0
   -0.6981   -0.5973    0.0989 O   0  0  0  0  0  0  0  0  0  0  0  0
    0.3197   -0.0774    0.8865 C   0  0  2  0  0  0  0  0  0  0  0  0
   -0.4895    1.2213    0.9404 C   0  0  2  0  0  0  0  0  0  0  0  0
   -1.0482    1.3702    2.1743 O   0  0  0  0  0  0  0  0  0  0  0  0
    1.5933    0.0771    0.2255 N   0  0  0  0  0  0  0  0  0  0  0  0
    1.9535    1.0248   -0.6584 C   0  0  0  0  0  0  0  0  0  0  0  0
    3.2270    0.8126   -1.0365 N   0  0  0  0  0  0  0  0  0  0  0  0
    3.6944   -0.2745   -0.3970 C   0  0  0  0  0  0  0  0  0  0  0  0
    4.9361   -0.9120   -0.4337 C   0  0  0  0  0  0  0  0  0  0  0  0
    5.9404   -0.3700   -1.2787 N   0  0  0  0  0  0  0  0  0  0  0  0
    5.1112   -1.9922    0.3249 N   0  0  0  0  0  0  0  0  0  0  0  0
    4.0959   -2.4437    1.1048 C   0  0  0  0  0  0  0  0  0  0  0  0
    2.8998   -1.8275    1.1384 N   0  0  0  0  0  0  0  0  0  0  0  0
    2.6619   -0.7236    0.3884 C   0  0  0  0  0  0  0  0  0  0  0  0
   -5.0845    1.0378   -0.6973 H   0  0  0  0  0  0  0  0  0  0  0  0
   -5.4325   -0.7153   -0.5861 H   0  0  0  0  0  0  0  0  0  0  0  0
   -5.2782    0.0881   -2.1856 H   0  0  0  0  0  0  0  0  0  0  0  0
   -2.9868   -0.0066   -2.1802 H   0  0  0  0  0  0  0  0  0  0  0  0
   -3.2524   -1.2871   -0.8754 H   0  0  0  0  0  0  0  0  0  0  0  0
   -3.0957    1.7256   -0.4116 H   0  0  0  0  0  0  0  0  0  0  0  0
   -3.4891    1.3047    1.8443 H   0  0  0  0  0  0  0  0  0  0  0  0
   -2.8694   -0.4282    1.7432 H   0  0  0  0  0  0  0  0  0  0  0  0
   -4.4112    0.0440    1.0113 H   0  0  0  0  0  0  0  0  0  0  0  0
   -0.8997    0.9949   -1.1533 H   0  0  0  0  0  0  0  0  0  0  0  0
    0.3581   -0.6275    1.8482 H   0  0  0  0  0  0  0  0  0  0  0  0
    0.1610    2.1062    0.7028 H   0  0  0  0  0  0  0  0  0  0  0  0
   -0.5980    0.8172    2.8438 H   0  0  0  0  0  0  0  0  0  0  0  0
    1.3482    1.8551   -1.0412 H   0  0  0  0  0  0  0  0  0  0  0  0
    6.4394   -1.0479   -1.9096 H   0  0  0  0  0  0  0  0  0  0  0  0
    6.2151    0.6173   -1.3229 H   0  0  0  0  0  0  0  0  0  0  0  0
    4.3255   -3.3319    1.6920 H   0  0  0  0  0  0  0  0  0  0  0  0
  1  2  1  0
  2  3  1  0
  3  4  1  0
  3  5  1  0
  5  6  1  0
  6  7  1  0
  7  8  1  0
  8  9  1  0
  7 10  1  0
 10 11  1  0
 11 12  2  0
 12 13  1  0
 13 14  2  0
 14 15  1  0
 14 16  1  0
 16 17  2  0
 17 18  1  0
 18 19  2  0
  8  5  1  0
 19 10  1  0
 19 13  1  0
  1 20  1  0
  1 21  1  0
  1 22  1  0
  2 23  1  0
  2 24  1  0
  3 25  1  6
  4 26  1  0
  4 27  1  0
  4 28  1  0
  5 29  1  6
  7 30  1  1
  8 31  1  6
  9 32  1  0
 11 33  1  0
 15 34  1  0
 15 35  1  0
 17 36  1  0
M  END
$$$$
[H]OC(=O)C([H])([H])c1nc(Cl)c(-c2c(-c3c([H])c([H])c(C([H])([H])N4C([H])([H])C([H])([H])OC([H])([H])C4([H])[H])c([H])c3[H])sc3c2C([H])([H])N(C(=O)C([H])([H])C#N)C([H])([H])C3([H])[H])s1
     RDKit          3D

 62 66  0  0  0  0  0  0  0  0999 V2000
   -2.2153    5.8123   -0.1537 O   0  0  0  0  0  0  0  0  0  0  0  0
   -3.1493    5.7141    0.8616 C   0  0  0  0  0  0  0  0  0  0  0  0
   -3.9610    6.6608    1.0185 O   0  0  0  0  0  0  0  0  0  0  0  0
   -3.1752    4.5360    1.7039 C   0  0  0  0  0  0  0  0  0  0  0  0
   -2.7266    3.3438    0.8873 C   0  0  0  0  0  0  0  0  0  0  0  0
   -2.1387    3.2803   -0.2660 N   0  0  0  0  0  0  0  0  0  0  0  0
   -1.7890    2.1260   -0.7735 C   0  0  0  0  0  0  0  0  0  0  0  0
   -1.0169    2.0242   -2.3753 Cl  0  0  0  0  0  0  0  0  0  0  0  0
   -2.0617    1.0101   -0.0539 C   0  0  0  0  0  0  0  0  0  0  0  0
   -2.8150    1.6747    1.3316 S   0  0  0  0  0  0  0  0  0  0  0  0
   -1.7833   -0.4296   -0.3402 C   0  0  0  0  0  0  0  0  0  0  0  0
   -2.7252   -1.3619   -0.6149 C   0  0  0  0  0  0  0  0  0  0  0  0
   -4.2295   -1.1321   -0.7264 C   0  0  0  0  0  0  0  0  0  0  0  0
   -4.9106   -2.2370   -0.1455 N   0  0  0  0  0  0  0  0  0  0  0  0
   -4.5487   -3.6365   -0.4310 C   0  0  0  0  0  0  0  0  0  0  0  0
   -3.2727   -3.7834   -1.1576 C   0  0  0  0  0  0  0  0  0  0  0  0
   -2.3404   -2.6364   -0.8395 C   0  0  0  0  0  0  0  0  0  0  0  0
   -0.6325   -2.5348   -0.6649 S   0  0  0  0  0  0  0  0  0  0  0  0
   -0.4909   -0.8613   -0.3120 C   0  0  0  0  0  0  0  0  0  0  0  0
    0.8032   -0.2213   -0.1083 C   0  0  0  0  0  0  0  0  0  0  0  0
    1.7660   -0.3776   -1.1235 C   0  0  0  0  0  0  0  0  0  0  0  0
    2.9939    0.1576   -1.0562 C   0  0  0  0  0  0  0  0  0  0  0  0
    3.3726    0.9151    0.0624 C   0  0  0  0  0  0  0  0  0  0  0  0
    4.7441    1.4554    0.0120 C   0  0  0  0  0  0  0  0  0  0  0  0
    5.6752    0.4393   -0.4432 N   0  0  0  0  0  0  0  0  0  0  0  0
    6.9852    0.9818   -0.7764 C   0  0  0  0  0  0  0  0  0  0  0  0
    7.7312   -0.1408   -1.5436 C   0  0  0  0  0  0  0  0  0  0  0  0
    7.8164   -1.2602   -0.7580 O   0  0  0  0  0  0  0  0  0  0  0  0
    7.1908   -1.1853    0.4673 C   0  0  0  0  0  0  0  0  0  0  0  0
    5.7793   -0.6718    0.4547 C   0  0  0  0  0  0  0  0  0  0  0  0
    2.4704    1.0812    1.0522 C   0  0  0  0  0  0  0  0  0  0  0  0
    1.1819    0.5209    0.9817 C   0  0  0  0  0  0  0  0  0  0  0  0
   -5.9909   -2.0390    0.7247 C   0  0  0  0  0  0  0  0  0  0  0  0
   -6.3320   -0.8184    0.9570 O   0  0  0  0  0  0  0  0  0  0  0  0
   -6.7692   -3.0791    1.4031 C   0  0  0  0  0  0  0  0  0  0  0  0
   -7.6624   -3.7119    0.4188 C   0  0  0  0  0  0  0  0  0  0  0  0
   -8.3815   -4.2065   -0.3570 N   0  0  0  0  0  0  0  0  0  0  0  0
   -2.3912    6.3369   -1.0059 H   0  0  0  0  0  0  0  0  0  0  0  0
   -2.6430    4.5673    2.6444 H   0  0  0  0  0  0  0  0  0  0  0  0
   -4.2866    4.3295    1.9152 H   0  0  0  0  0  0  0  0  0  0  0  0
   -4.5332   -0.1975   -0.2224 H   0  0  0  0  0  0  0  0  0  0  0  0
   -4.4411   -1.0820   -1.8204 H   0  0  0  0  0  0  0  0  0  0  0  0
   -4.5285   -4.1915    0.5362 H   0  0  0  0  0  0  0  0  0  0  0  0
   -5.3495   -4.1125   -1.0514 H   0  0  0  0  0  0  0  0  0  0  0  0
   -2.7229   -4.6788   -0.7237 H   0  0  0  0  0  0  0  0  0  0  0  0
   -3.3309   -3.9104   -2.2350 H   0  0  0  0  0  0  0  0  0  0  0  0
    1.4429   -0.9818   -1.9818 H   0  0  0  0  0  0  0  0  0  0  0  0
    3.6811   -0.0056   -1.8883 H   0  0  0  0  0  0  0  0  0  0  0  0
    5.0951    1.8039    1.0114 H   0  0  0  0  0  0  0  0  0  0  0  0
    4.8795    2.3201   -0.6629 H   0  0  0  0  0  0  0  0  0  0  0  0
    6.9162    1.8072   -1.5012 H   0  0  0  0  0  0  0  0  0  0  0  0
    7.5875    1.2355    0.0976 H   0  0  0  0  0  0  0  0  0  0  0  0
    7.1442   -0.4047   -2.4631 H   0  0  0  0  0  0  0  0  0  0  0  0
    8.6865    0.2861   -1.8722 H   0  0  0  0  0  0  0  0  0  0  0  0
    7.2494   -2.1926    0.9653 H   0  0  0  0  0  0  0  0  0  0  0  0
    7.8234   -0.4864    1.0842 H   0  0  0  0  0  0  0  0  0  0  0  0
    5.5524   -0.3057    1.4850 H   0  0  0  0  0  0  0  0  0  0  0  0
    5.0493   -1.4687    0.2533 H   0  0  0  0  0  0  0  0  0  0  0  0
    2.7665    1.6729    1.9265 H   0  0  0  0  0  0  0  0  0  0  0  0
    0.4802    0.6737    1.7947 H   0  0  0  0  0  0  0  0  0  0  0  0
   -7.4264   -2.5959    2.1741 H   0  0  0  0  0  0  0  0  0  0  0  0
   -6.0924   -3.8274    1.8919 H   0  0  0  0  0  0  0  0  0  0  0  0
  1  2  1  0
  2  3  2  0
  2  4  1  0
  4  5  1  0
  5  6  2  0
  6  7  1  0
  7  8  1  0
  7  9  2  0
  9 10  1  0
  9 11  1  0
 11 12  1  0
 12 13  1  0
 13 14  1  0
 14 15  1  0
 15 16  1  0
 16 17  1  0
 17 18  1  0
 18 19  1  0
 19 20  1  0
 20 21  2  0
 21 22  1  0
 22 23  2  0
 23 24  1  0
 24 25  1  0
 25 26  1  0
 26 27  1  0
 27 28  1  0
 28 29  1  0
 29 30  1  0
 23 31  1  0
 31 32  2  0
 14 33  1  0
 33 34  2  0
 33 35  1  0
 35 36  1  0
 36 37  3  0
 10  5  1  0
 19 11  2  0
 32 20  1  0
 17 12  2  0
 30 25  1  0
  1 38  1  0
  4 39  1  0
  4 40  1  0
 13 41  1  0
 13 42  1  0
 15 43  1  0
 15 44  1  0
 16 45  1  0
 16 46  1  0
 21 47  1  0
 22 48  1  0
 24 49  1  0
 24 50  1  0
 26 51  1  0
 26 52  1  0
 27 53  1  0
 27 54  1  0
 29 55  1  0
 29 56  1  0
 30 57  1  0
 30 58  1  0
 31 59  1  0
 32 60  1  0
 35 61  1  0
 35 62  1  0
M  END
$$$$
[H]c1c([H])c(C2=C(C([H])([H])N3C([H])([H])C([H])([H])N(c4c([H])c([H])c(C(=O)N([H])S(=O)(=O)c5c([H])c([H])c(N([H])C([H])([H])C6([H])C([H])([H])C([H])([H])OC([H])([H])C6([H])[H])c([N+](=O)[O-])c5[H])c(Oc5c(F)c([H])c6c(c5[H])c([H])c([H])n6[H])c4[H])C([H])([H])C3([H])[H])C([H])([H])C([H])([H])C(C([H])([H])[H])(C([H])([H])[H])C2([H])[H])c([H])c([H])c1Cl
     RDKit          3D

112119  0  0  0  0  0  0  0  0999 V2000
   -9.8861    0.1663    0.5645 C   0  0  0  0  0  0  0  0  0  0  0  0
   -9.9751    0.6989   -0.8255 C   0  0  0  0  0  0  0  0  0  0  0  0
  -11.4294    0.6459   -1.2859 C   0  0  0  0  0  0  0  0  0  0  0  0
   -9.1808   -0.1886   -1.7585 C   0  0  0  0  0  0  0  0  0  0  0  0
   -7.7112   -0.1637   -1.3971 C   0  0  0  0  0  0  0  0  0  0  0  0
   -7.2359    1.2082   -1.0268 C   0  0  0  0  0  0  0  0  0  0  0  0
   -5.7712    1.3158   -0.8097 C   0  0  0  0  0  0  0  0  0  0  0  0
   -5.1694    0.4553    0.0894 N   0  0  0  0  0  0  0  0  0  0  0  0
   -4.9508   -0.8988   -0.0544 C   0  0  0  0  0  0  0  0  0  0  0  0
   -3.4696   -1.2621   -0.1035 C   0  0  0  0  0  0  0  0  0  0  0  0
   -2.7864   -0.6188    0.9698 N   0  0  0  0  0  0  0  0  0  0  0  0
   -3.3761    0.3874    1.7847 C   0  0  0  0  0  0  0  0  0  0  0  0
   -4.6655    0.9729    1.3165 C   0  0  0  0  0  0  0  0  0  0  0  0
   -1.4236   -1.0429    1.1985 C   0  0  0  0  0  0  0  0  0  0  0  0
   -0.7236   -0.7304    2.3344 C   0  0  0  0  0  0  0  0  0  0  0  0
    0.5682   -1.1313    2.5364 C   0  0  0  0  0  0  0  0  0  0  0  0
    1.2484   -1.8981    1.5640 C   0  0  0  0  0  0  0  0  0  0  0  0
    2.6679   -2.1048    1.7224 C   0  0  0  0  0  0  0  0  0  0  0  0
    3.1080   -1.8885    2.9330 O   0  0  0  0  0  0  0  0  0  0  0  0
    3.5896   -2.5060    0.7839 N   0  0  0  0  0  0  0  0  0  0  0  0
    5.2569   -2.7505    1.3070 S   0  0  0  0  0  0  0  0  0  0  0  0
    5.3439   -2.7022    2.7803 O   0  0  0  0  0  0  0  0  0  0  0  0
    5.6744   -4.0908    0.7444 O   0  0  0  0  0  0  0  0  0  0  0  0
    6.2092   -1.5166    0.5345 C   0  0  0  0  0  0  0  0  0  0  0  0
    6.4409   -0.3106    1.1708 C   0  0  0  0  0  0  0  0  0  0  0  0
    7.2196    0.6523    0.5791 C   0  0  0  0  0  0  0  0  0  0  0  0
    7.8148    0.4701   -0.6849 C   0  0  0  0  0  0  0  0  0  0  0  0
    8.6482    1.5081   -1.1689 N   0  0  0  0  0  0  0  0  0  0  0  0
    8.8088    2.7488   -0.4392 C   0  0  0  0  0  0  0  0  0  0  0  0
    9.8639    3.6479   -1.1008 C   0  0  0  0  0  0  0  0  0  0  0  0
   11.1834    2.9110   -1.1194 C   0  0  0  0  0  0  0  0  0  0  0  0
   12.3596    3.7312   -0.7127 C   0  0  0  0  0  0  0  0  0  0  0  0
   12.1915    4.4940    0.4230 O   0  0  0  0  0  0  0  0  0  0  0  0
   10.9124    4.4711    0.9457 C   0  0  0  0  0  0  0  0  0  0  0  0
    9.9722    4.8558   -0.1684 C   0  0  0  0  0  0  0  0  0  0  0  0
    7.5876   -0.7213   -1.3245 C   0  0  0  0  0  0  0  0  0  0  0  0
    6.7886   -1.6823   -0.6908 C   0  0  0  0  0  0  0  0  0  0  0  0
    8.1159   -1.0339   -2.5787 N   0  0  0  0  0  0  0  0  0  0  0  0
    8.3808   -0.1080   -3.5211 O   0  0  0  0  0  0  0  0  0  0  0  0
    8.3637   -2.2405   -2.8487 O   0  0  0  0  0  0  0  0  0  0  0  0
    0.5620   -2.2206    0.4364 C   0  0  0  0  0  0  0  0  0  0  0  0
    1.0975   -2.9952   -0.6093 O   0  0  0  0  0  0  0  0  0  0  0  0
    1.2721   -4.3834   -0.3847 C   0  0  0  0  0  0  0  0  0  0  0  0
    0.9190   -5.0201    0.7733 C   0  0  0  0  0  0  0  0  0  0  0  0
    1.1093   -6.3747    0.9477 C   0  0  0  0  0  0  0  0  0  0  0  0
    0.8487   -7.2341    1.9939 C   0  0  0  0  0  0  0  0  0  0  0  0
    1.2491   -8.4886    1.6172 C   0  0  0  0  0  0  0  0  0  0  0  0
    1.7344   -8.3965    0.3882 N   0  0  0  0  0  0  0  0  0  0  0  0
    1.6744   -7.1494   -0.0624 C   0  0  0  0  0  0  0  0  0  0  0  0
    2.0307   -6.5148   -1.2279 C   0  0  0  0  0  0  0  0  0  0  0  0
    1.8297   -5.1451   -1.3831 C   0  0  0  0  0  0  0  0  0  0  0  0
    2.1830   -4.5162   -2.5361 F   0  0  0  0  0  0  0  0  0  0  0  0
   -0.7460   -1.7909    0.2696 C   0  0  0  0  0  0  0  0  0  0  0  0
   -8.0222    2.2368   -0.8475 C   0  0  0  0  0  0  0  0  0  0  0  0
   -9.4977    2.0826   -1.0029 C   0  0  0  0  0  0  0  0  0  0  0  0
   -7.6029    3.6152   -0.5747 C   0  0  0  0  0  0  0  0  0  0  0  0
   -8.2232    4.2448    0.4834 C   0  0  0  0  0  0  0  0  0  0  0  0
   -7.9840    5.5586    0.8220 C   0  0  0  0  0  0  0  0  0  0  0  0
   -7.0629    6.2230    0.0178 C   0  0  0  0  0  0  0  0  0  0  0  0
   -6.7256    7.8979    0.4083 Cl  0  0  0  0  0  0  0  0  0  0  0  0
   -6.4302    5.6247   -1.0404 C   0  0  0  0  0  0  0  0  0  0  0  0
   -6.7098    4.3125   -1.3294 C   0  0  0  0  0  0  0  0  0  0  0  0
   -9.3712   -0.8308    0.6123 H   0  0  0  0  0  0  0  0  0  0  0  0
   -9.4062    0.8681    1.2794 H   0  0  0  0  0  0  0  0  0  0  0  0
  -10.9068   -0.0219    0.9614 H   0  0  0  0  0  0  0  0  0  0  0  0
  -11.9478   -0.2499   -0.9468 H   0  0  0  0  0  0  0  0  0  0  0  0
  -11.9330    1.5531   -0.8943 H   0  0  0  0  0  0  0  0  0  0  0  0
  -11.4628    0.7339   -2.4085 H   0  0  0  0  0  0  0  0  0  0  0  0
   -9.2834    0.2247   -2.7794 H   0  0  0  0  0  0  0  0  0  0  0  0
   -9.5558   -1.2278   -1.7864 H   0  0  0  0  0  0  0  0  0  0  0  0
   -7.0803   -0.5140   -2.2153 H   0  0  0  0  0  0  0  0  0  0  0  0
   -7.6036   -0.7794   -0.4980 H   0  0  0  0  0  0  0  0  0  0  0  0
   -5.5447    2.3695   -0.4162 H   0  0  0  0  0  0  0  0  0  0  0  0
   -5.2962    1.3482   -1.8325 H   0  0  0  0  0  0  0  0  0  0  0  0
   -5.3255   -1.4180    0.8842 H   0  0  0  0  0  0  0  0  0  0  0  0
   -5.4420   -1.4565   -0.8745 H   0  0  0  0  0  0  0  0  0  0  0  0
   -3.3950   -2.3834    0.0184 H   0  0  0  0  0  0  0  0  0  0  0  0
   -3.0507   -1.0698   -1.1139 H   0  0  0  0  0  0  0  0  0  0  0  0
   -2.6655    1.2518    1.9620 H   0  0  0  0  0  0  0  0  0  0  0  0
   -3.4612   -0.0629    2.8223 H   0  0  0  0  0  0  0  0  0  0  0  0
   -5.4406    0.6943    2.1009 H   0  0  0  0  0  0  0  0  0  0  0  0
   -4.6697    2.0927    1.3525 H   0  0  0  0  0  0  0  0  0  0  0  0
   -1.2286   -0.1391    3.0964 H   0  0  0  0  0  0  0  0  0  0  0  0
    1.1215   -0.8880    3.4243 H   0  0  0  0  0  0  0  0  0  0  0  0
    3.4741   -2.6559   -0.2278 H   0  0  0  0  0  0  0  0  0  0  0  0
    5.9910   -0.1392    2.1563 H   0  0  0  0  0  0  0  0  0  0  0  0
    7.3909    1.5945    1.0898 H   0  0  0  0  0  0  0  0  0  0  0  0
    9.1742    1.4216   -2.0405 H   0  0  0  0  0  0  0  0  0  0  0  0
    9.1305    2.4781    0.5851 H   0  0  0  0  0  0  0  0  0  0  0  0
    7.8875    3.3278   -0.3724 H   0  0  0  0  0  0  0  0  0  0  0  0
    9.5283    3.9316   -2.1093 H   0  0  0  0  0  0  0  0  0  0  0  0
   11.1050    2.0617   -0.4120 H   0  0  0  0  0  0  0  0  0  0  0  0
   11.3533    2.5764   -2.1716 H   0  0  0  0  0  0  0  0  0  0  0  0
   13.1825    2.9934   -0.4672 H   0  0  0  0  0  0  0  0  0  0  0  0
   12.8005    4.3365   -1.5505 H   0  0  0  0  0  0  0  0  0  0  0  0
   10.6727    3.4921    1.4102 H   0  0  0  0  0  0  0  0  0  0  0  0
   10.8867    5.2222    1.7800 H   0  0  0  0  0  0  0  0  0  0  0  0
   10.3894    5.6820   -0.7427 H   0  0  0  0  0  0  0  0  0  0  0  0
    8.9739    5.0977    0.2801 H   0  0  0  0  0  0  0  0  0  0  0  0
    6.6135   -2.6242   -1.2020 H   0  0  0  0  0  0  0  0  0  0  0  0
    0.4819   -4.4551    1.5773 H   0  0  0  0  0  0  0  0  0  0  0  0
    0.4056   -6.9805    2.9525 H   0  0  0  0  0  0  0  0  0  0  0  0
    1.1979   -9.4030    2.1798 H   0  0  0  0  0  0  0  0  0  0  0  0
    2.1343   -9.1775   -0.2127 H   0  0  0  0  0  0  0  0  0  0  0  0
    2.4763   -7.0866   -2.0447 H   0  0  0  0  0  0  0  0  0  0  0  0
   -1.2771   -2.0547   -0.6475 H   0  0  0  0  0  0  0  0  0  0  0  0
  -10.0476    2.8293   -0.3874 H   0  0  0  0  0  0  0  0  0  0  0  0
   -9.7077    2.3754   -2.0697 H   0  0  0  0  0  0  0  0  0  0  0  0
   -8.9505    3.6985    1.1041 H   0  0  0  0  0  0  0  0  0  0  0  0
   -8.4742    6.0647    1.6535 H   0  0  0  0  0  0  0  0  0  0  0  0
   -5.7059    6.1628   -1.6648 H   0  0  0  0  0  0  0  0  0  0  0  0
   -6.2069    3.8186   -2.1874 H   0  0  0  0  0  0  0  0  0  0  0  0
  1  2  1  0
  2  3  1  0
  2  4  1  0
  4  5  1  0
  5  6  1  0
  6  7  1  0
  7  8  1  0
  8  9  1  0
  9 10  1  0
 10 11  1  0
 11 12  1  0
 12 13  1  0
 11 14  1  0
 14 15  2  0
 15 16  1  0
 16 17  2  0
 17 18  1  0
 18 19  2  0
 18 20  1  0
 20 21  1  0
 21 22  2  0
 21 23  2  0
 21 24  1  0
 24 25  2  0
 25 26  1  0
 26 27  2  0
 27 28  1  0
 28 29  1  0
 29 30  1  0
 30 31  1  0
 31 32  1  0
 32 33  1  0
 33 34  1  0
 34 35  1  0
 27 36  1  0
 36 37  2  0
 36 38  1  0
 38 39  1  0
 38 40  2  0
 17 41  1  0
 41 42  1  0
 42 43  1  0
 43 44  2  0
 44 45  1  0
 45 46  1  0
 46 47  2  0
 47 48  1  0
 48 49  1  0
 49 50  1  0
 50 51  2  0
 51 52  1  0
 41 53  2  0
  6 54  2  0
 54 55  1  0
 54 56  1  0
 56 57  2  0
 57 58  1  0
 58 59  2  0
 59 60  1  0
 59 61  1  0
 61 62  2  0
 55  2  1  0
 62 56  1  0
 13  8  1  0
 53 14  1  0
 37 24  1  0
 51 43  1  0
 35 30  1  0
 49 45  2  0
  1 63  1  0
  1 64  1  0
  1 65  1  0
  3 66  1  0
  3 67  1  0
  3 68  1  0
  4 69  1  0
  4 70  1  0
  5 71  1  0
  5 72  1  0
  7 73  1  0
  7 74  1  0
  9 75  1  0
  9 76  1  0
 10 77  1  0
 10 78  1  0
 12 79  1  0
 12 80  1  0
 13 81  1  0
 13 82  1  0
 15 83  1  0
 16 84  1  0
 20 85  1  0
 25 86  1  0
 26 87  1  0
 28 88  1  0
 29 89  1  0
 29 90  1  0
 30 91  1  0
 31 92  1  0
 31 93  1  0
 32 94  1  0
 32 95  1  0
 34 96  1  0
 34 97  1  0
 35 98  1  0
 35 99  1  0
 37100  1  0
 44101  1  0
 46102  1  0
 47103  1  0
 48104  1  0
 50105  1  0
 53106  1  0
 55107  1  0
 55108  1  0
 57109  1  0
 58110  1  0
 61111  1  0
 62112  1  0
M  CHG  2  38   1  39  -1
M  END
$$$$
[H]c1c([H])c(N([H])C(=O)[C@@]2([H])N(C([H])([H])C([H])([H])C3(c4c([H])c([H])c(OC([H])([H])C([H])([H])C([H])([H])OC([H])([H])[H])c(C([H])([H])[H])c4[H])C([H])([H])C([H])([H])C([H])([H])C(C([H])([H])[H])(C([H])([H])[H])C3([H])[H])C([H])([H])C([H])([H])C2([H])[H])c([H])c(OC([H])([H])[H])c1OC([H])([H])[H]
     RDKit          3D

 91 94  0  0  0  0  0  0  0  0999 V2000
   11.2159    0.8803   -1.9240 C   0  0  0  0  0  0  0  0  0  0  0  0
   10.3720    1.0106   -0.8510 O   0  0  0  0  0  0  0  0  0  0  0  0
    9.0283    0.8874   -1.1203 C   0  0  0  0  0  0  0  0  0  0  0  0
    8.6761   -0.4583   -1.6889 C   0  0  0  0  0  0  0  0  0  0  0  0
    7.1556   -0.4733   -1.9382 C   0  0  0  0  0  0  0  0  0  0  0  0
    6.4942   -0.2525   -0.7466 O   0  0  0  0  0  0  0  0  0  0  0  0
    5.1515   -0.1638   -0.4832 C   0  0  0  0  0  0  0  0  0  0  0  0
    4.1620   -0.2927   -1.4384 C   0  0  0  0  0  0  0  0  0  0  0  0
    2.8152   -0.1828   -1.0753 C   0  0  0  0  0  0  0  0  0  0  0  0
    2.4483    0.0533    0.2237 C   0  0  0  0  0  0  0  0  0  0  0  0
    3.4075    0.1849    1.1900 C   0  0  0  0  0  0  0  0  0  0  0  0
    4.7325    0.0740    0.8223 C   0  0  0  0  0  0  0  0  0  0  0  0
    5.7729    0.1993    1.8625 C   0  0  0  0  0  0  0  0  0  0  0  0
    0.9856    0.2046    0.5382 C   0  0  0  0  0  0  0  0  0  0  0  0
    0.6774    1.5684   -0.0557 C   0  0  0  0  0  0  0  0  0  0  0  0
   -0.6205    2.1443    0.0518 C   0  0  0  0  0  0  0  0  0  0  0  0
   -1.8283    1.6169   -0.4583 N   0  0  0  0  0  0  0  0  0  0  0  0
   -1.9638    1.5786   -1.8817 C   0  0  0  0  0  0  0  0  0  0  0  0
   -2.1996    3.0010   -2.3317 C   0  0  0  0  0  0  0  0  0  0  0  0
   -3.0465    3.5321   -1.2062 C   0  0  0  0  0  0  0  0  0  0  0  0
   -2.9163    2.5144   -0.0876 C   0  0  1  0  0  0  0  0  0  0  0  0
   -4.1866    1.9012    0.2681 C   0  0  0  0  0  0  0  0  0  0  0  0
   -5.0723    2.7622    0.6731 O   0  0  0  0  0  0  0  0  0  0  0  0
   -4.5622    0.5651    0.2325 N   0  0  0  0  0  0  0  0  0  0  0  0
   -5.8634    0.1692    0.6511 C   0  0  0  0  0  0  0  0  0  0  0  0
   -6.4516    0.7414    1.7664 C   0  0  0  0  0  0  0  0  0  0  0  0
   -7.7348    0.4162    2.1826 C   0  0  0  0  0  0  0  0  0  0  0  0
   -8.4832   -0.4894    1.5083 C   0  0  0  0  0  0  0  0  0  0  0  0
   -9.7684   -0.8402    1.8922 O   0  0  0  0  0  0  0  0  0  0  0  0
  -10.3733   -0.2564    3.0231 C   0  0  0  0  0  0  0  0  0  0  0  0
   -7.9202   -1.0914    0.3745 C   0  0  0  0  0  0  0  0  0  0  0  0
   -8.7027   -2.0103   -0.2934 O   0  0  0  0  0  0  0  0  0  0  0  0
   -8.3435   -2.7176   -1.4364 C   0  0  0  0  0  0  0  0  0  0  0  0
   -6.6361   -0.7533   -0.0262 C   0  0  0  0  0  0  0  0  0  0  0  0
    0.7414    0.1861    2.0195 C   0  0  0  0  0  0  0  0  0  0  0  0
    0.9567   -1.1278    2.6627 C   0  0  0  0  0  0  0  0  0  0  0  0
    1.1551   -2.3048    1.7773 C   0  0  0  0  0  0  0  0  0  0  0  0
    0.4095   -2.2460    0.4827 C   0  0  0  0  0  0  0  0  0  0  0  0
    1.1625   -3.0894   -0.5215 C   0  0  0  0  0  0  0  0  0  0  0  0
   -0.9481   -2.9542    0.6684 C   0  0  0  0  0  0  0  0  0  0  0  0
    0.1897   -0.8877   -0.0887 C   0  0  0  0  0  0  0  0  0  0  0  0
   11.1735   -0.0836   -2.4473 H   0  0  0  0  0  0  0  0  0  0  0  0
   12.2843    0.9961   -1.5702 H   0  0  0  0  0  0  0  0  0  0  0  0
   11.0930    1.6979   -2.6874 H   0  0  0  0  0  0  0  0  0  0  0  0
    8.4941    1.0585   -0.1379 H   0  0  0  0  0  0  0  0  0  0  0  0
    8.6820    1.7231   -1.7839 H   0  0  0  0  0  0  0  0  0  0  0  0
    9.2262   -0.5924   -2.6230 H   0  0  0  0  0  0  0  0  0  0  0  0
    8.9885   -1.2292   -0.9762 H   0  0  0  0  0  0  0  0  0  0  0  0
    6.9964    0.4282   -2.6003 H   0  0  0  0  0  0  0  0  0  0  0  0
    6.8552   -1.3431   -2.5253 H   0  0  0  0  0  0  0  0  0  0  0  0
    4.4611   -0.4843   -2.4678 H   0  0  0  0  0  0  0  0  0  0  0  0
    2.1151   -0.2943   -1.8873 H   0  0  0  0  0  0  0  0  0  0  0  0
    3.1588    0.3813    2.2447 H   0  0  0  0  0  0  0  0  0  0  0  0
    6.7860    0.0177    1.4542 H   0  0  0  0  0  0  0  0  0  0  0  0
    5.6320   -0.6261    2.6243 H   0  0  0  0  0  0  0  0  0  0  0  0
    5.7195    1.1239    2.4305 H   0  0  0  0  0  0  0  0  0  0  0  0
    1.1000    1.4958   -1.1116 H   0  0  0  0  0  0  0  0  0  0  0  0
    1.4769    2.2255    0.4280 H   0  0  0  0  0  0  0  0  0  0  0  0
   -0.5786    3.2099   -0.3697 H   0  0  0  0  0  0  0  0  0  0  0  0
   -0.8668    2.3802    1.1430 H   0  0  0  0  0  0  0  0  0  0  0  0
   -1.2175    1.0260   -2.4410 H   0  0  0  0  0  0  0  0  0  0  0  0
   -2.9509    1.0663   -2.0877 H   0  0  0  0  0  0  0  0  0  0  0  0
   -2.8041    3.0328   -3.2778 H   0  0  0  0  0  0  0  0  0  0  0  0
   -1.2882    3.5697   -2.4983 H   0  0  0  0  0  0  0  0  0  0  0  0
   -2.7242    4.5439   -0.9206 H   0  0  0  0  0  0  0  0  0  0  0  0
   -4.1315    3.5640   -1.4798 H   0  0  0  0  0  0  0  0  0  0  0  0
   -2.5296    3.1226    0.7982 H   0  0  0  0  0  0  0  0  0  0  0  0
   -3.9248   -0.1906   -0.0974 H   0  0  0  0  0  0  0  0  0  0  0  0
   -5.8961    1.4502    2.3578 H   0  0  0  0  0  0  0  0  0  0  0  0
   -8.1054    0.9262    3.0771 H   0  0  0  0  0  0  0  0  0  0  0  0
  -10.1060   -0.8019    3.9617 H   0  0  0  0  0  0  0  0  0  0  0  0
  -10.1069    0.8398    3.0833 H   0  0  0  0  0  0  0  0  0  0  0  0
  -11.4902   -0.3011    2.8640 H   0  0  0  0  0  0  0  0  0  0  0  0
   -9.2848   -2.9462   -2.0231 H   0  0  0  0  0  0  0  0  0  0  0  0
   -7.8777   -3.6918   -1.1526 H   0  0  0  0  0  0  0  0  0  0  0  0
   -7.6903   -2.1282   -2.1041 H   0  0  0  0  0  0  0  0  0  0  0  0
   -6.2210   -1.2441   -0.9212 H   0  0  0  0  0  0  0  0  0  0  0  0
    1.2633    1.0312    2.5291 H   0  0  0  0  0  0  0  0  0  0  0  0
   -0.3567    0.4513    2.1699 H   0  0  0  0  0  0  0  0  0  0  0  0
    1.8106   -1.1505    3.4109 H   0  0  0  0  0  0  0  0  0  0  0  0
    0.0771   -1.3501    3.3578 H   0  0  0  0  0  0  0  0  0  0  0  0
    0.7433   -3.2087    2.3372 H   0  0  0  0  0  0  0  0  0  0  0  0
    2.2117   -2.6087    1.6074 H   0  0  0  0  0  0  0  0  0  0  0  0
    2.2471   -3.1545   -0.3103 H   0  0  0  0  0  0  0  0  0  0  0  0
    0.7623   -4.1278   -0.5689 H   0  0  0  0  0  0  0  0  0  0  0  0
    1.0677   -2.7025   -1.5730 H   0  0  0  0  0  0  0  0  0  0  0  0
   -0.8414   -4.0443    0.6109 H   0  0  0  0  0  0  0  0  0  0  0  0
   -1.3159   -2.6041    1.6635 H   0  0  0  0  0  0  0  0  0  0  0  0
   -1.6130   -2.5132   -0.1012 H   0  0  0  0  0  0  0  0  0  0  0  0
    0.3090   -0.8967   -1.2053 H   0  0  0  0  0  0  0  0  0  0  0  0
   -0.9017   -0.6437    0.0752 H   0  0  0  0  0  0  0  0  0  0  0  0
  1  2  1  0
  2  3  1  0
  3  4  1  0
  4  5  1  0
  5  6  1  0
  6  7  1  0
  7  8  2  0
  8  9  1  0
  9 10  2  0
 10 11  1  0
 11 12  2  0
 12 13  1  0
 10 14  1  0
 14 15  1  0
 15 16  1  0
 16 17  1  0
 17 18  1  0
 18 19  1  0
 19 20  1  0
 20 21  1  0
 21 22  1  0
 22 23  2  0
 22 24  1  0
 24 25  1  0
 25 26  2  0
 26 27  1  0
 27 28  2  0
 28 29  1  0
 29 30  1  0
 28 31  1  0
 31 32  1  0
 32 33  1  0
 31 34  2  0
 14 35  1  0
 35 36  1  0
 36 37  1  0
 37 38  1  0
 38 39  1  0
 38 40  1  0
 38 41  1  0
 12  7  1  0
 41 14  1  0
 21 17  1  0
 34 25  1  0
  1 42  1  0
  1 43  1  0
  1 44  1  0
  3 45  1  0
  3 46  1  0
  4 47  1  0
  4 48  1  0
  5 49  1  0
  5 50  1  0
  8 51  1  0
  9 52  1  0
 11 53  1  0
 13 54  1  0
 13 55  1  0
 13 56  1  0
 15 57  1  0
 15 58  1  0
 16 59  1  0
 16 60  1  0
 18 61  1  0
 18 62  1  0
 19 63  1  0
 19 64  1  0
 20 65  1  0
 20 66  1  0
 21 67  1  1
 24 68  1  0
 26 69  1  0
 27 70  1  0
 30 71  1  0
 30 72  1  0
 30 73  1  0
 33 74  1  0
 33 75  1  0
 33 76  1  0
 34 77  1  0
 35 78  1  0
 35 79  1  0
 36 80  1  0
 36 81  1  0
 37 82  1  0
 37 83  1  0
 39 84  1  0
 39 85  1  0
 39 86  1  0
 40 87  1  0
 40 88  1  0
 40 89  1  0
 41 90  1  0
 41 91  1  0
M  END
$$$$
[H]c1c([H])c(C#N)c([H])c(C([H])([H])n2nnc(C(=O)OC(C([H])([H])[H])(C([H])([H])[H])C([H])([H])[H])c2-c2c([H])c([H])c(C([H])([H])[H])c([H])c2[H])c1[H]
     RDKit          3D

 50 52  0  0  0  0  0  0  0  0999 V2000
   -0.1737    5.1072   -1.0641 C   0  0  0  0  0  0  0  0  0  0  0  0
   -0.0041    3.6274   -1.0337 C   0  0  0  0  0  0  0  0  0  0  0  0
   -0.3710    2.9152    0.0776 C   0  0  0  0  0  0  0  0  0  0  0  0
   -0.2257    1.5388    0.1384 C   0  0  0  0  0  0  0  0  0  0  0  0
    0.2941    0.8257   -0.9199 C   0  0  0  0  0  0  0  0  0  0  0  0
    0.6701    1.5406   -2.0564 C   0  0  0  0  0  0  0  0  0  0  0  0
    0.5165    2.9191   -2.0933 C   0  0  0  0  0  0  0  0  0  0  0  0
    0.3381   -0.6303   -0.9018 C   0  0  0  0  0  0  0  0  0  0  0  0
   -0.6362   -1.4509   -0.3833 C   0  0  0  0  0  0  0  0  0  0  0  0
   -0.0638   -2.7132   -0.4199 N   0  0  0  0  0  0  0  0  0  0  0  0
    1.1292   -2.6180   -0.9190 N   0  0  0  0  0  0  0  0  0  0  0  0
    1.4204   -1.3489   -1.2311 N   0  0  0  0  0  0  0  0  0  0  0  0
    2.7128   -0.9784   -1.7489 C   0  0  0  0  0  0  0  0  0  0  0  0
    3.6423   -0.7593   -0.6026 C   0  0  0  0  0  0  0  0  0  0  0  0
    4.3056   -1.8474   -0.0825 C   0  0  0  0  0  0  0  0  0  0  0  0
    5.1886   -1.7378    0.9757 C   0  0  0  0  0  0  0  0  0  0  0  0
    5.4152   -0.4957    1.5323 C   0  0  0  0  0  0  0  0  0  0  0  0
    4.7578    0.5980    1.0205 C   0  0  0  0  0  0  0  0  0  0  0  0
    3.8726    0.4665   -0.0457 C   0  0  0  0  0  0  0  0  0  0  0  0
    4.9907    1.8870    1.5954 C   0  0  0  0  0  0  0  0  0  0  0  0
    5.1967    2.9254    2.0684 N   0  0  0  0  0  0  0  0  0  0  0  0
   -2.0143   -1.2274    0.0127 C   0  0  0  0  0  0  0  0  0  0  0  0
   -2.5938   -0.1524   -0.1522 O   0  0  0  0  0  0  0  0  0  0  0  0
   -2.7680   -2.2401    0.6135 O   0  0  0  0  0  0  0  0  0  0  0  0
   -4.1162   -2.0215    1.0019 C   0  0  0  0  0  0  0  0  0  0  0  0
   -4.2386   -0.9101    2.0074 C   0  0  0  0  0  0  0  0  0  0  0  0
   -4.6613   -3.2927    1.5705 C   0  0  0  0  0  0  0  0  0  0  0  0
   -4.9545   -1.6566   -0.2036 C   0  0  0  0  0  0  0  0  0  0  0  0
    0.7959    5.6162   -0.8059 H   0  0  0  0  0  0  0  0  0  0  0  0
   -0.3843    5.3904   -2.1304 H   0  0  0  0  0  0  0  0  0  0  0  0
   -0.9809    5.4326   -0.3849 H   0  0  0  0  0  0  0  0  0  0  0  0
   -0.7872    3.4720    0.9258 H   0  0  0  0  0  0  0  0  0  0  0  0
   -0.5114    1.0818    1.0688 H   0  0  0  0  0  0  0  0  0  0  0  0
    1.0506    1.0929   -2.9479 H   0  0  0  0  0  0  0  0  0  0  0  0
    0.8107    3.4827   -2.9805 H   0  0  0  0  0  0  0  0  0  0  0  0
    2.7585   -0.0989   -2.3584 H   0  0  0  0  0  0  0  0  0  0  0  0
    3.1252   -1.8157   -2.4060 H   0  0  0  0  0  0  0  0  0  0  0  0
    4.1477   -2.8399   -0.5002 H   0  0  0  0  0  0  0  0  0  0  0  0
    5.7046   -2.5986    1.3768 H   0  0  0  0  0  0  0  0  0  0  0  0
    6.1129   -0.4141    2.3674 H   0  0  0  0  0  0  0  0  0  0  0  0
    3.3539    1.3216   -0.4566 H   0  0  0  0  0  0  0  0  0  0  0  0
   -5.1577   -1.1182    2.6086 H   0  0  0  0  0  0  0  0  0  0  0  0
   -3.4061   -0.8611    2.7224 H   0  0  0  0  0  0  0  0  0  0  0  0
   -4.4235    0.0518    1.4894 H   0  0  0  0  0  0  0  0  0  0  0  0
   -4.1486   -4.1678    1.1252 H   0  0  0  0  0  0  0  0  0  0  0  0
   -4.4404   -3.3055    2.6564 H   0  0  0  0  0  0  0  0  0  0  0  0
   -5.7395   -3.4210    1.3578 H   0  0  0  0  0  0  0  0  0  0  0  0
   -5.9904   -2.0327   -0.0809 H   0  0  0  0  0  0  0  0  0  0  0  0
   -4.4974   -1.9870   -1.1578 H   0  0  0  0  0  0  0  0  0  0  0  0
   -5.0217   -0.5518   -0.2455 H   0  0  0  0  0  0  0  0  0  0  0  0
  1  2  1  0
  2  3  2  0
  3  4  1  0
  4  5  2  0
  5  6  1  0
  6  7  2  0
  5  8  1  0
  8  9  2  0
  9 10  1  0
 10 11  2  0
 11 12  1  0
 12 13  1  0
 13 14  1  0
 14 15  2  0
 15 16  1  0
 16 17  2  0
 17 18  1  0
 18 19  2  0
 18 20  1  0
 20 21  3  0
  9 22  1  0
 22 23  2  0
 22 24  1  0
 24 25  1  0
 25 26  1  0
 25 27  1  0
 25 28  1  0
  7  2  1  0
 12  8  1  0
 19 14  1  0
  1 29  1  0
  1 30  1  0
  1 31  1  0
  3 32  1  0
  4 33  1  0
  6 34  1  0
  7 35  1  0
 13 36  1  0
 13 37  1  0
 15 38  1  0
 16 39  1  0
 17 40  1  0
 19 41  1  0
 26 42  1  0
 26 43  1  0
 26 44  1  0
 27 45  1  0
 27 46  1  0
 27 47  1  0
 28 48  1  0
 28 49  1  0
 28 50  1  0
M  END
$$$$
[H]c1c([H])c(C([H])([H])[H])c([H])c(C2([H])N(C(=O)c3c([H])c([H])c(N([H])C(=O)C([H])([H])N4C([H])([H])C([H])([H])C([H])(C([H])([H])[H])C([H])([H])C4([H])[H])c([H])c3[H])C([H])([H])C([H])([H])OC2([H])[H])c1F
     RDKit          3D

 65 68  0  0  0  0  0  0  0  0999 V2000
    9.4598   -0.5322   -0.0530 C   0  0  0  0  0  0  0  0  0  0  0  0
    8.1102   -0.0354   -0.4575 C   0  0  0  0  0  0  0  0  0  0  0  0
    7.0447   -0.8454    0.2409 C   0  0  0  0  0  0  0  0  0  0  0  0
    5.6869   -0.4126   -0.2132 C   0  0  0  0  0  0  0  0  0  0  0  0
    5.4643    0.9970   -0.2271 N   0  0  0  0  0  0  0  0  0  0  0  0
    4.7856    1.5481    0.8838 C   0  0  0  0  0  0  0  0  0  0  0  0
    3.3444    1.1719    0.8880 C   0  0  0  0  0  0  0  0  0  0  0  0
    2.6472    1.5595    1.8883 O   0  0  0  0  0  0  0  0  0  0  0  0
    2.7433    0.4407   -0.1210 N   0  0  0  0  0  0  0  0  0  0  0  0
    1.4052   -0.0069   -0.2566 C   0  0  0  0  0  0  0  0  0  0  0  0
    1.0682   -0.8877   -1.2797 C   0  0  0  0  0  0  0  0  0  0  0  0
   -0.2032   -1.3558   -1.4452 C   0  0  0  0  0  0  0  0  0  0  0  0
   -1.2593   -0.9869   -0.6019 C   0  0  0  0  0  0  0  0  0  0  0  0
   -0.9417   -0.1239    0.4055 C   0  0  0  0  0  0  0  0  0  0  0  0
    0.3679    0.3551    0.5703 C   0  0  0  0  0  0  0  0  0  0  0  0
   -2.5681   -1.5703   -0.7650 C   0  0  0  0  0  0  0  0  0  0  0  0
   -2.5338   -2.6331   -1.5603 O   0  0  0  0  0  0  0  0  0  0  0  0
   -3.8002   -1.2161   -0.2469 N   0  0  0  0  0  0  0  0  0  0  0  0
   -4.9252   -2.1442   -0.5759 C   0  0  0  0  0  0  0  0  0  0  0  0
   -5.2370   -2.7356    0.8161 C   0  0  0  0  0  0  0  0  0  0  0  0
   -5.6082   -1.7155    1.6365 O   0  0  0  0  0  0  0  0  0  0  0  0
   -4.7200   -0.7040    1.8557 C   0  0  0  0  0  0  0  0  0  0  0  0
   -4.2456   -0.1053    0.5171 C   0  0  0  0  0  0  0  0  0  0  0  0
   -5.4670    0.4912   -0.1848 C   0  0  0  0  0  0  0  0  0  0  0  0
   -6.6823    0.6129    0.4249 C   0  0  0  0  0  0  0  0  0  0  0  0
   -7.7802    1.1667   -0.2270 C   0  0  0  0  0  0  0  0  0  0  0  0
   -9.0922    1.3061    0.3992 C   0  0  0  0  0  0  0  0  0  0  0  0
   -7.5859    1.5901   -1.5216 C   0  0  0  0  0  0  0  0  0  0  0  0
   -6.3606    1.4705   -2.1424 C   0  0  0  0  0  0  0  0  0  0  0  0
   -5.2836    0.9229   -1.4927 C   0  0  0  0  0  0  0  0  0  0  0  0
   -4.0901    0.8200   -2.1343 F   0  0  0  0  0  0  0  0  0  0  0  0
    6.5371    1.8083   -0.6848 C   0  0  0  0  0  0  0  0  0  0  0  0
    7.8527    1.4142   -0.0730 C   0  0  0  0  0  0  0  0  0  0  0  0
    9.7073   -1.3817   -0.7505 H   0  0  0  0  0  0  0  0  0  0  0  0
    9.3536   -0.9693    0.9748 H   0  0  0  0  0  0  0  0  0  0  0  0
   10.2417    0.2381   -0.0969 H   0  0  0  0  0  0  0  0  0  0  0  0
    7.9454   -0.0915   -1.5578 H   0  0  0  0  0  0  0  0  0  0  0  0
    7.1462   -0.6743    1.3305 H   0  0  0  0  0  0  0  0  0  0  0  0
    7.1388   -1.9346    0.0062 H   0  0  0  0  0  0  0  0  0  0  0  0
    4.9317   -0.8616    0.4814 H   0  0  0  0  0  0  0  0  0  0  0  0
    5.5167   -0.8025   -1.2487 H   0  0  0  0  0  0  0  0  0  0  0  0
    4.8437    2.6709    0.8918 H   0  0  0  0  0  0  0  0  0  0  0  0
    5.2776    1.2420    1.8445 H   0  0  0  0  0  0  0  0  0  0  0  0
    3.3619    0.1868   -0.9518 H   0  0  0  0  0  0  0  0  0  0  0  0
    1.8446   -1.1984   -1.9512 H   0  0  0  0  0  0  0  0  0  0  0  0
   -0.4587   -2.0479   -2.2627 H   0  0  0  0  0  0  0  0  0  0  0  0
   -1.6402    0.2101    1.1398 H   0  0  0  0  0  0  0  0  0  0  0  0
    0.5305    1.0340    1.3786 H   0  0  0  0  0  0  0  0  0  0  0  0
   -4.6166   -2.9102   -1.2869 H   0  0  0  0  0  0  0  0  0  0  0  0
   -5.8109   -1.5912   -0.8759 H   0  0  0  0  0  0  0  0  0  0  0  0
   -6.0231   -3.4853    0.7559 H   0  0  0  0  0  0  0  0  0  0  0  0
   -4.3326   -3.2387    1.2293 H   0  0  0  0  0  0  0  0  0  0  0  0
   -5.1559    0.0453    2.5120 H   0  0  0  0  0  0  0  0  0  0  0  0
   -3.7701   -1.0425    2.3441 H   0  0  0  0  0  0  0  0  0  0  0  0
   -3.5954    0.7441    0.6490 H   0  0  0  0  0  0  0  0  0  0  0  0
   -6.8585    0.3013    1.4340 H   0  0  0  0  0  0  0  0  0  0  0  0
   -9.4724    2.3509    0.3153 H   0  0  0  0  0  0  0  0  0  0  0  0
   -9.8285    0.6874   -0.1884 H   0  0  0  0  0  0  0  0  0  0  0  0
   -9.1432    0.9359    1.4316 H   0  0  0  0  0  0  0  0  0  0  0  0
   -8.3972    2.0302   -2.0889 H   0  0  0  0  0  0  0  0  0  0  0  0
   -6.2455    1.8124   -3.1537 H   0  0  0  0  0  0  0  0  0  0  0  0
    6.6179    1.7015   -1.7945 H   0  0  0  0  0  0  0  0  0  0  0  0
    6.3041    2.8600   -0.4139 H   0  0  0  0  0  0  0  0  0  0  0  0
    7.7762    1.4917    1.0124 H   0  0  0  0  0  0  0  0  0  0  0  0
    8.6776    2.0225   -0.4961 H   0  0  0  0  0  0  0  0  0  0  0  0
  1  2  1  0
  2  3  1  0
  3  4  1  0
  4  5  1  0
  5  6  1  0
  6  7  1  0
  7  8  2  0
  7  9  1  0
  9 10  1  0
 10 11  2  0
 11 12  1  0
 12 13  2  0
 13 14  1  0
 14 15  2  0
 13 16  1  0
 16 17  2  0
 16 18  1  0
 18 19  1  0
 19 20  1  0
 20 21  1  0
 21 22  1  0
 22 23  1  0
 23 24  1  0
 24 25  2  0
 25 26  1  0
 26 27  1  0
 26 28  2  0
 28 29  1  0
 29 30  2  0
 30 31  1  0
  5 32  1  0
 32 33  1  0
 33  2  1  0
 15 10  1  0
 23 18  1  0
 30 24  1  0
  1 34  1  0
  1 35  1  0
  1 36  1  0
  2 37  1  0
  3 38  1  0
  3 39  1  0
  4 40  1  0
  4 41  1  0
  6 42  1  0
  6 43  1  0
  9 44  1  0
 11 45  1  0
 12 46  1  0
 14 47  1  0
 15 48  1  0
 19 49  1  0
 19 50  1  0
 20 51  1  0
 20 52  1  0
 22 53  1  0
 22 54  1  0
 23 55  1  0
 25 56  1  0
 27 57  1  0
 27 58  1  0
 27 59  1  0
 28 60  1  0
 29 61  1  0
 32 62  1  0
 32 63  1  0
 33 64  1  0
 33 65  1  0
M  END
$$$$
[H]c1c([H])c([H])c2c(N3C([H])([H])C([H])([H])N([H])C([H])([H])C3([H])[H])c([H])c([H])c([H])c2c1[H]
     RDKit          3D

 32 34  0  0  0  0  0  0  0  0999 V2000
   -3.0708   -0.4434    1.1742 C   0  0  0  0  0  0  0  0  0  0  0  0
   -1.5792   -0.0347    1.2617 C   0  0  0  0  0  0  0  0  0  0  0  0
   -1.0524    0.1137   -0.0858 N   0  0  0  0  0  0  0  0  0  0  0  0
   -1.8217    0.8199   -1.0978 C   0  0  0  0  0  0  0  0  0  0  0  0
   -3.3119    0.5933   -0.8971 C   0  0  0  0  0  0  0  0  0  0  0  0
   -3.6933    0.7076    0.4987 N   0  0  0  0  0  0  0  0  0  0  0  0
    0.2060   -0.4318   -0.4436 C   0  0  0  0  0  0  0  0  0  0  0  0
    0.2739   -1.5133   -1.3410 C   0  0  0  0  0  0  0  0  0  0  0  0
    1.4698   -2.0880   -1.7012 C   0  0  0  0  0  0  0  0  0  0  0  0
    2.6437   -1.6211   -1.1930 C   0  0  0  0  0  0  0  0  0  0  0  0
    2.6395   -0.5647   -0.3109 C   0  0  0  0  0  0  0  0  0  0  0  0
    3.8434   -0.0939    0.1954 C   0  0  0  0  0  0  0  0  0  0  0  0
    3.8620    0.9661    1.0737 C   0  0  0  0  0  0  0  0  0  0  0  0
    2.6461    1.5294    1.4211 C   0  0  0  0  0  0  0  0  0  0  0  0
    1.4487    1.0672    0.9227 C   0  0  0  0  0  0  0  0  0  0  0  0
    1.4176    0.0070    0.0439 C   0  0  0  0  0  0  0  0  0  0  0  0
   -3.1950   -1.3358    0.5544 H   0  0  0  0  0  0  0  0  0  0  0  0
   -3.4153   -0.5264    2.2047 H   0  0  0  0  0  0  0  0  0  0  0  0
   -1.6117    0.8877    1.8460 H   0  0  0  0  0  0  0  0  0  0  0  0
   -1.0349   -0.8091    1.7995 H   0  0  0  0  0  0  0  0  0  0  0  0
   -1.5854    0.4879   -2.1284 H   0  0  0  0  0  0  0  0  0  0  0  0
   -1.6634    1.9170   -1.0710 H   0  0  0  0  0  0  0  0  0  0  0  0
   -3.8644    1.3742   -1.4716 H   0  0  0  0  0  0  0  0  0  0  0  0
   -3.5789   -0.4349   -1.2184 H   0  0  0  0  0  0  0  0  0  0  0  0
   -3.2202    1.5927    0.8492 H   0  0  0  0  0  0  0  0  0  0  0  0
   -0.6202   -1.9115   -1.7637 H   0  0  0  0  0  0  0  0  0  0  0  0
    1.4746   -2.9270   -2.4020 H   0  0  0  0  0  0  0  0  0  0  0  0
    3.6108   -2.0448   -1.4496 H   0  0  0  0  0  0  0  0  0  0  0  0
    4.7875   -0.5389   -0.0808 H   0  0  0  0  0  0  0  0  0  0  0  0
    4.8013    1.3435    1.4773 H   0  0  0  0  0  0  0  0  0  0  0  0
    2.6501    2.3547    2.1036 H   0  0  0  0  0  0  0  0  0  0  0  0
    0.5437    1.5573    1.2298 H   0  0  0  0  0  0  0  0  0  0  0  0
  1  2  1  0
  2  3  1  0
  3  4  1  0
  4  5  1  0
  5  6  1  0
  3  7  1  0
  7  8  2  0
  8  9  1  0
  9 10  2  0
 10 11  1  0
 11 12  2  0
 12 13  1  0
 13 14  2  0
 14 15  1  0
 15 16  2  0
  6  1  1  0
 16  7  1  0
 16 11  1  0
  1 17  1  0
  1 18  1  0
  2 19  1  0
  2 20  1  0
  4 21  1  0
  4 22  1  0
  5 23  1  0
  5 24  1  0
  6 25  1  0
  8 26  1  0
  9 27  1  0
 10 28  1  0
 12 29  1  0
 13 30  1  0
 14 31  1  0
 15 32  1  0
M  END
$$$$
[H]c1c([H])c([H])c2c(c1[H])C([H])([H])N(C(=O)c1c([H])c(C(=O)N([H])S(=O)(=O)c3c([H])c([H])c4c([H])c([H])c([H])c(F)c4c3[H])c([H])c([H])c1-n1nc(C(=O)N(C([H])([H])C([H])([H])C([H])([H])C([H])([H])[H])C([H])([H])C([H])([H])C([H])([H])C([H])([H])[H])c(Cl)c1C([H])([H])[H])C([H])([H])C2([H])[H]
     RDKit          3D

 94 99  0  0  0  0  0  0  0  0999 V2000
   -2.6636    1.5834   -3.4460 C   0  0  0  0  0  0  0  0  0  0  0  0
   -2.7250    0.1249   -3.1195 C   0  0  0  0  0  0  0  0  0  0  0  0
   -3.7704   -0.1757   -2.0488 C   0  0  0  0  0  0  0  0  0  0  0  0
   -3.8404   -1.6379   -1.7595 C   0  0  0  0  0  0  0  0  0  0  0  0
   -4.7976   -2.0681   -0.7964 N   0  0  0  0  0  0  0  0  0  0  0  0
   -6.1353   -2.3946   -1.2607 C   0  0  0  0  0  0  0  0  0  0  0  0
   -7.1063   -1.2770   -1.3137 C   0  0  0  0  0  0  0  0  0  0  0  0
   -7.3876   -0.5569   -0.0328 C   0  0  0  0  0  0  0  0  0  0  0  0
   -8.4183    0.5375   -0.3911 C   0  0  0  0  0  0  0  0  0  0  0  0
   -4.5032   -2.1931    0.5580 C   0  0  0  0  0  0  0  0  0  0  0  0
   -5.5110   -2.6130    1.2763 O   0  0  0  0  0  0  0  0  0  0  0  0
   -3.2582   -1.9293    1.2602 C   0  0  0  0  0  0  0  0  0  0  0  0
   -2.0749   -1.4850    0.8256 N   0  0  0  0  0  0  0  0  0  0  0  0
   -1.1879   -1.4300    1.7958 N   0  0  0  0  0  0  0  0  0  0  0  0
   -1.7413   -1.8401    2.9468 C   0  0  0  0  0  0  0  0  0  0  0  0
   -1.1505   -1.9812    4.3161 C   0  0  0  0  0  0  0  0  0  0  0  0
   -3.0441   -2.1585    2.6336 C   0  0  0  0  0  0  0  0  0  0  0  0
   -4.2501   -2.7511    3.7270 Cl  0  0  0  0  0  0  0  0  0  0  0  0
    0.1719   -1.0154    1.6785 C   0  0  0  0  0  0  0  0  0  0  0  0
    1.1421   -1.9629    1.3086 C   0  0  0  0  0  0  0  0  0  0  0  0
    2.4403   -1.6373    1.2102 C   0  0  0  0  0  0  0  0  0  0  0  0
    2.8361   -0.3477    1.4747 C   0  0  0  0  0  0  0  0  0  0  0  0
    1.8966    0.5934    1.8382 C   0  0  0  0  0  0  0  0  0  0  0  0
    0.5456    0.2779    1.9471 C   0  0  0  0  0  0  0  0  0  0  0  0
   -0.4236    1.3021    2.3363 C   0  0  0  0  0  0  0  0  0  0  0  0
   -0.7599    1.4913    3.5545 O   0  0  0  0  0  0  0  0  0  0  0  0
   -1.0457    2.1497    1.3856 N   0  0  0  0  0  0  0  0  0  0  0  0
   -0.7190    2.0357   -0.0278 C   0  0  0  0  0  0  0  0  0  0  0  0
   -0.4328    3.3707   -0.6543 C   0  0  0  0  0  0  0  0  0  0  0  0
   -1.0525    4.5160    0.0048 C   0  0  0  0  0  0  0  0  0  0  0  0
   -0.8566    5.7560   -0.6029 C   0  0  0  0  0  0  0  0  0  0  0  0
   -1.3937    6.9083   -0.0726 C   0  0  0  0  0  0  0  0  0  0  0  0
   -2.1334    6.8164    1.0744 C   0  0  0  0  0  0  0  0  0  0  0  0
   -2.3288    5.5702    1.6817 C   0  0  0  0  0  0  0  0  0  0  0  0
   -1.7858    4.4354    1.1406 C   0  0  0  0  0  0  0  0  0  0  0  0
   -2.0240    3.1328    1.8276 C   0  0  0  0  0  0  0  0  0  0  0  0
    4.2506   -0.0115    1.3779 C   0  0  0  0  0  0  0  0  0  0  0  0
    4.5662    1.0611    0.8200 O   0  0  0  0  0  0  0  0  0  0  0  0
    5.1951   -0.9176    1.9276 N   0  0  0  0  0  0  0  0  0  0  0  0
    6.8682   -0.5050    1.8031 S   0  0  0  0  0  0  0  0  0  0  0  0
    7.5717   -0.7105    3.1272 O   0  0  0  0  0  0  0  0  0  0  0  0
    7.0484    0.9359    1.4474 O   0  0  0  0  0  0  0  0  0  0  0  0
    7.6087   -1.5487    0.6147 C   0  0  0  0  0  0  0  0  0  0  0  0
    8.1459   -2.7602    1.0005 C   0  0  0  0  0  0  0  0  0  0  0  0
    8.7199   -3.5657    0.0405 C   0  0  0  0  0  0  0  0  0  0  0  0
    8.7687   -3.1843   -1.2991 C   0  0  0  0  0  0  0  0  0  0  0  0
    9.3365   -3.9744   -2.2733 C   0  0  0  0  0  0  0  0  0  0  0  0
    9.3677   -3.5653   -3.5907 C   0  0  0  0  0  0  0  0  0  0  0  0
    8.8227   -2.3449   -3.9560 C   0  0  0  0  0  0  0  0  0  0  0  0
    8.2451   -1.5315   -3.0054 C   0  0  0  0  0  0  0  0  0  0  0  0
    7.6875   -0.3328   -3.2920 F   0  0  0  0  0  0  0  0  0  0  0  0
    8.2279   -1.9726   -1.6743 C   0  0  0  0  0  0  0  0  0  0  0  0
    7.6475   -1.1541   -0.7166 C   0  0  0  0  0  0  0  0  0  0  0  0
   -2.6554    2.2388   -2.5832 H   0  0  0  0  0  0  0  0  0  0  0  0
   -1.7584    1.7388   -4.0845 H   0  0  0  0  0  0  0  0  0  0  0  0
   -3.5635    1.8532   -4.0452 H   0  0  0  0  0  0  0  0  0  0  0  0
   -3.0205   -0.4249   -4.0574 H   0  0  0  0  0  0  0  0  0  0  0  0
   -1.7201   -0.2449   -2.8431 H   0  0  0  0  0  0  0  0  0  0  0  0
   -4.7375    0.1760   -2.4623 H   0  0  0  0  0  0  0  0  0  0  0  0
   -3.5468    0.4461   -1.1844 H   0  0  0  0  0  0  0  0  0  0  0  0
   -4.1132   -2.1812   -2.7244 H   0  0  0  0  0  0  0  0  0  0  0  0
   -2.7928   -1.9925   -1.5371 H   0  0  0  0  0  0  0  0  0  0  0  0
   -6.0872   -2.8718   -2.2869 H   0  0  0  0  0  0  0  0  0  0  0  0
   -6.6017   -3.2049   -0.6396 H   0  0  0  0  0  0  0  0  0  0  0  0
   -6.9081   -0.5012   -2.0928 H   0  0  0  0  0  0  0  0  0  0  0  0
   -8.1286   -1.7094   -1.6182 H   0  0  0  0  0  0  0  0  0  0  0  0
   -7.9008   -1.1784    0.7387 H   0  0  0  0  0  0  0  0  0  0  0  0
   -6.4850   -0.0750    0.3766 H   0  0  0  0  0  0  0  0  0  0  0  0
   -7.8738    1.3874   -0.8393 H   0  0  0  0  0  0  0  0  0  0  0  0
   -9.0656    0.1112   -1.1843 H   0  0  0  0  0  0  0  0  0  0  0  0
   -8.9842    0.8130    0.5222 H   0  0  0  0  0  0  0  0  0  0  0  0
   -1.5786   -2.9156    4.7628 H   0  0  0  0  0  0  0  0  0  0  0  0
   -1.4415   -1.0914    4.9067 H   0  0  0  0  0  0  0  0  0  0  0  0
   -0.0492   -2.0190    4.2869 H   0  0  0  0  0  0  0  0  0  0  0  0
    0.7803   -2.9564    1.1173 H   0  0  0  0  0  0  0  0  0  0  0  0
    3.1554   -2.4150    0.9284 H   0  0  0  0  0  0  0  0  0  0  0  0
    2.2473    1.5908    2.0430 H   0  0  0  0  0  0  0  0  0  0  0  0
   -1.5980    1.6114   -0.5396 H   0  0  0  0  0  0  0  0  0  0  0  0
    0.1978    1.4286   -0.0990 H   0  0  0  0  0  0  0  0  0  0  0  0
    0.6830    3.5498   -0.6798 H   0  0  0  0  0  0  0  0  0  0  0  0
   -0.7356    3.4015   -1.7416 H   0  0  0  0  0  0  0  0  0  0  0  0
   -0.2767    5.8501   -1.5152 H   0  0  0  0  0  0  0  0  0  0  0  0
   -1.2379    7.8747   -0.5398 H   0  0  0  0  0  0  0  0  0  0  0  0
   -2.5765    7.7192    1.5089 H   0  0  0  0  0  0  0  0  0  0  0  0
   -2.9279    5.5928    2.5920 H   0  0  0  0  0  0  0  0  0  0  0  0
   -3.0545    2.8003    1.5482 H   0  0  0  0  0  0  0  0  0  0  0  0
   -2.0183    3.2230    2.9261 H   0  0  0  0  0  0  0  0  0  0  0  0
    4.8870   -1.7964    2.3873 H   0  0  0  0  0  0  0  0  0  0  0  0
    8.1122   -3.0729    2.0526 H   0  0  0  0  0  0  0  0  0  0  0  0
    9.1469   -4.5209    0.3142 H   0  0  0  0  0  0  0  0  0  0  0  0
    9.7682   -4.9275   -2.0161 H   0  0  0  0  0  0  0  0  0  0  0  0
    9.8110   -4.1670   -4.3656 H   0  0  0  0  0  0  0  0  0  0  0  0
    8.8411   -2.0057   -4.9868 H   0  0  0  0  0  0  0  0  0  0  0  0
    7.2180   -0.1996   -0.9731 H   0  0  0  0  0  0  0  0  0  0  0  0
  1  2  1  0
  2  3  1  0
  3  4  1  0
  4  5  1  0
  5  6  1  0
  6  7  1  0
  7  8  1  0
  8  9  1  0
  5 10  1  0
 10 11  2  0
 10 12  1  0
 12 13  2  0
 13 14  1  0
 14 15  1  0
 15 16  1  0
 15 17  2  0
 17 18  1  0
 14 19  1  0
 19 20  2  0
 20 21  1  0
 21 22  2  0
 22 23  1  0
 23 24  2  0
 24 25  1  0
 25 26  2  0
 25 27  1  0
 27 28  1  0
 28 29  1  0
 29 30  1  0
 30 31  2  0
 31 32  1  0
 32 33  2  0
 33 34  1  0
 34 35  2  0
 35 36  1  0
 22 37  1  0
 37 38  2  0
 37 39  1  0
 39 40  1  0
 40 41  2  0
 40 42  2  0
 40 43  1  0
 43 44  2  0
 44 45  1  0
 45 46  2  0
 46 47  1  0
 47 48  2  0
 48 49  1  0
 49 50  2  0
 50 51  1  0
 50 52  1  0
 52 53  2  0
 17 12  1  0
 24 19  1  0
 36 27  1  0
 53 43  1  0
 35 30  1  0
 52 46  1  0
  1 54  1  0
  1 55  1  0
  1 56  1  0
  2 57  1  0
  2 58  1  0
  3 59  1  0
  3 60  1  0
  4 61  1  0
  4 62  1  0
  6 63  1  0
  6 64  1  0
  7 65  1  0
  7 66  1  0
  8 67  1  0
  8 68  1  0
  9 69  1  0
  9 70  1  0
  9 71  1  0
 16 72  1  0
 16 73  1  0
 16 74  1  0
 20 75  1  0
 21 76  1  0
 23 77  1  0
 28 78  1  0
 28 79  1  0
 29 80  1  0
 29 81  1  0
 31 82  1  0
 32 83  1  0
 33 84  1  0
 34 85  1  0
 36 86  1  0
 36 87  1  0
 39 88  1  0
 44 89  1  0
 45 90  1  0
 47 91  1  0
 48 92  1  0
 49 93  1  0
 53 94  1  0
M  END
$$$$
[H]c1c([H])c(N([H])S(=O)(=O)C(F)(F)F)c2c(c1[H])C([H])(C([H])([H])[H])N([H])c1c([H])c(N([H])C(=O)C3(C([H])([H])C([H])([H])[H])C([H])([H])C([H])([H])C3([H])[H])c([H])c([H])c1O2
     RDKit          3D

 57 60  0  0  0  0  0  0  0  0999 V2000
    6.5268    0.3401   -1.5988 C   0  0  0  0  0  0  0  0  0  0  0  0
    5.2359    0.8841   -1.1489 C   0  0  0  0  0  0  0  0  0  0  0  0
    4.9682    0.9923    0.2879 C   0  0  0  0  0  0  0  0  0  0  0  0
    5.8438    1.8235    1.1523 C   0  0  0  0  0  0  0  0  0  0  0  0
    6.6448    0.6112    1.4821 C   0  0  0  0  0  0  0  0  0  0  0  0
    5.4469   -0.2170    1.0663 C   0  0  0  0  0  0  0  0  0  0  0  0
    3.5096    1.1880    0.5717 C   0  0  0  0  0  0  0  0  0  0  0  0
    3.1979    2.2228    1.1687 O   0  0  0  0  0  0  0  0  0  0  0  0
    2.6108    0.2062    0.1513 N   0  0  0  0  0  0  0  0  0  0  0  0
    1.2113    0.1596    0.2986 C   0  0  0  0  0  0  0  0  0  0  0  0
    0.4381    1.0781    0.9615 C   0  0  0  0  0  0  0  0  0  0  0  0
   -0.9539    0.9880    1.0755 C   0  0  0  0  0  0  0  0  0  0  0  0
   -1.6030   -0.0764    0.4963 C   0  0  0  0  0  0  0  0  0  0  0  0
   -3.0014   -0.0626    0.6757 O   0  0  0  0  0  0  0  0  0  0  0  0
   -3.9616   -0.7383   -0.0638 C   0  0  0  0  0  0  0  0  0  0  0  0
   -5.1619   -0.1138   -0.2032 C   0  0  0  0  0  0  0  0  0  0  0  0
   -5.5816    1.1000    0.3635 N   0  0  0  0  0  0  0  0  0  0  0  0
   -4.8831    2.6462    0.3333 S   0  0  0  0  0  0  0  0  0  0  0  0
   -5.8634    3.6548   -0.3055 O   0  0  0  0  0  0  0  0  0  0  0  0
   -3.6731    2.6930   -0.5380 O   0  0  0  0  0  0  0  0  0  0  0  0
   -4.5875    3.2597    1.9744 C   0  0  0  0  0  0  0  0  0  0  0  0
   -5.8593    3.3732    2.6069 F   0  0  0  0  0  0  0  0  0  0  0  0
   -3.9839    4.4860    1.9938 F   0  0  0  0  0  0  0  0  0  0  0  0
   -3.9629    2.3005    2.7255 F   0  0  0  0  0  0  0  0  0  0  0  0
   -6.1975   -0.7375   -0.9558 C   0  0  0  0  0  0  0  0  0  0  0  0
   -5.9575   -1.9537   -1.5187 C   0  0  0  0  0  0  0  0  0  0  0  0
   -4.7351   -2.5705   -1.3630 C   0  0  0  0  0  0  0  0  0  0  0  0
   -3.7222   -1.9902   -0.6442 C   0  0  0  0  0  0  0  0  0  0  0  0
   -2.5436   -2.8843   -0.6394 C   0  0  0  0  0  0  0  0  0  0  0  0
   -2.4663   -3.7012    0.6412 C   0  0  0  0  0  0  0  0  0  0  0  0
   -1.3162   -2.1754   -0.8333 N   0  0  0  0  0  0  0  0  0  0  0  0
   -0.8483   -1.0062   -0.1711 C   0  0  0  0  0  0  0  0  0  0  0  0
    0.5219   -0.9119   -0.2802 C   0  0  0  0  0  0  0  0  0  0  0  0
    7.4032    0.9955   -1.4441 H   0  0  0  0  0  0  0  0  0  0  0  0
    6.7882   -0.6399   -1.1509 H   0  0  0  0  0  0  0  0  0  0  0  0
    6.5180    0.1376   -2.7107 H   0  0  0  0  0  0  0  0  0  0  0  0
    5.1099    1.9036   -1.6137 H   0  0  0  0  0  0  0  0  0  0  0  0
    4.4170    0.2738   -1.6178 H   0  0  0  0  0  0  0  0  0  0  0  0
    6.3702    2.6719    0.6967 H   0  0  0  0  0  0  0  0  0  0  0  0
    5.2879    2.1821    2.0452 H   0  0  0  0  0  0  0  0  0  0  0  0
    7.5367    0.4011    0.8750 H   0  0  0  0  0  0  0  0  0  0  0  0
    6.8717    0.5110    2.5766 H   0  0  0  0  0  0  0  0  0  0  0  0
    5.6636   -1.1149    0.4666 H   0  0  0  0  0  0  0  0  0  0  0  0
    4.8098   -0.4227    1.9773 H   0  0  0  0  0  0  0  0  0  0  0  0
    3.0581   -0.6281   -0.3531 H   0  0  0  0  0  0  0  0  0  0  0  0
    0.9224    1.9228    1.4276 H   0  0  0  0  0  0  0  0  0  0  0  0
   -1.4808    1.7499    1.6061 H   0  0  0  0  0  0  0  0  0  0  0  0
   -6.5301    1.0456    0.9340 H   0  0  0  0  0  0  0  0  0  0  0  0
   -7.1462   -0.2653   -1.0804 H   0  0  0  0  0  0  0  0  0  0  0  0
   -6.7619   -2.4192   -2.0933 H   0  0  0  0  0  0  0  0  0  0  0  0
   -4.5771   -3.5539   -1.8311 H   0  0  0  0  0  0  0  0  0  0  0  0
   -2.6602   -3.6129   -1.4640 H   0  0  0  0  0  0  0  0  0  0  0  0
   -2.0401   -3.1355    1.4721 H   0  0  0  0  0  0  0  0  0  0  0  0
   -1.8012   -4.5602    0.4231 H   0  0  0  0  0  0  0  0  0  0  0  0
   -3.4838   -4.0993    0.8295 H   0  0  0  0  0  0  0  0  0  0  0  0
   -0.6658   -2.5439   -1.5444 H   0  0  0  0  0  0  0  0  0  0  0  0
    1.0977   -1.6676   -0.8188 H   0  0  0  0  0  0  0  0  0  0  0  0
  1  2  1  0
  2  3  1  0
  3  4  1  0
  4  5  1  0
  5  6  1  0
  3  7  1  0
  7  8  2  0
  7  9  1  0
  9 10  1  0
 10 11  2  0
 11 12  1  0
 12 13  2  0
 13 14  1  0
 14 15  1  0
 15 16  2  0
 16 17  1  0
 17 18  1  0
 18 19  2  0
 18 20  2  0
 18 21  1  0
 21 22  1  0
 21 23  1  0
 21 24  1  0
 16 25  1  0
 25 26  2  0
 26 27  1  0
 27 28  2  0
 28 29  1  0
 29 30  1  0
 29 31  1  0
 31 32  1  0
 32 33  2  0
  6  3  1  0
 33 10  1  0
 32 13  1  0
 28 15  1  0
  1 34  1  0
  1 35  1  0
  1 36  1  0
  2 37  1  0
  2 38  1  0
  4 39  1  0
  4 40  1  0
  5 41  1  0
  5 42  1  0
  6 43  1  0
  6 44  1  0
  9 45  1  0
 11 46  1  0
 12 47  1  0
 17 48  1  0
 25 49  1  0
 26 50  1  0
 27 51  1  0
 29 52  1  0
 30 53  1  0
 30 54  1  0
 30 55  1  0
 31 56  1  0
 33 57  1  0
M  END
$$$$
[H]/C(=N\N([H])C(=O)c1nc([H])c([H])c([H])c1[H])c1c([H])c([H])c([N+](=O)[O-])c([H])c1[H]
     RDKit          3D

 30 31  0  0  0  0  0  0  0  0999 V2000
   -7.0831   -0.5265    1.0101 O   0  0  0  0  0  0  0  0  0  0  0  0
   -6.4689    0.3911    0.2141 N   0  0  0  0  0  0  0  0  0  0  0  0
   -7.1353    1.2719   -0.3365 O   0  0  0  0  0  0  0  0  0  0  0  0
   -5.0741    0.3394    0.0158 C   0  0  0  0  0  0  0  0  0  0  0  0
   -4.2947   -0.6417    0.6227 C   0  0  0  0  0  0  0  0  0  0  0  0
   -2.9281   -0.7149    0.4455 C   0  0  0  0  0  0  0  0  0  0  0  0
   -2.2835    0.2058   -0.3581 C   0  0  0  0  0  0  0  0  0  0  0  0
   -0.8501    0.1329   -0.5470 C   0  0  0  0  0  0  0  0  0  0  0  0
   -0.1650   -0.7897    0.0319 N   0  0  0  0  0  0  0  0  0  0  0  0
    1.2416   -0.8460   -0.1649 N   0  0  0  0  0  0  0  0  0  0  0  0
    2.0835   -0.0820    0.6489 C   0  0  0  0  0  0  0  0  0  0  0  0
    1.5442    0.6476    1.5515 O   0  0  0  0  0  0  0  0  0  0  0  0
    3.5247   -0.1054    0.4872 C   0  0  0  0  0  0  0  0  0  0  0  0
    4.1296   -0.8704   -0.4629 C   0  0  0  0  0  0  0  0  0  0  0  0
    5.5164   -0.8681   -0.5895 C   0  0  0  0  0  0  0  0  0  0  0  0
    6.2420   -0.0895    0.2524 C   0  0  0  0  0  0  0  0  0  0  0  0
    5.5865    0.6682    1.1985 C   0  0  0  0  0  0  0  0  0  0  0  0
    4.2656    0.6535    1.3046 N   0  0  0  0  0  0  0  0  0  0  0  0
   -3.0321    1.1892   -0.9721 C   0  0  0  0  0  0  0  0  0  0  0  0
   -4.3953    1.2406   -0.7789 C   0  0  0  0  0  0  0  0  0  0  0  0
   -4.8326   -1.3572    1.2535 H   0  0  0  0  0  0  0  0  0  0  0  0
   -2.3780   -1.5197    0.9585 H   0  0  0  0  0  0  0  0  0  0  0  0
   -0.3603    0.8484   -1.1696 H   0  0  0  0  0  0  0  0  0  0  0  0
    1.6448   -1.4492   -0.9071 H   0  0  0  0  0  0  0  0  0  0  0  0
    3.5883   -1.5042   -1.1527 H   0  0  0  0  0  0  0  0  0  0  0  0
    6.0175   -1.4666   -1.3354 H   0  0  0  0  0  0  0  0  0  0  0  0
    7.3227   -0.0183    0.2347 H   0  0  0  0  0  0  0  0  0  0  0  0
    6.1720    1.3022    1.8846 H   0  0  0  0  0  0  0  0  0  0  0  0
   -2.5798    1.9465   -1.6198 H   0  0  0  0  0  0  0  0  0  0  0  0
   -5.0184    2.0120   -1.2544 H   0  0  0  0  0  0  0  0  0  0  0  0
  1  2  1  0
  2  3  2  0
  2  4  1  0
  4  5  2  0
  5  6  1  0
  6  7  2  0
  7  8  1  0
  8  9  2  0
  9 10  1  0
 10 11  1  0
 11 12  2  0
 11 13  1  0
 13 14  2  0
 14 15  1  0
 15 16  2  0
 16 17  1  0
 17 18  2  0
  7 19  1  0
 19 20  2  0
 20  4  1  0
 18 13  1  0
  5 21  1  0
  6 22  1  0
  8 23  1  0
 10 24  1  0
 14 25  1  0
 15 26  1  0
 16 27  1  0
 17 28  1  0
 19 29  1  0
 20 30  1  0
M  CHG  2   1  -1   2   1
M  END
$$$$
[H]OC(=O)[C@]([H])(N([H])[C@]([H])(C(=O)N([H])C(C([H])([H])[H])(C([H])([H])[H])C([H])([H])[H])C([H])([H])C([H])(C([H])([H])[H])C([H])([H])[H])C([H])([H])C([H])([H])N1C(=O)c2c(c([H])c3c([H])c([H])c([H])c([H])c3c2[H])C1=O
     RDKit          3D

 67 69  0  0  0  0  0  0  0  0999 V2000
   -1.2969   -1.7803   -2.4910 C   0  0  0  0  0  0  0  0  0  0  0  0
   -1.9376   -1.5887   -1.0952 C   0  0  0  0  0  0  0  0  0  0  0  0
   -1.2337   -2.5249   -0.1992 C   0  0  0  0  0  0  0  0  0  0  0  0
   -1.8932   -0.1432   -0.8251 C   0  0  0  0  0  0  0  0  0  0  0  0
   -2.4299    0.4161    0.4105 C   0  0  2  0  0  0  0  0  0  0  0  0
   -1.9504    0.1120    1.6758 N   0  0  0  0  0  0  0  0  0  0  0  0
   -0.7938    0.5437    2.3038 C   0  0  2  0  0  0  0  0  0  0  0  0
    0.5268    0.2175    1.7075 C   0  0  0  0  0  0  0  0  0  0  0  0
    1.7063    0.7330    2.5089 C   0  0  0  0  0  0  0  0  0  0  0  0
    2.9397    0.4178    1.7448 N   0  0  0  0  0  0  0  0  0  0  0  0
    3.5520    1.2813    0.7925 C   0  0  0  0  0  0  0  0  0  0  0  0
    3.1449    2.4236    0.4893 O   0  0  0  0  0  0  0  0  0  0  0  0
    4.7205    0.6017    0.2467 C   0  0  0  0  0  0  0  0  0  0  0  0
    5.6569    0.9903   -0.7015 C   0  0  0  0  0  0  0  0  0  0  0  0
    6.7035    0.1667   -1.0773 C   0  0  0  0  0  0  0  0  0  0  0  0
    7.6407    0.5408   -2.0081 C   0  0  0  0  0  0  0  0  0  0  0  0
    8.6926   -0.2696   -2.3854 C   0  0  0  0  0  0  0  0  0  0  0  0
    8.8257   -1.5351   -1.8009 C   0  0  0  0  0  0  0  0  0  0  0  0
    7.8793   -1.8949   -0.8698 C   0  0  0  0  0  0  0  0  0  0  0  0
    6.8228   -1.0780   -0.4926 C   0  0  0  0  0  0  0  0  0  0  0  0
    5.8933   -1.4563    0.4453 C   0  0  0  0  0  0  0  0  0  0  0  0
    4.8458   -0.6410    0.8263 C   0  0  0  0  0  0  0  0  0  0  0  0
    3.7270   -0.7562    1.7677 C   0  0  0  0  0  0  0  0  0  0  0  0
    3.5250   -1.7650    2.4769 O   0  0  0  0  0  0  0  0  0  0  0  0
   -0.8225   -0.0505    3.7071 C   0  0  0  0  0  0  0  0  0  0  0  0
   -0.0631    0.4682    4.7468 O   0  0  0  0  0  0  0  0  0  0  0  0
   -1.5756   -1.0383    3.8774 O   0  0  0  0  0  0  0  0  0  0  0  0
   -3.9090    0.6879    0.4006 C   0  0  0  0  0  0  0  0  0  0  0  0
   -4.4642    0.6850    1.5294 O   0  0  0  0  0  0  0  0  0  0  0  0
   -4.6943    0.9399   -0.7286 N   0  0  0  0  0  0  0  0  0  0  0  0
   -6.1128    1.2245   -0.6640 C   0  0  0  0  0  0  0  0  0  0  0  0
   -6.9065    0.1574    0.0213 C   0  0  0  0  0  0  0  0  0  0  0  0
   -6.6497    1.3420   -2.0944 C   0  0  0  0  0  0  0  0  0  0  0  0
   -6.3703    2.5544    0.0062 C   0  0  0  0  0  0  0  0  0  0  0  0
   -1.7361   -0.9770   -3.1489 H   0  0  0  0  0  0  0  0  0  0  0  0
   -1.6344   -2.7364   -2.9206 H   0  0  0  0  0  0  0  0  0  0  0  0
   -0.2299   -1.6136   -2.4188 H   0  0  0  0  0  0  0  0  0  0  0  0
   -2.9743   -1.9920   -1.2377 H   0  0  0  0  0  0  0  0  0  0  0  0
   -0.1119   -2.3831   -0.2471 H   0  0  0  0  0  0  0  0  0  0  0  0
   -1.5762   -2.5621    0.8449 H   0  0  0  0  0  0  0  0  0  0  0  0
   -1.3723   -3.5537   -0.6154 H   0  0  0  0  0  0  0  0  0  0  0  0
   -0.8230    0.1802   -0.9611 H   0  0  0  0  0  0  0  0  0  0  0  0
   -2.3837    0.3549   -1.7168 H   0  0  0  0  0  0  0  0  0  0  0  0
   -2.0733    1.5636    0.3003 H   0  0  0  0  0  0  0  0  0  0  0  0
   -2.7349    0.0158    2.3617 H   0  0  0  0  0  0  0  0  0  0  0  0
   -0.8245    1.6976    2.4809 H   0  0  0  0  0  0  0  0  0  0  0  0
    0.5924   -0.9154    1.6853 H   0  0  0  0  0  0  0  0  0  0  0  0
    0.6352    0.5351    0.6428 H   0  0  0  0  0  0  0  0  0  0  0  0
    1.7811    0.1118    3.4260 H   0  0  0  0  0  0  0  0  0  0  0  0
    1.6872    1.7809    2.7507 H   0  0  0  0  0  0  0  0  0  0  0  0
    5.5417    1.9813   -1.1507 H   0  0  0  0  0  0  0  0  0  0  0  0
    7.5267    1.5318   -2.4571 H   0  0  0  0  0  0  0  0  0  0  0  0
    9.4345    0.0179   -3.1142 H   0  0  0  0  0  0  0  0  0  0  0  0
    9.6588   -2.1629   -2.1056 H   0  0  0  0  0  0  0  0  0  0  0  0
    7.9790   -2.8611   -0.4226 H   0  0  0  0  0  0  0  0  0  0  0  0
    5.9912   -2.4324    0.8962 H   0  0  0  0  0  0  0  0  0  0  0  0
   -0.5750    1.0753    5.3848 H   0  0  0  0  0  0  0  0  0  0  0  0
   -4.2568    0.9267   -1.6685 H   0  0  0  0  0  0  0  0  0  0  0  0
   -7.1294    0.4511    1.0906 H   0  0  0  0  0  0  0  0  0  0  0  0
   -7.9347    0.0550   -0.4329 H   0  0  0  0  0  0  0  0  0  0  0  0
   -6.4529   -0.8558   -0.0076 H   0  0  0  0  0  0  0  0  0  0  0  0
   -5.9557    2.0019   -2.6903 H   0  0  0  0  0  0  0  0  0  0  0  0
   -6.6723    0.3678   -2.6064 H   0  0  0  0  0  0  0  0  0  0  0  0
   -7.6712    1.7537   -2.0922 H   0  0  0  0  0  0  0  0  0  0  0  0
   -7.4314    2.8149   -0.1640 H   0  0  0  0  0  0  0  0  0  0  0  0
   -5.7906    3.3715   -0.4867 H   0  0  0  0  0  0  0  0  0  0  0  0
   -6.1825    2.4748    1.0811 H   0  0  0  0  0  0  0  0  0  0  0  0
  1  2  1  0
  2  3  1  0
  2  4  1  0
  4  5  1  0
  5  6  1  0
  6  7  1  0
  7  8  1  0
  8  9  1  0
  9 10  1  0
 10 11  1  0
 11 12  2  0
 11 13  1  0
 13 14  2  0
 14 15  1  0
 15 16  2  0
 16 17  1  0
 17 18  2  0
 18 19  1  0
 19 20  2  0
 20 21  1  0
 21 22  2  0
 22 23  1  0
 23 24  2  0
  7 25  1  0
 25 26  1  0
 25 27  2  0
  5 28  1  0
 28 29  2  0
 28 30  1  0
 30 31  1  0
 31 32  1  0
 31 33  1  0
 31 34  1  0
 23 10  1  0
 22 13  1  0
 20 15  1  0
  1 35  1  0
  1 36  1  0
  1 37  1  0
  2 38  1  0
  3 39  1  0
  3 40  1  0
  3 41  1  0
  4 42  1  0
  4 43  1  0
  5 44  1  6
  6 45  1  0
  7 46  1  1
  8 47  1  0
  8 48  1  0
  9 49  1  0
  9 50  1  0
 14 51  1  0
 16 52  1  0
 17 53  1  0
 18 54  1  0
 19 55  1  0
 21 56  1  0
 26 57  1  0
 30 58  1  0
 32 59  1  0
 32 60  1  0
 32 61  1  0
 33 62  1  0
 33 63  1  0
 33 64  1  0
 34 65  1  0
 34 66  1  0
 34 67  1  0
M  END
$$$$
[H]OC(=O)C1([H])OC(=O)N=C(c2c([H])c([H])c3c([H])c(F)c([H])c([H])c3c2[H])C([H])([H])C1([H])[H]
     RDKit          3D

 34 36  0  0  0  0  0  0  0  0999 V2000
    6.1017    0.1755    0.6907 O   0  0  0  0  0  0  0  0  0  0  0  0
    5.3738   -0.0921   -0.4672 C   0  0  0  0  0  0  0  0  0  0  0  0
    5.9688   -0.7003   -1.3868 O   0  0  0  0  0  0  0  0  0  0  0  0
    3.9530    0.3459   -0.5599 C   0  0  0  0  0  0  0  0  0  0  0  0
    3.1988   -0.3042    0.5490 C   0  0  0  0  0  0  0  0  0  0  0  0
    1.8639    0.3116    0.8407 C   0  0  0  0  0  0  0  0  0  0  0  0
    0.8244   -0.0129   -0.1611 C   0  0  0  0  0  0  0  0  0  0  0  0
    1.0580   -0.3828   -1.3741 N   0  0  0  0  0  0  0  0  0  0  0  0
    2.2454   -0.5951   -2.1235 C   0  0  0  0  0  0  0  0  0  0  0  0
    2.1666   -1.3397   -3.1485 O   0  0  0  0  0  0  0  0  0  0  0  0
    3.4890   -0.0678   -1.8466 O   0  0  0  0  0  0  0  0  0  0  0  0
   -0.5660    0.0794    0.2080 C   0  0  0  0  0  0  0  0  0  0  0  0
   -1.0041    0.4574    1.4481 C   0  0  0  0  0  0  0  0  0  0  0  0
   -2.3466    0.5285    1.7484 C   0  0  0  0  0  0  0  0  0  0  0  0
   -3.3182    0.2166    0.7962 C   0  0  0  0  0  0  0  0  0  0  0  0
   -4.6666    0.2793    1.0696 C   0  0  0  0  0  0  0  0  0  0  0  0
   -5.6215   -0.0325    0.1166 C   0  0  0  0  0  0  0  0  0  0  0  0
   -6.9465    0.0408    0.4233 F   0  0  0  0  0  0  0  0  0  0  0  0
   -5.1964   -0.4179   -1.1466 C   0  0  0  0  0  0  0  0  0  0  0  0
   -3.8561   -0.4772   -1.4090 C   0  0  0  0  0  0  0  0  0  0  0  0
   -2.8906   -0.1657   -0.4575 C   0  0  0  0  0  0  0  0  0  0  0  0
   -1.5495   -0.2269   -0.7258 C   0  0  0  0  0  0  0  0  0  0  0  0
    6.0368    1.0811    1.1750 H   0  0  0  0  0  0  0  0  0  0  0  0
    3.9640    1.4566   -0.4790 H   0  0  0  0  0  0  0  0  0  0  0  0
    3.8127   -0.2010    1.4801 H   0  0  0  0  0  0  0  0  0  0  0  0
    3.0907   -1.3810    0.3123 H   0  0  0  0  0  0  0  0  0  0  0  0
    1.5298   -0.1367    1.8215 H   0  0  0  0  0  0  0  0  0  0  0  0
    1.9831    1.4079    0.9867 H   0  0  0  0  0  0  0  0  0  0  0  0
   -0.2816    0.7044    2.2031 H   0  0  0  0  0  0  0  0  0  0  0  0
   -2.7098    0.8238    2.7183 H   0  0  0  0  0  0  0  0  0  0  0  0
   -4.9842    0.5809    2.0576 H   0  0  0  0  0  0  0  0  0  0  0  0
   -5.9783   -0.6519   -1.8584 H   0  0  0  0  0  0  0  0  0  0  0  0
   -3.5193   -0.7764   -2.3901 H   0  0  0  0  0  0  0  0  0  0  0  0
   -1.2253   -0.5275   -1.7107 H   0  0  0  0  0  0  0  0  0  0  0  0
  1  2  1  0
  2  3  2  0
  2  4  1  0
  4  5  1  0
  5  6  1  0
  6  7  1  0
  7  8  2  0
  8  9  1  0
  9 10  2  0
  9 11  1  0
  7 12  1  0
 12 13  2  0
 13 14  1  0
 14 15  2  0
 15 16  1  0
 16 17  2  0
 17 18  1  0
 17 19  1  0
 19 20  2  0
 20 21  1  0
 21 22  2  0
 11  4  1  0
 22 12  1  0
 21 15  1  0
  1 23  1  0
  4 24  1  0
  5 25  1  0
  5 26  1  0
  6 27  1  0
  6 28  1  0
 13 29  1  0
 14 30  1  0
 16 31  1  0
 19 32  1  0
 20 33  1  0
 22 34  1  0
M  END
$$$$
[H]c1c([H])c([H])c2c(c1[H])N([H])C(=O)N(C1([H])C([H])([H])C([H])([H])N(C(=O)N([H])C([H])([H])c3c([H])c([H])c([H])c(OC([H])([H])[H])c3[H])C([H])([H])C1([H])[H])C2([H])[H]
     RDKit          3D

 55 58  0  0  0  0  0  0  0  0999 V2000
   -5.1096   -3.2176    1.2296 C   0  0  0  0  0  0  0  0  0  0  0  0
   -4.3827   -2.1795    0.6166 O   0  0  0  0  0  0  0  0  0  0  0  0
   -4.9935   -0.9535    0.4394 C   0  0  0  0  0  0  0  0  0  0  0  0
   -6.2788   -0.7481    0.8510 C   0  0  0  0  0  0  0  0  0  0  0  0
   -6.9183    0.4568    0.6908 C   0  0  0  0  0  0  0  0  0  0  0  0
   -6.2513    1.4949    0.0985 C   0  0  0  0  0  0  0  0  0  0  0  0
   -4.9397    1.3324   -0.3374 C   0  0  0  0  0  0  0  0  0  0  0  0
   -4.2537    2.4695   -0.9788 C   0  0  0  0  0  0  0  0  0  0  0  0
   -2.8571    2.1360   -1.1251 N   0  0  0  0  0  0  0  0  0  0  0  0
   -1.9968    2.2018   -0.0222 C   0  0  0  0  0  0  0  0  0  0  0  0
   -2.4514    2.5560    1.0968 O   0  0  0  0  0  0  0  0  0  0  0  0
   -0.6342    1.8736   -0.1647 N   0  0  0  0  0  0  0  0  0  0  0  0
   -0.1217    1.4700   -1.4531 C   0  0  0  0  0  0  0  0  0  0  0  0
    1.4050    1.4432   -1.2884 C   0  0  0  0  0  0  0  0  0  0  0  0
    1.6548    0.3361   -0.2525 C   0  0  0  0  0  0  0  0  0  0  0  0
    1.0517    0.6713    1.0869 C   0  0  0  0  0  0  0  0  0  0  0  0
    0.2387    1.9438    0.9813 C   0  0  0  0  0  0  0  0  0  0  0  0
    3.0354   -0.0246   -0.1907 N   0  0  0  0  0  0  0  0  0  0  0  0
    3.4213   -1.3567   -0.6038 C   0  0  0  0  0  0  0  0  0  0  0  0
    4.8499   -1.6443   -0.4948 C   0  0  0  0  0  0  0  0  0  0  0  0
    5.2644   -2.9129   -0.8706 C   0  0  0  0  0  0  0  0  0  0  0  0
    6.6066   -3.2564   -0.7958 C   0  0  0  0  0  0  0  0  0  0  0  0
    7.5622   -2.3499   -0.3478 C   0  0  0  0  0  0  0  0  0  0  0  0
    7.1474   -1.0914    0.0243 C   0  0  0  0  0  0  0  0  0  0  0  0
    5.8002   -0.7746   -0.0601 C   0  0  0  0  0  0  0  0  0  0  0  0
    5.3776    0.5273    0.3302 N   0  0  0  0  0  0  0  0  0  0  0  0
    4.0137    0.9076    0.2694 C   0  0  0  0  0  0  0  0  0  0  0  0
    3.7058    2.0702    0.6278 O   0  0  0  0  0  0  0  0  0  0  0  0
   -4.3483    0.1141   -0.1548 C   0  0  0  0  0  0  0  0  0  0  0  0
   -6.0987   -3.3375    0.7447 H   0  0  0  0  0  0  0  0  0  0  0  0
   -5.1342   -3.0549    2.3085 H   0  0  0  0  0  0  0  0  0  0  0  0
   -4.5886   -4.2009    1.0598 H   0  0  0  0  0  0  0  0  0  0  0  0
   -6.8500   -1.5436    1.3286 H   0  0  0  0  0  0  0  0  0  0  0  0
   -7.9511    0.5662    1.0392 H   0  0  0  0  0  0  0  0  0  0  0  0
   -6.7140    2.4580   -0.0470 H   0  0  0  0  0  0  0  0  0  0  0  0
   -4.3191    3.4039   -0.3910 H   0  0  0  0  0  0  0  0  0  0  0  0
   -4.6645    2.6602   -1.9895 H   0  0  0  0  0  0  0  0  0  0  0  0
   -2.4615    1.8365   -2.0594 H   0  0  0  0  0  0  0  0  0  0  0  0
   -0.4073    0.3839   -1.5861 H   0  0  0  0  0  0  0  0  0  0  0  0
   -0.4400    2.0920   -2.2853 H   0  0  0  0  0  0  0  0  0  0  0  0
    1.7895    2.4020   -0.9443 H   0  0  0  0  0  0  0  0  0  0  0  0
    1.8226    1.0849   -2.2425 H   0  0  0  0  0  0  0  0  0  0  0  0
    1.0804   -0.5305   -0.6359 H   0  0  0  0  0  0  0  0  0  0  0  0
    0.3347   -0.1122    1.4460 H   0  0  0  0  0  0  0  0  0  0  0  0
    1.8110    0.7615    1.8867 H   0  0  0  0  0  0  0  0  0  0  0  0
    0.8722    2.8401    0.8502 H   0  0  0  0  0  0  0  0  0  0  0  0
   -0.3552    2.1252    1.9082 H   0  0  0  0  0  0  0  0  0  0  0  0
    3.1579   -1.4233   -1.6937 H   0  0  0  0  0  0  0  0  0  0  0  0
    2.7767   -2.1086   -0.1059 H   0  0  0  0  0  0  0  0  0  0  0  0
    4.5854   -3.6740   -1.2285 H   0  0  0  0  0  0  0  0  0  0  0  0
    6.9204   -4.2382   -1.0878 H   0  0  0  0  0  0  0  0  0  0  0  0
    8.6064   -2.6488   -0.3007 H   0  0  0  0  0  0  0  0  0  0  0  0
    7.8849   -0.3937    0.3689 H   0  0  0  0  0  0  0  0  0  0  0  0
    6.0831    1.2090    0.6654 H   0  0  0  0  0  0  0  0  0  0  0  0
   -3.3385   -0.0525   -0.4782 H   0  0  0  0  0  0  0  0  0  0  0  0
  1  2  1  0
  2  3  1  0
  3  4  2  0
  4  5  1  0
  5  6  2  0
  6  7  1  0
  7  8  1  0
  8  9  1  0
  9 10  1  0
 10 11  2  0
 10 12  1  0
 12 13  1  0
 13 14  1  0
 14 15  1  0
 15 16  1  0
 16 17  1  0
 15 18  1  0
 18 19  1  0
 19 20  1  0
 20 21  2  0
 21 22  1  0
 22 23  2  0
 23 24  1  0
 24 25  2  0
 25 26  1  0
 26 27  1  0
 27 28  2  0
  7 29  2  0
 29  3  1  0
 17 12  1  0
 27 18  1  0
 25 20  1  0
  1 30  1  0
  1 31  1  0
  1 32  1  0
  4 33  1  0
  5 34  1  0
  6 35  1  0
  8 36  1  0
  8 37  1  0
  9 38  1  0
 13 39  1  0
 13 40  1  0
 14 41  1  0
 14 42  1  0
 15 43  1  0
 16 44  1  0
 16 45  1  0
 17 46  1  0
 17 47  1  0
 19 48  1  0
 19 49  1  0
 21 50  1  0
 22 51  1  0
 23 52  1  0
 24 53  1  0
 26 54  1  0
 29 55  1  0
M  END
$$$$
[H]c1nc(N([H])c2c([H])c(N(C([H])([H])[H])C([H])([H])[H])c([H])c(N3C([H])([H])C([H])([H])OC([H])([H])C3([H])[H])c2[H])nc(Oc2c([H])c([H])c(F)c([H])c2C([H])([H])N(C([H])([H])[H])C([H])([H])[H])c1F
     RDKit          3D

 65 68  0  0  0  0  0  0  0  0999 V2000
    7.2278   -1.5594   -0.8310 C   0  0  0  0  0  0  0  0  0  0  0  0
    5.8580   -1.4971   -0.7107 N   0  0  0  0  0  0  0  0  0  0  0  0
    5.1174   -2.2889   -1.6442 C   0  0  0  0  0  0  0  0  0  0  0  0
    5.0805   -0.8681    0.2689 C   0  0  0  0  0  0  0  0  0  0  0  0
    5.7381    0.3521    0.7873 C   0  0  0  0  0  0  0  0  0  0  0  0
    6.9054    0.2834    1.4702 C   0  0  0  0  0  0  0  0  0  0  0  0
    7.5629    1.3346    2.0597 C   0  0  0  0  0  0  0  0  0  0  0  0
    8.7362    1.1372    2.7224 F   0  0  0  0  0  0  0  0  0  0  0  0
    7.0068    2.5527    1.9696 C   0  0  0  0  0  0  0  0  0  0  0  0
    5.7629    2.7527    1.3034 C   0  0  0  0  0  0  0  0  0  0  0  0
    5.1531    1.6423    0.7226 C   0  0  0  0  0  0  0  0  0  0  0  0
    4.0091    1.8141    0.0884 O   0  0  0  0  0  0  0  0  0  0  0  0
    2.7056    1.9491    0.0781 C   0  0  0  0  0  0  0  0  0  0  0  0
    1.7693    0.9864    0.0815 N   0  0  0  0  0  0  0  0  0  0  0  0
    0.4235    1.2121    0.0288 C   0  0  0  0  0  0  0  0  0  0  0  0
   -0.5133    0.1762    0.1161 N   0  0  0  0  0  0  0  0  0  0  0  0
   -1.8925    0.1899   -0.0767 C   0  0  0  0  0  0  0  0  0  0  0  0
   -2.6508   -0.9486    0.2449 C   0  0  0  0  0  0  0  0  0  0  0  0
   -3.9562   -1.0734   -0.0086 C   0  0  0  0  0  0  0  0  0  0  0  0
   -4.5747    0.0374   -0.6203 C   0  0  0  0  0  0  0  0  0  0  0  0
   -3.9529    1.1832   -0.9592 C   0  0  0  0  0  0  0  0  0  0  0  0
   -2.5442    1.2355   -0.6725 C   0  0  0  0  0  0  0  0  0  0  0  0
   -4.6272    2.2464   -1.5762 N   0  0  0  0  0  0  0  0  0  0  0  0
   -6.1077    2.0666   -1.6854 C   0  0  0  0  0  0  0  0  0  0  0  0
   -4.0746    3.4356   -2.1414 C   0  0  0  0  0  0  0  0  0  0  0  0
   -4.7997   -2.1958    0.2990 N   0  0  0  0  0  0  0  0  0  0  0  0
   -5.8784   -1.8759    1.2597 C   0  0  0  0  0  0  0  0  0  0  0  0
   -6.2171   -3.0526    2.1078 C   0  0  0  0  0  0  0  0  0  0  0  0
   -6.3976   -4.1421    1.2891 O   0  0  0  0  0  0  0  0  0  0  0  0
   -5.1491   -4.5084    0.8095 C   0  0  0  0  0  0  0  0  0  0  0  0
   -4.7167   -3.4881   -0.2382 C   0  0  0  0  0  0  0  0  0  0  0  0
    0.0329    2.4788   -0.0294 N   0  0  0  0  0  0  0  0  0  0  0  0
    0.8555    3.5476   -0.0341 C   0  0  0  0  0  0  0  0  0  0  0  0
    2.1810    3.2527    0.0199 C   0  0  0  0  0  0  0  0  0  0  0  0
    3.0341    4.2835    0.0035 F   0  0  0  0  0  0  0  0  0  0  0  0
    7.5582   -2.2223   -1.7212 H   0  0  0  0  0  0  0  0  0  0  0  0
    7.6949   -0.5634   -1.1701 H   0  0  0  0  0  0  0  0  0  0  0  0
    7.8707   -1.9063   -0.0085 H   0  0  0  0  0  0  0  0  0  0  0  0
    5.8000   -2.8453   -2.3580 H   0  0  0  0  0  0  0  0  0  0  0  0
    4.4940   -1.6855   -2.2945 H   0  0  0  0  0  0  0  0  0  0  0  0
    4.5452   -3.1167   -1.1461 H   0  0  0  0  0  0  0  0  0  0  0  0
    4.0248   -0.8183    0.0333 H   0  0  0  0  0  0  0  0  0  0  0  0
    5.0786   -1.5695    1.2118 H   0  0  0  0  0  0  0  0  0  0  0  0
    7.3785   -0.6978    1.6413 H   0  0  0  0  0  0  0  0  0  0  0  0
    7.4491    3.4366    2.4171 H   0  0  0  0  0  0  0  0  0  0  0  0
    5.4261    3.7596    1.2357 H   0  0  0  0  0  0  0  0  0  0  0  0
   -0.0936   -0.8012    0.4591 H   0  0  0  0  0  0  0  0  0  0  0  0
   -2.1601   -1.8196    0.7357 H   0  0  0  0  0  0  0  0  0  0  0  0
   -5.6592   -0.0987   -0.8184 H   0  0  0  0  0  0  0  0  0  0  0  0
   -2.1014    2.1790   -0.9180 H   0  0  0  0  0  0  0  0  0  0  0  0
   -6.5958    2.9396   -2.1026 H   0  0  0  0  0  0  0  0  0  0  0  0
   -6.3394    1.1775   -2.3208 H   0  0  0  0  0  0  0  0  0  0  0  0
   -6.5458    1.9015   -0.6800 H   0  0  0  0  0  0  0  0  0  0  0  0
   -2.9816    3.4852   -2.1129 H   0  0  0  0  0  0  0  0  0  0  0  0
   -4.5681    4.2994   -1.6214 H   0  0  0  0  0  0  0  0  0  0  0  0
   -4.4784    3.5292   -3.2009 H   0  0  0  0  0  0  0  0  0  0  0  0
   -5.4862   -1.0526    1.9310 H   0  0  0  0  0  0  0  0  0  0  0  0
   -6.7339   -1.4535    0.6695 H   0  0  0  0  0  0  0  0  0  0  0  0
   -7.1616   -2.7562    2.6615 H   0  0  0  0  0  0  0  0  0  0  0  0
   -5.3785   -3.2173    2.8087 H   0  0  0  0  0  0  0  0  0  0  0  0
   -4.3954   -4.4081    1.6407 H   0  0  0  0  0  0  0  0  0  0  0  0
   -5.1564   -5.5243    0.3804 H   0  0  0  0  0  0  0  0  0  0  0  0
   -5.4153   -3.6331   -1.1183 H   0  0  0  0  0  0  0  0  0  0  0  0
   -3.6898   -3.7543   -0.6310 H   0  0  0  0  0  0  0  0  0  0  0  0
    0.5132    4.5844   -0.1054 H   0  0  0  0  0  0  0  0  0  0  0  0
  1  2  1  0
  2  3  1  0
  2  4  1  0
  4  5  1  0
  5  6  2  0
  6  7  1  0
  7  8  1  0
  7  9  2  0
  9 10  1  0
 10 11  2  0
 11 12  1  0
 12 13  1  0
 13 14  2  0
 14 15  1  0
 15 16  1  0
 16 17  1  0
 17 18  2  0
 18 19  1  0
 19 20  2  0
 20 21  1  0
 21 22  2  0
 21 23  1  0
 23 24  1  0
 23 25  1  0
 19 26  1  0
 26 27  1  0
 27 28  1  0
 28 29  1  0
 29 30  1  0
 30 31  1  0
 15 32  2  0
 32 33  1  0
 33 34  2  0
 34 35  1  0
 11  5  1  0
 34 13  1  0
 22 17  1  0
 31 26  1  0
  1 36  1  0
  1 37  1  0
  1 38  1  0
  3 39  1  0
  3 40  1  0
  3 41  1  0
  4 42  1  0
  4 43  1  0
  6 44  1  0
  9 45  1  0
 10 46  1  0
 16 47  1  0
 18 48  1  0
 20 49  1  0
 22 50  1  0
 24 51  1  0
 24 52  1  0
 24 53  1  0
 25 54  1  0
 25 55  1  0
 25 56  1  0
 27 57  1  0
 27 58  1  0
 28 59  1  0
 28 60  1  0
 30 61  1  0
 30 62  1  0
 31 63  1  0
 31 64  1  0
 33 65  1  0
M  END
$$$$
[H]c1nc(N([H])c2c([H])c([H])c3c(c([H])nn3[H])c2[H])n2c([H])nc([H])c2c1C(=O)N([H])[H]
     RDKit          3D

 33 36  0  0  0  0  0  0  0  0999 V2000
    5.8089   -0.0249   -0.5768 N   0  0  0  0  0  0  0  0  0  0  0  0
    4.6164   -0.0932   -1.3056 C   0  0  0  0  0  0  0  0  0  0  0  0
    4.7446   -0.2230   -2.5782 O   0  0  0  0  0  0  0  0  0  0  0  0
    3.2936   -0.0277   -0.7215 C   0  0  0  0  0  0  0  0  0  0  0  0
    2.1701   -0.1072   -1.5557 C   0  0  0  0  0  0  0  0  0  0  0  0
    0.9525   -0.0466   -1.0158 N   0  0  0  0  0  0  0  0  0  0  0  0
    0.6959    0.0873    0.2901 C   0  0  0  0  0  0  0  0  0  0  0  0
   -0.6062    0.1500    0.8545 N   0  0  0  0  0  0  0  0  0  0  0  0
   -1.8316    0.1115    0.1934 C   0  0  0  0  0  0  0  0  0  0  0  0
   -2.0759    0.2928   -1.1351 C   0  0  0  0  0  0  0  0  0  0  0  0
   -3.3481    0.2073   -1.7164 C   0  0  0  0  0  0  0  0  0  0  0  0
   -4.4368   -0.0749   -0.9231 C   0  0  0  0  0  0  0  0  0  0  0  0
   -5.7608   -0.2203   -1.1825 N   0  0  0  0  0  0  0  0  0  0  0  0
   -6.3437   -0.4877   -0.0405 N   0  0  0  0  0  0  0  0  0  0  0  0
   -5.4791   -0.5277    0.9628 C   0  0  0  0  0  0  0  0  0  0  0  0
   -4.2199   -0.2623    0.4238 C   0  0  0  0  0  0  0  0  0  0  0  0
   -2.9638   -0.1740    0.9723 C   0  0  0  0  0  0  0  0  0  0  0  0
    1.7964    0.1633    1.0889 N   0  0  0  0  0  0  0  0  0  0  0  0
    1.8960    0.2971    2.4107 C   0  0  0  0  0  0  0  0  0  0  0  0
    3.1851    0.3287    2.7824 N   0  0  0  0  0  0  0  0  0  0  0  0
    3.9479    0.2114    1.6628 C   0  0  0  0  0  0  0  0  0  0  0  0
    3.0625    0.1094    0.6170 C   0  0  0  0  0  0  0  0  0  0  0  0
    6.1922   -0.8785   -0.1305 H   0  0  0  0  0  0  0  0  0  0  0  0
    6.3262    0.8677   -0.4697 H   0  0  0  0  0  0  0  0  0  0  0  0
    2.3431   -0.2158   -2.6169 H   0  0  0  0  0  0  0  0  0  0  0  0
   -0.6283    0.2440    1.9237 H   0  0  0  0  0  0  0  0  0  0  0  0
   -1.2559    0.5273   -1.7893 H   0  0  0  0  0  0  0  0  0  0  0  0
   -3.4828    0.3603   -2.7785 H   0  0  0  0  0  0  0  0  0  0  0  0
   -6.1701   -0.1233   -2.1396 H   0  0  0  0  0  0  0  0  0  0  0  0
   -5.6161   -0.7177    2.0167 H   0  0  0  0  0  0  0  0  0  0  0  0
   -2.8601   -0.3316    2.0315 H   0  0  0  0  0  0  0  0  0  0  0  0
    1.0207    0.3687    3.0746 H   0  0  0  0  0  0  0  0  0  0  0  0
    5.0268    0.2098    1.6977 H   0  0  0  0  0  0  0  0  0  0  0  0
  1  2  1  0
  2  3  2  0
  2  4  1  0
  4  5  2  0
  5  6  1  0
  6  7  2  0
  7  8  1  0
  8  9  1  0
  9 10  2  0
 10 11  1  0
 11 12  2  0
 12 13  1  0
 13 14  1  0
 14 15  2  0
 15 16  1  0
 16 17  2  0
  7 18  1  0
 18 19  1  0
 19 20  2  0
 20 21  1  0
 21 22  2  0
 22  4  1  0
 17  9  1  0
 22 18  1  0
 16 12  1  0
  1 23  1  0
  1 24  1  0
  5 25  1  0
  8 26  1  0
 10 27  1  0
 11 28  1  0
 13 29  1  0
 15 30  1  0
 17 31  1  0
 19 32  1  0
 21 33  1  0
M  END
$$$$
[H]O[C@@]([H])(C([H])([H])OC([H])([H])[H])C([H])([H])N([H])c1nc(Cl)nc(N([H])[H])c1-c1sc([H])c([H])c1[H]
     RDKit          3D

 35 36  0  0  0  0  0  0  0  0999 V2000
    5.5982    0.4480   -0.2209 C   0  0  0  0  0  0  0  0  0  0  0  0
    4.2154    0.4641   -0.4127 O   0  0  0  0  0  0  0  0  0  0  0  0
    3.7038   -0.8490   -0.3078 C   0  0  0  0  0  0  0  0  0  0  0  0
    2.1816   -0.7975   -0.5234 C   0  0  2  0  0  0  0  0  0  0  0  0
    2.0361   -0.2620   -1.8239 O   0  0  0  0  0  0  0  0  0  0  0  0
    1.5930    0.1394    0.4797 C   0  0  0  0  0  0  0  0  0  0  0  0
    0.1824    0.4121    0.2903 N   0  0  0  0  0  0  0  0  0  0  0  0
   -0.7753   -0.6031    0.5113 C   0  0  0  0  0  0  0  0  0  0  0  0
   -0.3054   -1.8694    0.8204 N   0  0  0  0  0  0  0  0  0  0  0  0
   -1.1304   -2.8971    0.9818 C   0  0  0  0  0  0  0  0  0  0  0  0
   -0.4442   -4.4624    1.3709 Cl  0  0  0  0  0  0  0  0  0  0  0  0
   -2.4358   -2.6960    0.8420 N   0  0  0  0  0  0  0  0  0  0  0  0
   -2.9453   -1.4805    0.5431 C   0  0  0  0  0  0  0  0  0  0  0  0
   -4.3492   -1.3399    0.4450 N   0  0  0  0  0  0  0  0  0  0  0  0
   -2.1093   -0.3841    0.3681 C   0  0  0  0  0  0  0  0  0  0  0  0
   -2.6678    0.9708    0.1625 C   0  0  0  0  0  0  0  0  0  0  0  0
   -3.8467    1.3006   -0.4577 C   0  0  0  0  0  0  0  0  0  0  0  0
   -4.1404    2.6195   -0.5845 C   0  0  0  0  0  0  0  0  0  0  0  0
   -3.2419    3.5155   -0.0873 C   0  0  0  0  0  0  0  0  0  0  0  0
   -2.0284    2.5148    0.5355 S   0  0  0  0  0  0  0  0  0  0  0  0
    6.0037   -0.2184   -1.0365 H   0  0  0  0  0  0  0  0  0  0  0  0
    6.0193    1.4686   -0.2902 H   0  0  0  0  0  0  0  0  0  0  0  0
    5.8059    0.0116    0.7860 H   0  0  0  0  0  0  0  0  0  0  0  0
    4.2031   -1.4357   -1.0934 H   0  0  0  0  0  0  0  0  0  0  0  0
    3.8987   -1.2105    0.7196 H   0  0  0  0  0  0  0  0  0  0  0  0
    1.7877   -1.8056   -0.5573 H   0  0  0  0  0  0  0  0  0  0  0  0
    2.1078    0.7179   -1.7728 H   0  0  0  0  0  0  0  0  0  0  0  0
    2.1349    1.1058    0.4696 H   0  0  0  0  0  0  0  0  0  0  0  0
    1.7391   -0.3008    1.5114 H   0  0  0  0  0  0  0  0  0  0  0  0
   -0.0602    1.3439   -0.0308 H   0  0  0  0  0  0  0  0  0  0  0  0
   -4.8189   -1.8099   -0.3841 H   0  0  0  0  0  0  0  0  0  0  0  0
   -4.9437   -0.8213    1.1103 H   0  0  0  0  0  0  0  0  0  0  0  0
   -4.5721    0.5599   -0.8883 H   0  0  0  0  0  0  0  0  0  0  0  0
   -5.0727    3.0275   -1.0708 H   0  0  0  0  0  0  0  0  0  0  0  0
   -3.3230    4.6231   -0.1060 H   0  0  0  0  0  0  0  0  0  0  0  0
  1  2  1  0
  2  3  1  0
  3  4  1  0
  4  5  1  0
  4  6  1  0
  6  7  1  0
  7  8  1  0
  8  9  2  0
  9 10  1  0
 10 11  1  0
 10 12  2  0
 12 13  1  0
 13 14  1  0
 13 15  2  0
 15 16  1  0
 16 17  2  0
 17 18  1  0
 18 19  2  0
 19 20  1  0
 15  8  1  0
 20 16  1  0
  1 21  1  0
  1 22  1  0
  1 23  1  0
  3 24  1  0
  3 25  1  0
  4 26  1  6
  5 27  1  0
  6 28  1  0
  6 29  1  0
  7 30  1  0
 14 31  1  0
 14 32  1  0
 17 33  1  0
 18 34  1  0
 19 35  1  0
M  END
$$$$
[H]OC(=O)c1c([H])c([H])c(C#CC([H])([H])N2C(=O)C([H])([H])Oc3c([H])c([H])c([H])c([H])c32)c(OC([H])([H])C([H])([H])[H])c1[H]
     RDKit          3D

 43 45  0  0  0  0  0  0  0  0999 V2000
    3.1080    4.1223    0.6820 C   0  0  0  0  0  0  0  0  0  0  0  0
    3.5729    2.6886    0.7392 C   0  0  0  0  0  0  0  0  0  0  0  0
    2.5588    1.8042    0.2687 O   0  0  0  0  0  0  0  0  0  0  0  0
    2.7563    0.4379    0.2277 C   0  0  0  0  0  0  0  0  0  0  0  0
    3.9685   -0.1189    0.6511 C   0  0  0  0  0  0  0  0  0  0  0  0
    4.1905   -1.4795    0.6201 C   0  0  0  0  0  0  0  0  0  0  0  0
    3.1931   -2.3073    0.1609 C   0  0  0  0  0  0  0  0  0  0  0  0
    1.9919   -1.7543   -0.2585 C   0  0  0  0  0  0  0  0  0  0  0  0
    1.7565   -0.3921   -0.2326 C   0  0  0  0  0  0  0  0  0  0  0  0
    0.4956    0.1551   -0.6757 C   0  0  0  0  0  0  0  0  0  0  0  0
   -0.5516    0.6307   -1.0377 C   0  0  0  0  0  0  0  0  0  0  0  0
   -1.8359    1.2365   -1.4691 C   0  0  0  0  0  0  0  0  0  0  0  0
   -2.8660    0.2375   -1.4566 N   0  0  0  0  0  0  0  0  0  0  0  0
   -3.1251   -0.5416   -2.6447 C   0  0  0  0  0  0  0  0  0  0  0  0
   -2.7507   -0.1635   -3.7578 O   0  0  0  0  0  0  0  0  0  0  0  0
   -3.8680   -1.8358   -2.4956 C   0  0  0  0  0  0  0  0  0  0  0  0
   -4.8604   -1.7294   -1.5092 O   0  0  0  0  0  0  0  0  0  0  0  0
   -4.6556   -1.0194   -0.3469 C   0  0  0  0  0  0  0  0  0  0  0  0
   -5.4263   -1.2853    0.7615 C   0  0  0  0  0  0  0  0  0  0  0  0
   -5.2046   -0.5657    1.9119 C   0  0  0  0  0  0  0  0  0  0  0  0
   -4.2259    0.3984    1.9356 C   0  0  0  0  0  0  0  0  0  0  0  0
   -3.4462    0.6789    0.8398 C   0  0  0  0  0  0  0  0  0  0  0  0
   -3.6651   -0.0444   -0.3270 C   0  0  0  0  0  0  0  0  0  0  0  0
    5.4389   -2.0796    1.0538 C   0  0  0  0  0  0  0  0  0  0  0  0
    5.6337   -3.4468    1.0117 O   0  0  0  0  0  0  0  0  0  0  0  0
    6.3736   -1.3605    1.4793 O   0  0  0  0  0  0  0  0  0  0  0  0
    3.9936    4.7710    0.6216 H   0  0  0  0  0  0  0  0  0  0  0  0
    2.4964    4.2305   -0.2429 H   0  0  0  0  0  0  0  0  0  0  0  0
    2.4245    4.3798    1.5217 H   0  0  0  0  0  0  0  0  0  0  0  0
    4.5022    2.6099    0.1400 H   0  0  0  0  0  0  0  0  0  0  0  0
    3.8002    2.4726    1.8184 H   0  0  0  0  0  0  0  0  0  0  0  0
    4.7521    0.5371    1.0123 H   0  0  0  0  0  0  0  0  0  0  0  0
    3.3166   -3.3888    0.1157 H   0  0  0  0  0  0  0  0  0  0  0  0
    1.1989   -2.3839   -0.6211 H   0  0  0  0  0  0  0  0  0  0  0  0
   -1.7026    1.6619   -2.5110 H   0  0  0  0  0  0  0  0  0  0  0  0
   -2.0233    2.1218   -0.8426 H   0  0  0  0  0  0  0  0  0  0  0  0
   -4.3480   -2.1352   -3.4438 H   0  0  0  0  0  0  0  0  0  0  0  0
   -3.1621   -2.6251   -2.1698 H   0  0  0  0  0  0  0  0  0  0  0  0
   -6.2070   -2.0437    0.7674 H   0  0  0  0  0  0  0  0  0  0  0  0
   -5.8047   -0.7541    2.8175 H   0  0  0  0  0  0  0  0  0  0  0  0
   -4.0433    0.9713    2.8383 H   0  0  0  0  0  0  0  0  0  0  0  0
   -2.6682    1.4456    0.8751 H   0  0  0  0  0  0  0  0  0  0  0  0
    4.9182   -4.1366    1.1713 H   0  0  0  0  0  0  0  0  0  0  0  0
  1  2  1  0
  2  3  1  0
  3  4  1  0
  4  5  2  0
  5  6  1  0
  6  7  2  0
  7  8  1  0
  8  9  2  0
  9 10  1  0
 10 11  3  0
 11 12  1  0
 12 13  1  0
 13 14  1  0
 14 15  2  0
 14 16  1  0
 16 17  1  0
 17 18  1  0
 18 19  2  0
 19 20  1  0
 20 21  2  0
 21 22  1  0
 22 23  2  0
  6 24  1  0
 24 25  1  0
 24 26  2  0
  9  4  1  0
 23 13  1  0
 23 18  1  0
  1 27  1  0
  1 28  1  0
  1 29  1  0
  2 30  1  0
  2 31  1  0
  5 32  1  0
  7 33  1  0
  8 34  1  0
 12 35  1  0
 12 36  1  0
 16 37  1  0
 16 38  1  0
 19 39  1  0
 20 40  1  0
 21 41  1  0
 22 42  1  0
 25 43  1  0
M  END
$$$$
[H]c1c([H])c(-c2nn([H])c([H])c2[H])c([H])c([H])c1C(=O)N1C([H])([H])C([H])([H])N(C([H])([H])c2c([H])c([H])c(-c3nc(C([H])([H])[H])no3)c([H])c2[H])C([H])([H])C1([H])[H]
     RDKit          3D

 56 60  0  0  0  0  0  0  0  0999 V2000
   -8.5906    3.7796    1.8181 C   0  0  0  0  0  0  0  0  0  0  0  0
   -8.0071    2.4763    1.4447 C   0  0  0  0  0  0  0  0  0  0  0  0
   -8.5162    1.2677    1.7299 N   0  0  0  0  0  0  0  0  0  0  0  0
   -7.7386    0.3512    1.2461 O   0  0  0  0  0  0  0  0  0  0  0  0
   -6.7216    0.9063    0.6439 C   0  0  0  0  0  0  0  0  0  0  0  0
   -6.8777    2.2379    0.7611 N   0  0  0  0  0  0  0  0  0  0  0  0
   -5.6329    0.1969   -0.0235 C   0  0  0  0  0  0  0  0  0  0  0  0
   -5.6189   -1.1706   -0.0557 C   0  0  0  0  0  0  0  0  0  0  0  0
   -4.5841   -1.8594   -0.6910 C   0  0  0  0  0  0  0  0  0  0  0  0
   -3.5408   -1.1851   -1.3076 C   0  0  0  0  0  0  0  0  0  0  0  0
   -2.4300   -1.8857   -1.9964 C   0  0  0  0  0  0  0  0  0  0  0  0
   -1.1532   -1.2414   -1.8175 N   0  0  0  0  0  0  0  0  0  0  0  0
   -0.7703   -1.1931   -0.4267 C   0  0  0  0  0  0  0  0  0  0  0  0
    0.6956   -0.7232   -0.2607 C   0  0  0  0  0  0  0  0  0  0  0  0
    1.5151   -1.6621   -0.9336 N   0  0  0  0  0  0  0  0  0  0  0  0
    0.7600   -2.7045   -1.6643 C   0  0  0  0  0  0  0  0  0  0  0  0
   -0.1601   -1.9486   -2.5969 C   0  0  0  0  0  0  0  0  0  0  0  0
    2.8960   -1.7127   -0.9869 C   0  0  0  0  0  0  0  0  0  0  0  0
    3.3350   -2.7348   -1.7083 O   0  0  0  0  0  0  0  0  0  0  0  0
    3.9134   -0.8751   -0.4133 C   0  0  0  0  0  0  0  0  0  0  0  0
    3.7192    0.2399    0.3542 C   0  0  0  0  0  0  0  0  0  0  0  0
    4.7889    0.9977    0.8776 C   0  0  0  0  0  0  0  0  0  0  0  0
    6.0897    0.6451    0.6367 C   0  0  0  0  0  0  0  0  0  0  0  0
    6.2854   -0.4741   -0.1338 C   0  0  0  0  0  0  0  0  0  0  0  0
    5.2461   -1.2172   -0.6469 C   0  0  0  0  0  0  0  0  0  0  0  0
    7.1899    1.4305    1.1797 C   0  0  0  0  0  0  0  0  0  0  0  0
    8.5472    1.2261    1.0395 C   0  0  0  0  0  0  0  0  0  0  0  0
    9.2148    2.2010    1.7129 C   0  0  0  0  0  0  0  0  0  0  0  0
    8.2759    2.9959    2.2611 N   0  0  0  0  0  0  0  0  0  0  0  0
    7.0719    2.5309    1.9394 N   0  0  0  0  0  0  0  0  0  0  0  0
   -3.5896    0.1918   -1.2542 C   0  0  0  0  0  0  0  0  0  0  0  0
   -4.6102    0.8763   -0.6275 C   0  0  0  0  0  0  0  0  0  0  0  0
   -9.3312    3.6269    2.6113 H   0  0  0  0  0  0  0  0  0  0  0  0
   -9.0848    4.2306    0.9278 H   0  0  0  0  0  0  0  0  0  0  0  0
   -7.7816    4.4495    2.1633 H   0  0  0  0  0  0  0  0  0  0  0  0
   -6.3950   -1.7671    0.4014 H   0  0  0  0  0  0  0  0  0  0  0  0
   -4.5742   -2.9260   -0.7156 H   0  0  0  0  0  0  0  0  0  0  0  0
   -2.6857   -1.9367   -3.0811 H   0  0  0  0  0  0  0  0  0  0  0  0
   -2.4113   -2.9461   -1.6537 H   0  0  0  0  0  0  0  0  0  0  0  0
   -1.4366   -0.4906    0.1483 H   0  0  0  0  0  0  0  0  0  0  0  0
   -0.8345   -2.1550    0.1058 H   0  0  0  0  0  0  0  0  0  0  0  0
    0.7658    0.3219   -0.6364 H   0  0  0  0  0  0  0  0  0  0  0  0
    0.8145   -0.6892    0.8447 H   0  0  0  0  0  0  0  0  0  0  0  0
    1.4437   -3.2952   -2.3149 H   0  0  0  0  0  0  0  0  0  0  0  0
    0.2702   -3.4152   -1.0061 H   0  0  0  0  0  0  0  0  0  0  0  0
   -0.6176   -2.6121   -3.3584 H   0  0  0  0  0  0  0  0  0  0  0  0
    0.4420   -1.1718   -3.1170 H   0  0  0  0  0  0  0  0  0  0  0  0
    2.7188    0.5603    0.5704 H   0  0  0  0  0  0  0  0  0  0  0  0
    4.5468    1.8620    1.4725 H   0  0  0  0  0  0  0  0  0  0  0  0
    7.3260   -0.7707   -0.3366 H   0  0  0  0  0  0  0  0  0  0  0  0
    5.4608   -2.1029   -1.2564 H   0  0  0  0  0  0  0  0  0  0  0  0
    8.9669    0.4094    0.4759 H   0  0  0  0  0  0  0  0  0  0  0  0
   10.2856    2.2872    1.7731 H   0  0  0  0  0  0  0  0  0  0  0  0
    8.5290    3.8314    2.8381 H   0  0  0  0  0  0  0  0  0  0  0  0
   -2.8033    0.7712   -1.7176 H   0  0  0  0  0  0  0  0  0  0  0  0
   -4.6168    1.9647   -0.6046 H   0  0  0  0  0  0  0  0  0  0  0  0
  1  2  1  0
  2  3  2  0
  3  4  1  0
  4  5  1  0
  5  6  2  0
  5  7  1  0
  7  8  2  0
  8  9  1  0
  9 10  2  0
 10 11  1  0
 11 12  1  0
 12 13  1  0
 13 14  1  0
 14 15  1  0
 15 16  1  0
 16 17  1  0
 15 18  1  0
 18 19  2  0
 18 20  1  0
 20 21  2  0
 21 22  1  0
 22 23  2  0
 23 24  1  0
 24 25  2  0
 23 26  1  0
 26 27  1  0
 27 28  2  0
 28 29  1  0
 29 30  1  0
 10 31  1  0
 31 32  2  0
  6  2  1  0
 32  7  1  0
 17 12  1  0
 25 20  1  0
 30 26  2  0
  1 33  1  0
  1 34  1  0
  1 35  1  0
  8 36  1  0
  9 37  1  0
 11 38  1  0
 11 39  1  0
 13 40  1  0
 13 41  1  0
 14 42  1  0
 14 43  1  0
 16 44  1  0
 16 45  1  0
 17 46  1  0
 17 47  1  0
 21 48  1  0
 22 49  1  0
 24 50  1  0
 25 51  1  0
 27 52  1  0
 28 53  1  0
 29 54  1  0
 31 55  1  0
 32 56  1  0
M  END
$$$$
[H]c1c([H])c(S(=O)(=O)N([H])C2=C(C#N)C(c3c([H])c([H])c(OC(F)(F)F)c([H])c3[H])(C([H])(C([H])([H])[H])C([H])([H])[H])C(=O)N2C([H])(C([H])([H])[H])C([H])([H])[H])c([H])c([H])c1I
     RDKit          3D

 59 61  0  0  0  0  0  0  0  0999 V2000
    2.1463   -1.5771   -1.7639 C   0  0  0  0  0  0  0  0  0  0  0  0
    1.4574   -2.4176   -0.7173 C   0  0  0  0  0  0  0  0  0  0  0  0
    2.4299   -3.0866    0.2277 C   0  0  0  0  0  0  0  0  0  0  0  0
    0.4245   -1.6635    0.0113 N   0  0  0  0  0  0  0  0  0  0  0  0
   -0.9659   -1.8875   -0.0020 C   0  0  0  0  0  0  0  0  0  0  0  0
   -1.4714   -2.8149   -0.7165 O   0  0  0  0  0  0  0  0  0  0  0  0
   -1.6148   -0.9256    0.8862 C   0  0  0  0  0  0  0  0  0  0  0  0
   -0.4617   -0.1412    1.4024 C   0  0  0  0  0  0  0  0  0  0  0  0
   -0.5599    0.9337    2.3503 C   0  0  0  0  0  0  0  0  0  0  0  0
   -0.6577    1.8009    3.1455 N   0  0  0  0  0  0  0  0  0  0  0  0
    0.6728   -0.5762    0.8928 C   0  0  0  0  0  0  0  0  0  0  0  0
    1.9608   -0.0105    1.2137 N   0  0  0  0  0  0  0  0  0  0  0  0
    2.4672    1.5694    0.8881 S   0  0  0  0  0  0  0  0  0  0  0  0
    1.3117    2.3577    0.3240 O   0  0  0  0  0  0  0  0  0  0  0  0
    2.8941    2.3114    2.1465 O   0  0  0  0  0  0  0  0  0  0  0  0
    3.7983    1.7015   -0.2350 C   0  0  0  0  0  0  0  0  0  0  0  0
    3.5809    1.9687   -1.5684 C   0  0  0  0  0  0  0  0  0  0  0  0
    4.6119    2.0790   -2.4808 C   0  0  0  0  0  0  0  0  0  0  0  0
    5.9194    1.9220   -2.0781 C   0  0  0  0  0  0  0  0  0  0  0  0
    7.4769    2.0942   -3.4858 I   0  0  0  0  0  0  0  0  0  0  0  0
    6.1607    1.6544   -0.7501 C   0  0  0  0  0  0  0  0  0  0  0  0
    5.1149    1.5471    0.1511 C   0  0  0  0  0  0  0  0  0  0  0  0
   -2.2966   -1.6634    2.0523 C   0  0  0  0  0  0  0  0  0  0  0  0
   -1.2207   -2.4432    2.8219 C   0  0  0  0  0  0  0  0  0  0  0  0
   -3.3642   -2.6039    1.5778 C   0  0  0  0  0  0  0  0  0  0  0  0
   -2.5795   -0.0480    0.2501 C   0  0  0  0  0  0  0  0  0  0  0  0
   -2.3086    0.5398   -0.9979 C   0  0  0  0  0  0  0  0  0  0  0  0
   -3.2205    1.3802   -1.5974 C   0  0  0  0  0  0  0  0  0  0  0  0
   -4.4232    1.6658   -0.9869 C   0  0  0  0  0  0  0  0  0  0  0  0
   -5.3598    2.5235   -1.5936 O   0  0  0  0  0  0  0  0  0  0  0  0
   -5.2231    3.8976   -1.2634 C   0  0  0  0  0  0  0  0  0  0  0  0
   -6.1697    4.6697   -1.8917 F   0  0  0  0  0  0  0  0  0  0  0  0
   -3.9351    4.2692   -1.5971 F   0  0  0  0  0  0  0  0  0  0  0  0
   -5.3976    4.0805    0.1088 F   0  0  0  0  0  0  0  0  0  0  0  0
   -4.6901    1.0969    0.2255 C   0  0  0  0  0  0  0  0  0  0  0  0
   -3.7701    0.2501    0.8289 C   0  0  0  0  0  0  0  0  0  0  0  0
    1.9685   -1.9147   -2.7960 H   0  0  0  0  0  0  0  0  0  0  0  0
    1.6998   -0.5551   -1.6903 H   0  0  0  0  0  0  0  0  0  0  0  0
    3.2332   -1.5655   -1.5194 H   0  0  0  0  0  0  0  0  0  0  0  0
    0.9412   -3.2265   -1.2812 H   0  0  0  0  0  0  0  0  0  0  0  0
    2.0480   -3.1165    1.2630 H   0  0  0  0  0  0  0  0  0  0  0  0
    3.4297   -2.5827    0.2006 H   0  0  0  0  0  0  0  0  0  0  0  0
    2.6212   -4.1406   -0.0799 H   0  0  0  0  0  0  0  0  0  0  0  0
    2.6309   -0.6703    1.6982 H   0  0  0  0  0  0  0  0  0  0  0  0
    2.5658    2.1049   -1.9562 H   0  0  0  0  0  0  0  0  0  0  0  0
    4.4217    2.2908   -3.5325 H   0  0  0  0  0  0  0  0  0  0  0  0
    7.1854    1.5320   -0.4378 H   0  0  0  0  0  0  0  0  0  0  0  0
    5.2859    1.3368    1.2005 H   0  0  0  0  0  0  0  0  0  0  0  0
   -2.7173   -0.9756    2.7960 H   0  0  0  0  0  0  0  0  0  0  0  0
   -0.6625   -3.1068    2.1398 H   0  0  0  0  0  0  0  0  0  0  0  0
   -1.7544   -3.0044    3.6179 H   0  0  0  0  0  0  0  0  0  0  0  0
   -0.5973   -1.6798    3.3185 H   0  0  0  0  0  0  0  0  0  0  0  0
   -3.5786   -2.3987    0.5005 H   0  0  0  0  0  0  0  0  0  0  0  0
   -4.2452   -2.5042    2.2177 H   0  0  0  0  0  0  0  0  0  0  0  0
   -3.0549   -3.6672    1.6174 H   0  0  0  0  0  0  0  0  0  0  0  0
   -1.3766    0.3422   -1.5113 H   0  0  0  0  0  0  0  0  0  0  0  0
   -3.0271    1.8401   -2.5568 H   0  0  0  0  0  0  0  0  0  0  0  0
   -5.6313    1.3330    0.6819 H   0  0  0  0  0  0  0  0  0  0  0  0
   -4.1237   -0.1253    1.8032 H   0  0  0  0  0  0  0  0  0  0  0  0
  1  2  1  0
  2  3  1  0
  2  4  1  0
  4  5  1  0
  5  6  2  0
  5  7  1  0
  7  8  1  0
  8  9  1  0
  9 10  3  0
  8 11  2  0
 11 12  1  0
 12 13  1  0
 13 14  2  0
 13 15  2  0
 13 16  1  0
 16 17  2  0
 17 18  1  0
 18 19  2  0
 19 20  1  0
 19 21  1  0
 21 22  2  0
  7 23  1  0
 23 24  1  0
 23 25  1  0
  7 26  1  0
 26 27  2  0
 27 28  1  0
 28 29  2  0
 29 30  1  0
 30 31  1  0
 31 32  1  0
 31 33  1  0
 31 34  1  0
 29 35  1  0
 35 36  2  0
 11  4  1  0
 22 16  1  0
 36 26  1  0
  1 37  1  0
  1 38  1  0
  1 39  1  0
  2 40  1  0
  3 41  1  0
  3 42  1  0
  3 43  1  0
 12 44  1  0
 17 45  1  0
 18 46  1  0
 21 47  1  0
 22 48  1  0
 23 49  1  0
 24 50  1  0
 24 51  1  0
 24 52  1  0
 25 53  1  0
 25 54  1  0
 25 55  1  0
 27 56  1  0
 28 57  1  0
 35 58  1  0
 36 59  1  0
M  END
$$$$
[H]c1c([H])c(Cl)c(N([H])c2nc3c([H])c(-c4nn([H])c(N([H])C([H])([H])C([H])([H])C([H])([H])N5C([H])([H])C([H])([H])N(C([H])([H])[H])C([H])([H])C5([H])[H])c4[H])c([H])c([H])c3n2C([H])([H])[H])c([H])c1Cl
     RDKit          3D

 65 69  0  0  0  0  0  0  0  0999 V2000
   -7.4244   -0.8888   -3.2115 C   0  0  0  0  0  0  0  0  0  0  0  0
   -7.4670   -0.5120   -1.8228 N   0  0  0  0  0  0  0  0  0  0  0  0
   -6.1622   -0.6520   -1.2101 C   0  0  0  0  0  0  0  0  0  0  0  0
   -5.4241    0.6414   -1.3553 C   0  0  0  0  0  0  0  0  0  0  0  0
   -6.0331    1.6162   -0.5116 N   0  0  0  0  0  0  0  0  0  0  0  0
   -5.3017    1.9976    0.6488 C   0  0  0  0  0  0  0  0  0  0  0  0
   -5.1741    0.9011    1.6856 C   0  0  0  0  0  0  0  0  0  0  0  0
   -4.3831    1.4608    2.8393 C   0  0  0  0  0  0  0  0  0  0  0  0
   -3.0631    1.9110    2.4967 N   0  0  0  0  0  0  0  0  0  0  0  0
   -1.9879    1.0640    2.0977 C   0  0  0  0  0  0  0  0  0  0  0  0
   -0.6935    1.4612    1.7549 C   0  0  0  0  0  0  0  0  0  0  0  0
    0.0591    0.3553    1.4453 C   0  0  0  0  0  0  0  0  0  0  0  0
   -0.7535   -0.6973    1.5944 N   0  0  0  0  0  0  0  0  0  0  0  0
   -1.9674   -0.2725    1.9819 N   0  0  0  0  0  0  0  0  0  0  0  0
    1.4609    0.2926    1.0345 C   0  0  0  0  0  0  0  0  0  0  0  0
    2.2339    1.4268    0.9055 C   0  0  0  0  0  0  0  0  0  0  0  0
    3.5491    1.4066    0.5252 C   0  0  0  0  0  0  0  0  0  0  0  0
    4.1454    0.1827    0.2526 C   0  0  0  0  0  0  0  0  0  0  0  0
    5.4191   -0.1600   -0.1412 N   0  0  0  0  0  0  0  0  0  0  0  0
    6.4120    0.8519   -0.4289 C   0  0  0  0  0  0  0  0  0  0  0  0
    5.4928   -1.4649   -0.2647 C   0  0  0  0  0  0  0  0  0  0  0  0
    6.5553   -2.3469   -0.5362 N   0  0  0  0  0  0  0  0  0  0  0  0
    7.9161   -2.2351   -0.4839 C   0  0  0  0  0  0  0  0  0  0  0  0
    8.6850   -3.0864   -1.3139 C   0  0  0  0  0  0  0  0  0  0  0  0
    7.8620   -4.1497   -2.4434 Cl  0  0  0  0  0  0  0  0  0  0  0  0
   10.0582   -3.0974   -1.2554 C   0  0  0  0  0  0  0  0  0  0  0  0
   10.7517   -2.2911   -0.3966 C   0  0  0  0  0  0  0  0  0  0  0  0
   10.0303   -1.4555    0.4217 C   0  0  0  0  0  0  0  0  0  0  0  0
   10.8855   -0.4159    1.5264 Cl  0  0  0  0  0  0  0  0  0  0  0  0
    8.6306   -1.4492    0.3583 C   0  0  0  0  0  0  0  0  0  0  0  0
    4.2475   -1.9484    0.0508 N   0  0  0  0  0  0  0  0  0  0  0  0
    3.4078   -0.9678    0.3702 C   0  0  0  0  0  0  0  0  0  0  0  0
    2.0814   -0.9069    0.7570 C   0  0  0  0  0  0  0  0  0  0  0  0
   -7.4353    1.4379   -0.3329 C   0  0  0  0  0  0  0  0  0  0  0  0
   -7.9891    0.8055   -1.6148 C   0  0  0  0  0  0  0  0  0  0  0  0
   -6.5866   -1.6174   -3.4176 H   0  0  0  0  0  0  0  0  0  0  0  0
   -7.2628   -0.0330   -3.8948 H   0  0  0  0  0  0  0  0  0  0  0  0
   -8.3565   -1.3962   -3.5469 H   0  0  0  0  0  0  0  0  0  0  0  0
   -6.3659   -0.9279   -0.1377 H   0  0  0  0  0  0  0  0  0  0  0  0
   -5.6466   -1.5015   -1.7278 H   0  0  0  0  0  0  0  0  0  0  0  0
   -4.3302    0.5389   -1.2017 H   0  0  0  0  0  0  0  0  0  0  0  0
   -5.5499    0.9779   -2.4120 H   0  0  0  0  0  0  0  0  0  0  0  0
   -5.8827    2.8241    1.1414 H   0  0  0  0  0  0  0  0  0  0  0  0
   -4.3087    2.4332    0.4241 H   0  0  0  0  0  0  0  0  0  0  0  0
   -4.7027    0.0044    1.3142 H   0  0  0  0  0  0  0  0  0  0  0  0
   -6.1792    0.6191    2.0663 H   0  0  0  0  0  0  0  0  0  0  0  0
   -4.2464    0.6717    3.6254 H   0  0  0  0  0  0  0  0  0  0  0  0
   -4.9171    2.3036    3.3399 H   0  0  0  0  0  0  0  0  0  0  0  0
   -2.8199    2.9566    2.5291 H   0  0  0  0  0  0  0  0  0  0  0  0
   -0.3563    2.4822    1.7414 H   0  0  0  0  0  0  0  0  0  0  0  0
   -2.7485   -0.9307    2.1617 H   0  0  0  0  0  0  0  0  0  0  0  0
    1.7635    2.3751    1.1190 H   0  0  0  0  0  0  0  0  0  0  0  0
    4.1527    2.3061    0.4264 H   0  0  0  0  0  0  0  0  0  0  0  0
    7.0433    0.6222   -1.3137 H   0  0  0  0  0  0  0  0  0  0  0  0
    6.9769    1.1911    0.4602 H   0  0  0  0  0  0  0  0  0  0  0  0
    5.8467    1.7786   -0.7536 H   0  0  0  0  0  0  0  0  0  0  0  0
    6.2148   -3.3519   -0.8653 H   0  0  0  0  0  0  0  0  0  0  0  0
   10.6444   -3.7557   -1.8974 H   0  0  0  0  0  0  0  0  0  0  0  0
   11.8254   -2.3121   -0.3643 H   0  0  0  0  0  0  0  0  0  0  0  0
    8.1671   -0.8019    1.0700 H   0  0  0  0  0  0  0  0  0  0  0  0
    1.5035   -1.8291    0.8471 H   0  0  0  0  0  0  0  0  0  0  0  0
   -7.7198    0.8339    0.5477 H   0  0  0  0  0  0  0  0  0  0  0  0
   -7.9334    2.4276   -0.2500 H   0  0  0  0  0  0  0  0  0  0  0  0
   -9.0954    0.7886   -1.5332 H   0  0  0  0  0  0  0  0  0  0  0  0
   -7.7535    1.5078   -2.4412 H   0  0  0  0  0  0  0  0  0  0  0  0
  1  2  1  0
  2  3  1  0
  3  4  1  0
  4  5  1  0
  5  6  1  0
  6  7  1  0
  7  8  1  0
  8  9  1  0
  9 10  1  0
 10 11  2  0
 11 12  1  0
 12 13  2  0
 13 14  1  0
 12 15  1  0
 15 16  2  0
 16 17  1  0
 17 18  2  0
 18 19  1  0
 19 20  1  0
 19 21  1  0
 21 22  1  0
 22 23  1  0
 23 24  2  0
 24 25  1  0
 24 26  1  0
 26 27  2  0
 27 28  1  0
 28 29  1  0
 28 30  2  0
 21 31  2  0
 31 32  1  0
 32 33  2  0
  5 34  1  0
 34 35  1  0
 35  2  1  0
 14 10  1  0
 33 15  1  0
 32 18  1  0
 30 23  1  0
  1 36  1  0
  1 37  1  0
  1 38  1  0
  3 39  1  0
  3 40  1  0
  4 41  1  0
  4 42  1  0
  6 43  1  0
  6 44  1  0
  7 45  1  0
  7 46  1  0
  8 47  1  0
  8 48  1  0
  9 49  1  0
 11 50  1  0
 14 51  1  0
 16 52  1  0
 17 53  1  0
 20 54  1  0
 20 55  1  0
 20 56  1  0
 22 57  1  0
 26 58  1  0
 27 59  1  0
 30 60  1  0
 33 61  1  0
 34 62  1  0
 34 63  1  0
 35 64  1  0
 35 65  1  0
M  END
$$$$
[H]OC([H])([H])C([H])([H])c1nc(-c2c([H])c([H])c(F)c(C([H])([H])[H])c2[H])n2c1C([H])([H])C([H])([H])O[C@]([H])(C([H])([H])[H])C2([H])[H]
     RDKit          3D

 43 45  0  0  0  0  0  0  0  0999 V2000
   -1.6277    3.9300   -0.1983 C   0  0  0  0  0  0  0  0  0  0  0  0
   -1.8801    2.4414    0.1021 C   0  0  2  0  0  0  0  0  0  0  0  0
   -0.4837    1.9125    0.4830 C   0  0  0  0  0  0  0  0  0  0  0  0
   -0.4597    0.4617    0.4623 N   0  0  0  0  0  0  0  0  0  0  0  0
   -1.5660   -0.3427    0.4918 C   0  0  0  0  0  0  0  0  0  0  0  0
   -2.9578    0.0894    0.6177 C   0  0  0  0  0  0  0  0  0  0  0  0
   -3.4115    0.9512   -0.5343 C   0  0  0  0  0  0  0  0  0  0  0  0
   -2.4087    1.7968   -0.9839 O   0  0  0  0  0  0  0  0  0  0  0  0
   -1.1046   -1.6368    0.3974 C   0  0  0  0  0  0  0  0  0  0  0  0
   -1.9411   -2.8798    0.3793 C   0  0  0  0  0  0  0  0  0  0  0  0
   -2.5688   -3.0675   -0.9779 C   0  0  0  0  0  0  0  0  0  0  0  0
   -3.3548   -4.2049   -1.0413 O   0  0  0  0  0  0  0  0  0  0  0  0
    0.2151   -1.5566    0.3195 N   0  0  0  0  0  0  0  0  0  0  0  0
    0.6369   -0.2589    0.3599 C   0  0  0  0  0  0  0  0  0  0  0  0
    2.0648    0.0737    0.2535 C   0  0  0  0  0  0  0  0  0  0  0  0
    2.5537    1.2970    0.5892 C   0  0  0  0  0  0  0  0  0  0  0  0
    3.9255    1.5221    0.3873 C   0  0  0  0  0  0  0  0  0  0  0  0
    4.7414    0.5463   -0.1270 C   0  0  0  0  0  0  0  0  0  0  0  0
    6.0642    0.7949   -0.3098 F   0  0  0  0  0  0  0  0  0  0  0  0
    4.2650   -0.7004   -0.4720 C   0  0  0  0  0  0  0  0  0  0  0  0
    5.1762   -1.7314   -1.0282 C   0  0  0  0  0  0  0  0  0  0  0  0
    2.9275   -0.9094   -0.2721 C   0  0  0  0  0  0  0  0  0  0  0  0
   -1.1592    4.3434    0.7184 H   0  0  0  0  0  0  0  0  0  0  0  0
   -0.9051    4.0075   -1.0530 H   0  0  0  0  0  0  0  0  0  0  0  0
   -2.5603    4.4678   -0.3909 H   0  0  0  0  0  0  0  0  0  0  0  0
   -2.5246    2.4511    0.9978 H   0  0  0  0  0  0  0  0  0  0  0  0
   -0.3016    2.3562    1.4729 H   0  0  0  0  0  0  0  0  0  0  0  0
    0.1903    2.3255   -0.3193 H   0  0  0  0  0  0  0  0  0  0  0  0
   -3.1353    0.6392    1.5892 H   0  0  0  0  0  0  0  0  0  0  0  0
   -3.6767   -0.7555    0.6680 H   0  0  0  0  0  0  0  0  0  0  0  0
   -4.3279    1.4943   -0.2311 H   0  0  0  0  0  0  0  0  0  0  0  0
   -3.6303    0.2544   -1.3896 H   0  0  0  0  0  0  0  0  0  0  0  0
   -2.6849   -2.8649    1.1949 H   0  0  0  0  0  0  0  0  0  0  0  0
   -1.2767   -3.7530    0.5532 H   0  0  0  0  0  0  0  0  0  0  0  0
   -3.2259   -2.1971   -1.1691 H   0  0  0  0  0  0  0  0  0  0  0  0
   -1.7457   -3.0923   -1.7257 H   0  0  0  0  0  0  0  0  0  0  0  0
   -2.8653   -4.9549   -1.4537 H   0  0  0  0  0  0  0  0  0  0  0  0
    1.9773    2.1092    1.0317 H   0  0  0  0  0  0  0  0  0  0  0  0
    4.3007    2.5132    0.6625 H   0  0  0  0  0  0  0  0  0  0  0  0
    6.0296   -1.2093   -1.5040 H   0  0  0  0  0  0  0  0  0  0  0  0
    4.6117   -2.3636   -1.7427 H   0  0  0  0  0  0  0  0  0  0  0  0
    5.5693   -2.4062   -0.2382 H   0  0  0  0  0  0  0  0  0  0  0  0
    2.5346   -1.8934   -0.5416 H   0  0  0  0  0  0  0  0  0  0  0  0
  1  2  1  0
  2  3  1  0
  3  4  1  0
  4  5  1  0
  5  6  1  0
  6  7  1  0
  7  8  1  0
  5  9  2  0
  9 10  1  0
 10 11  1  0
 11 12  1  0
  9 13  1  0
 13 14  2  0
 14 15  1  0
 15 16  2  0
 16 17  1  0
 17 18  2  0
 18 19  1  0
 18 20  1  0
 20 21  1  0
 20 22  2  0
  8  2  1  0
 22 15  1  0
 14  4  1  0
  1 23  1  0
  1 24  1  0
  1 25  1  0
  2 26  1  1
  3 27  1  0
  3 28  1  0
  6 29  1  0
  6 30  1  0
  7 31  1  0
  7 32  1  0
 10 33  1  0
 10 34  1  0
 11 35  1  0
 11 36  1  0
 12 37  1  0
 16 38  1  0
 17 39  1  0
 21 40  1  0
 21 41  1  0
 21 42  1  0
 22 43  1  0
M  END
$$$$
[H]c1nc([H])c([H])c(-c2c([H])n([H])c3nc([H])c(-c4c([H])nc([H])c(C([H])([H])C([H])([H])N(C([H])([H])[H])C([H])([H])[H])c4[H])c([H])c23)c1[H]
     RDKit          3D

 47 50  0  0  0  0  0  0  0  0999 V2000
    5.8369    1.1000   -0.9010 C   0  0  0  0  0  0  0  0  0  0  0  0
    5.8187   -0.3255   -0.6575 N   0  0  0  0  0  0  0  0  0  0  0  0
    6.2457   -1.0757   -1.8146 C   0  0  0  0  0  0  0  0  0  0  0  0
    4.4547   -0.7038   -0.3555 C   0  0  0  0  0  0  0  0  0  0  0  0
    4.1018   -0.1050    0.9876 C   0  0  0  0  0  0  0  0  0  0  0  0
    2.6831   -0.4981    1.3083 C   0  0  0  0  0  0  0  0  0  0  0  0
    2.4395   -1.6684    2.0008 C   0  0  0  0  0  0  0  0  0  0  0  0
    1.1588   -1.9794    2.2663 N   0  0  0  0  0  0  0  0  0  0  0  0
    0.1264   -1.2034    1.8873 C   0  0  0  0  0  0  0  0  0  0  0  0
    0.3144   -0.0256    1.1943 C   0  0  0  0  0  0  0  0  0  0  0  0
    1.6253    0.3003    0.9181 C   0  0  0  0  0  0  0  0  0  0  0  0
   -0.7611    0.8547    0.7621 C   0  0  0  0  0  0  0  0  0  0  0  0
   -0.6073    2.2268    0.6540 C   0  0  0  0  0  0  0  0  0  0  0  0
   -1.6080    3.0342    0.2582 N   0  0  0  0  0  0  0  0  0  0  0  0
   -2.8383    2.5709   -0.0640 C   0  0  0  0  0  0  0  0  0  0  0  0
   -3.9818    3.1452   -0.4772 N   0  0  0  0  0  0  0  0  0  0  0  0
   -4.9423    2.2430   -0.6676 C   0  0  0  0  0  0  0  0  0  0  0  0
   -4.3623    1.0103   -0.3516 C   0  0  0  0  0  0  0  0  0  0  0  0
   -5.0061   -0.2939   -0.3947 C   0  0  0  0  0  0  0  0  0  0  0  0
   -4.9253   -1.2311    0.5945 C   0  0  0  0  0  0  0  0  0  0  0  0
   -5.5869   -2.4469    0.4332 C   0  0  0  0  0  0  0  0  0  0  0  0
   -6.2866   -2.6873   -0.6711 N   0  0  0  0  0  0  0  0  0  0  0  0
   -6.3941   -1.8027   -1.6638 C   0  0  0  0  0  0  0  0  0  0  0  0
   -5.7452   -0.5885   -1.5249 C   0  0  0  0  0  0  0  0  0  0  0  0
   -3.0485    1.1975    0.0271 C   0  0  0  0  0  0  0  0  0  0  0  0
   -2.0202    0.3677    0.4338 C   0  0  0  0  0  0  0  0  0  0  0  0
    6.5062    1.6532   -0.2096 H   0  0  0  0  0  0  0  0  0  0  0  0
    6.1761    1.2325   -1.9698 H   0  0  0  0  0  0  0  0  0  0  0  0
    4.8266    1.5530   -0.8331 H   0  0  0  0  0  0  0  0  0  0  0  0
    7.2260   -0.6343   -2.1434 H   0  0  0  0  0  0  0  0  0  0  0  0
    5.4900   -1.1071   -2.6057 H   0  0  0  0  0  0  0  0  0  0  0  0
    6.4391   -2.1260   -1.4435 H   0  0  0  0  0  0  0  0  0  0  0  0
    3.7472   -0.3378   -1.1310 H   0  0  0  0  0  0  0  0  0  0  0  0
    4.3275   -1.7983   -0.2728 H   0  0  0  0  0  0  0  0  0  0  0  0
    4.7577   -0.5383    1.7685 H   0  0  0  0  0  0  0  0  0  0  0  0
    4.1562    0.9804    0.9968 H   0  0  0  0  0  0  0  0  0  0  0  0
    3.2611   -2.3018    2.3113 H   0  0  0  0  0  0  0  0  0  0  0  0
   -0.8791   -1.5007    2.1264 H   0  0  0  0  0  0  0  0  0  0  0  0
    1.8597    1.2184    0.3722 H   0  0  0  0  0  0  0  0  0  0  0  0
    0.3903    2.6004    0.9153 H   0  0  0  0  0  0  0  0  0  0  0  0
   -4.1176    4.1662   -0.6340 H   0  0  0  0  0  0  0  0  0  0  0  0
   -5.9692    2.3386   -0.9910 H   0  0  0  0  0  0  0  0  0  0  0  0
   -4.3530   -1.0067    1.4759 H   0  0  0  0  0  0  0  0  0  0  0  0
   -5.5267   -3.1851    1.2072 H   0  0  0  0  0  0  0  0  0  0  0  0
   -6.9732   -2.0276   -2.5549 H   0  0  0  0  0  0  0  0  0  0  0  0
   -5.8461    0.1130   -2.3426 H   0  0  0  0  0  0  0  0  0  0  0  0
   -2.1901   -0.7071    0.5015 H   0  0  0  0  0  0  0  0  0  0  0  0
  1  2  1  0
  2  3  1  0
  2  4  1  0
  4  5  1  0
  5  6  1  0
  6  7  2  0
  7  8  1  0
  8  9  2  0
  9 10  1  0
 10 11  2  0
 10 12  1  0
 12 13  2  0
 13 14  1  0
 14 15  2  0
 15 16  1  0
 16 17  1  0
 17 18  2  0
 18 19  1  0
 19 20  2  0
 20 21  1  0
 21 22  2  0
 22 23  1  0
 23 24  2  0
 18 25  1  0
 25 26  2  0
 11  6  1  0
 26 12  1  0
 25 15  1  0
 24 19  1  0
  1 27  1  0
  1 28  1  0
  1 29  1  0
  3 30  1  0
  3 31  1  0
  3 32  1  0
  4 33  1  0
  4 34  1  0
  5 35  1  0
  5 36  1  0
  7 37  1  0
  9 38  1  0
 11 39  1  0
 13 40  1  0
 16 41  1  0
 17 42  1  0
 20 43  1  0
 21 44  1  0
 23 45  1  0
 24 46  1  0
 26 47  1  0
M  END
$$$$
[H]c1nc(N2C([H])([H])C([H])([H])OC([H])([H])C2([H])[H])c([H])c(C#Cc2c([H])c([H])c(OC3([H])C4([H])ON=C5C([H])([H])C([H])([H])C([H])([H])C5([H])C3([H])OC4([H])[H])c([H])c2[H])c1[H]
     RDKit          3D

 60 65  0  0  0  0  0  0  0  0999 V2000
    6.2191    1.4279   -2.8978 C   0  0  0  0  0  0  0  0  0  0  0  0
    6.2262    2.0654   -1.6859 O   0  0  0  0  0  0  0  0  0  0  0  0
    5.8027    1.1672   -0.7099 C   0  0  0  0  0  0  0  0  0  0  0  0
    4.7447    0.3587   -1.4196 C   0  0  0  0  0  0  0  0  0  0  0  0
    5.3909    0.1770   -2.7781 C   0  0  0  0  0  0  0  0  0  0  0  0
    6.2528   -0.9536   -2.7211 O   0  0  0  0  0  0  0  0  0  0  0  0
    6.6671   -1.6125   -1.5696 N   0  0  0  0  0  0  0  0  0  0  0  0
    6.9441   -1.0497   -0.4470 C   0  0  0  0  0  0  0  0  0  0  0  0
    7.3810   -1.8242    0.7406 C   0  0  0  0  0  0  0  0  0  0  0  0
    7.8131   -0.7677    1.7417 C   0  0  0  0  0  0  0  0  0  0  0  0
    6.8624    0.3614    1.4096 C   0  0  0  0  0  0  0  0  0  0  0  0
    6.9018    0.3737   -0.1036 C   0  0  0  0  0  0  0  0  0  0  0  0
    3.5838    1.1160   -1.4656 O   0  0  0  0  0  0  0  0  0  0  0  0
    2.3505    0.8475   -0.9606 C   0  0  0  0  0  0  0  0  0  0  0  0
    1.3362    1.7635   -1.1328 C   0  0  0  0  0  0  0  0  0  0  0  0
    0.0582    1.5416   -0.6386 C   0  0  0  0  0  0  0  0  0  0  0  0
   -0.2045    0.3699    0.0451 C   0  0  0  0  0  0  0  0  0  0  0  0
    0.8204   -0.5279    0.2049 C   0  0  0  0  0  0  0  0  0  0  0  0
    2.1136   -0.3202   -0.2866 C   0  0  0  0  0  0  0  0  0  0  0  0
   -1.5272    0.1072    0.5741 C   0  0  0  0  0  0  0  0  0  0  0  0
   -2.6234   -0.1206    1.0326 C   0  0  0  0  0  0  0  0  0  0  0  0
   -3.9169   -0.4056    1.5953 C   0  0  0  0  0  0  0  0  0  0  0  0
   -4.1030   -0.7578    2.9148 C   0  0  0  0  0  0  0  0  0  0  0  0
   -5.3590   -1.0279    3.4345 C   0  0  0  0  0  0  0  0  0  0  0  0
   -6.3844   -0.9343    2.6097 N   0  0  0  0  0  0  0  0  0  0  0  0
   -6.3240   -0.5980    1.2980 C   0  0  0  0  0  0  0  0  0  0  0  0
   -5.0715   -0.3352    0.8053 C   0  0  0  0  0  0  0  0  0  0  0  0
   -7.5250   -0.5492    0.5590 N   0  0  0  0  0  0  0  0  0  0  0  0
   -7.5289   -0.1139   -0.8071 C   0  0  0  0  0  0  0  0  0  0  0  0
   -8.6855    0.8879   -0.9553 C   0  0  0  0  0  0  0  0  0  0  0  0
   -9.8496    0.1957   -0.6515 O   0  0  0  0  0  0  0  0  0  0  0  0
   -9.9034   -0.0670    0.7157 C   0  0  0  0  0  0  0  0  0  0  0  0
   -8.7683   -0.9452    1.1711 C   0  0  0  0  0  0  0  0  0  0  0  0
    5.7933    2.0581   -3.6818 H   0  0  0  0  0  0  0  0  0  0  0  0
    7.2436    1.1523   -3.2222 H   0  0  0  0  0  0  0  0  0  0  0  0
    5.3003    1.7300    0.1204 H   0  0  0  0  0  0  0  0  0  0  0  0
    4.6339   -0.5969   -0.8957 H   0  0  0  0  0  0  0  0  0  0  0  0
    4.6833    0.0203   -3.5882 H   0  0  0  0  0  0  0  0  0  0  0  0
    8.2186   -2.5201    0.4962 H   0  0  0  0  0  0  0  0  0  0  0  0
    6.5604   -2.4600    1.1567 H   0  0  0  0  0  0  0  0  0  0  0  0
    8.8485   -0.4749    1.5621 H   0  0  0  0  0  0  0  0  0  0  0  0
    7.6250   -1.1032    2.7822 H   0  0  0  0  0  0  0  0  0  0  0  0
    5.8507    0.1369    1.7796 H   0  0  0  0  0  0  0  0  0  0  0  0
    7.2837    1.3109    1.8321 H   0  0  0  0  0  0  0  0  0  0  0  0
    7.8694    0.8472   -0.3777 H   0  0  0  0  0  0  0  0  0  0  0  0
    1.4976    2.6923   -1.6611 H   0  0  0  0  0  0  0  0  0  0  0  0
   -0.7272    2.2589   -0.7760 H   0  0  0  0  0  0  0  0  0  0  0  0
    0.6002   -1.4427    0.7431 H   0  0  0  0  0  0  0  0  0  0  0  0
    2.8471   -1.0936   -0.1047 H   0  0  0  0  0  0  0  0  0  0  0  0
   -3.2390   -0.8203    3.5448 H   0  0  0  0  0  0  0  0  0  0  0  0
   -5.5292   -1.3060    4.4656 H   0  0  0  0  0  0  0  0  0  0  0  0
   -4.9454   -0.0656   -0.2215 H   0  0  0  0  0  0  0  0  0  0  0  0
   -7.7455   -0.9767   -1.4976 H   0  0  0  0  0  0  0  0  0  0  0  0
   -6.6298    0.3862   -1.1606 H   0  0  0  0  0  0  0  0  0  0  0  0
   -8.5566    1.6627   -0.1545 H   0  0  0  0  0  0  0  0  0  0  0  0
   -8.7005    1.3515   -1.9411 H   0  0  0  0  0  0  0  0  0  0  0  0
  -10.8483   -0.6226    0.8862 H   0  0  0  0  0  0  0  0  0  0  0  0
   -9.9343    0.8645    1.2801 H   0  0  0  0  0  0  0  0  0  0  0  0
   -8.9881   -2.0248    1.0225 H   0  0  0  0  0  0  0  0  0  0  0  0
   -8.7056   -0.8147    2.2901 H   0  0  0  0  0  0  0  0  0  0  0  0
  1  2  1  0
  2  3  1  0
  3  4  1  0
  4  5  1  0
  5  6  1  0
  6  7  1  0
  7  8  2  0
  8  9  1  0
  9 10  1  0
 10 11  1  0
 11 12  1  0
  4 13  1  0
 13 14  1  0
 14 15  2  0
 15 16  1  0
 16 17  2  0
 17 18  1  0
 18 19  2  0
 17 20  1  0
 20 21  3  0
 21 22  1  0
 22 23  2  0
 23 24  1  0
 24 25  2  0
 25 26  1  0
 26 27  2  0
 26 28  1  0
 28 29  1  0
 29 30  1  0
 30 31  1  0
 31 32  1  0
 32 33  1  0
  5  1  1  0
 12  8  1  0
 19 14  1  0
 27 22  1  0
 33 28  1  0
 12  3  1  0
  1 34  1  0
  1 35  1  0
  3 36  1  0
  4 37  1  0
  5 38  1  0
  9 39  1  0
  9 40  1  0
 10 41  1  0
 10 42  1  0
 11 43  1  0
 11 44  1  0
 12 45  1  0
 15 46  1  0
 16 47  1  0
 18 48  1  0
 19 49  1  0
 23 50  1  0
 24 51  1  0
 27 52  1  0
 29 53  1  0
 29 54  1  0
 30 55  1  0
 30 56  1  0
 32 57  1  0
 32 58  1  0
 33 59  1  0
 33 60  1  0
M  END
$$$$
[H]N=C(c1c([H])c([H])c([H])c([H])c1[H])c1c([H])c([H])c([H])c2c(N([H])[C@@]([H])(C([H])([H])[H])[C@@]([H])(O[H])c3c([H])c([H])c([H])c(N4C([H])([H])C([H])([H])OC([H])([H])C4([H])[H])c3[H])nc([H])nc12
     RDKit          3D

 64 68  0  0  0  0  0  0  0  0999 V2000
   -1.3945   -4.9253    0.4767 C   0  0  0  0  0  0  0  0  0  0  0  0
   -1.3907   -3.3729    0.2799 C   0  0  2  0  0  0  0  0  0  0  0  0
   -0.0208   -2.9849    0.5768 N   0  0  0  0  0  0  0  0  0  0  0  0
    0.5730   -1.8695   -0.0668 C   0  0  0  0  0  0  0  0  0  0  0  0
   -0.0953   -1.1966   -1.0262 N   0  0  0  0  0  0  0  0  0  0  0  0
    0.4699   -0.1723   -1.6579 C   0  0  0  0  0  0  0  0  0  0  0  0
    1.7114    0.2385   -1.3801 N   0  0  0  0  0  0  0  0  0  0  0  0
    2.4219   -0.4083   -0.4224 C   0  0  0  0  0  0  0  0  0  0  0  0
    3.7158    0.0387   -0.1563 C   0  0  0  0  0  0  0  0  0  0  0  0
    4.4078   -0.6315    0.8097 C   0  0  0  0  0  0  0  0  0  0  0  0
    3.8915   -1.7068    1.5114 C   0  0  0  0  0  0  0  0  0  0  0  0
    2.6116   -2.1099    1.2116 C   0  0  0  0  0  0  0  0  0  0  0  0
    1.8626   -1.4551    0.2327 C   0  0  0  0  0  0  0  0  0  0  0  0
    4.1807    1.2226   -0.8527 C   0  0  0  0  0  0  0  0  0  0  0  0
    3.2602    1.8740   -1.5253 N   0  0  0  0  0  0  0  0  0  0  0  0
    5.5159    1.7315   -0.8419 C   0  0  0  0  0  0  0  0  0  0  0  0
    5.7101    3.0989   -1.1030 C   0  0  0  0  0  0  0  0  0  0  0  0
    6.9540    3.6691   -1.2193 C   0  0  0  0  0  0  0  0  0  0  0  0
    8.0538    2.8653   -1.0732 C   0  0  0  0  0  0  0  0  0  0  0  0
    7.9310    1.5121   -0.8156 C   0  0  0  0  0  0  0  0  0  0  0  0
    6.6464    0.9722   -0.7062 C   0  0  0  0  0  0  0  0  0  0  0  0
   -2.3124   -2.8405    1.3363 C   0  0  1  0  0  0  0  0  0  0  0  0
   -1.9714   -3.3747    2.6027 O   0  0  0  0  0  0  0  0  0  0  0  0
   -2.4697   -1.3833    1.4155 C   0  0  0  0  0  0  0  0  0  0  0  0
   -1.6644   -0.5912    2.2413 C   0  0  0  0  0  0  0  0  0  0  0  0
   -1.8216    0.7769    2.3115 C   0  0  0  0  0  0  0  0  0  0  0  0
   -2.7877    1.3861    1.5574 C   0  0  0  0  0  0  0  0  0  0  0  0
   -3.6268    0.6524    0.7105 C   0  0  0  0  0  0  0  0  0  0  0  0
   -3.4244   -0.7133    0.6806 C   0  0  0  0  0  0  0  0  0  0  0  0
   -4.6205    1.2946   -0.0667 N   0  0  0  0  0  0  0  0  0  0  0  0
   -5.4764    0.5087   -0.9046 C   0  0  0  0  0  0  0  0  0  0  0  0
   -6.4810    1.2909   -1.6746 C   0  0  0  0  0  0  0  0  0  0  0  0
   -6.1277    2.5874   -1.9488 O   0  0  0  0  0  0  0  0  0  0  0  0
   -5.9554    3.2431   -0.7296 C   0  0  0  0  0  0  0  0  0  0  0  0
   -4.7521    2.7243   -0.0031 C   0  0  0  0  0  0  0  0  0  0  0  0
   -2.4305   -5.2253    0.2950 H   0  0  0  0  0  0  0  0  0  0  0  0
   -1.1728   -5.0584    1.5556 H   0  0  0  0  0  0  0  0  0  0  0  0
   -0.6445   -5.3809   -0.1664 H   0  0  0  0  0  0  0  0  0  0  0  0
   -1.7003   -3.1967   -0.7464 H   0  0  0  0  0  0  0  0  0  0  0  0
    0.4956   -3.5426    1.2632 H   0  0  0  0  0  0  0  0  0  0  0  0
   -0.0786    0.3758   -2.4419 H   0  0  0  0  0  0  0  0  0  0  0  0
    5.3936   -0.3198    1.1221 H   0  0  0  0  0  0  0  0  0  0  0  0
    4.4529   -2.2291    2.2737 H   0  0  0  0  0  0  0  0  0  0  0  0
    2.1802   -2.9290    1.7294 H   0  0  0  0  0  0  0  0  0  0  0  0
    3.3786    2.7128   -2.0720 H   0  0  0  0  0  0  0  0  0  0  0  0
    4.8099    3.7036   -1.2005 H   0  0  0  0  0  0  0  0  0  0  0  0
    7.0579    4.7398   -1.4238 H   0  0  0  0  0  0  0  0  0  0  0  0
    9.0242    3.2871   -1.1584 H   0  0  0  0  0  0  0  0  0  0  0  0
    8.8251    0.9229   -0.7084 H   0  0  0  0  0  0  0  0  0  0  0  0
    6.6432   -0.1098   -0.5529 H   0  0  0  0  0  0  0  0  0  0  0  0
   -3.3231   -3.3397    1.1379 H   0  0  0  0  0  0  0  0  0  0  0  0
   -1.0291   -3.2792    2.8070 H   0  0  0  0  0  0  0  0  0  0  0  0
   -0.8983   -1.0646    2.8411 H   0  0  0  0  0  0  0  0  0  0  0  0
   -1.1896    1.3979    2.9595 H   0  0  0  0  0  0  0  0  0  0  0  0
   -2.9254    2.4676    1.6015 H   0  0  0  0  0  0  0  0  0  0  0  0
   -4.0571   -1.3058    0.0364 H   0  0  0  0  0  0  0  0  0  0  0  0
   -5.9693   -0.2511   -0.2316 H   0  0  0  0  0  0  0  0  0  0  0  0
   -4.8928   -0.1160   -1.6352 H   0  0  0  0  0  0  0  0  0  0  0  0
   -6.7356    0.7867   -2.6522 H   0  0  0  0  0  0  0  0  0  0  0  0
   -7.4453    1.3054   -1.1110 H   0  0  0  0  0  0  0  0  0  0  0  0
   -5.7567    4.3234   -0.9668 H   0  0  0  0  0  0  0  0  0  0  0  0
   -6.8696    3.1231   -0.1150 H   0  0  0  0  0  0  0  0  0  0  0  0
   -3.8169    3.2451   -0.3480 H   0  0  0  0  0  0  0  0  0  0  0  0
   -4.8505    3.0057    1.0809 H   0  0  0  0  0  0  0  0  0  0  0  0
  1  2  1  0
  2  3  1  0
  3  4  1  0
  4  5  2  0
  5  6  1  0
  6  7  2  0
  7  8  1  0
  8  9  2  0
  9 10  1  0
 10 11  2  0
 11 12  1  0
 12 13  2  0
  9 14  1  0
 14 15  2  3
 14 16  1  0
 16 17  2  0
 17 18  1  0
 18 19  2  0
 19 20  1  0
 20 21  2  0
  2 22  1  0
 22 23  1  0
 22 24  1  0
 24 25  2  0
 25 26  1  0
 26 27  2  0
 27 28  1  0
 28 29  2  0
 28 30  1  0
 30 31  1  0
 31 32  1  0
 32 33  1  0
 33 34  1  0
 34 35  1  0
 13  4  1  0
 21 16  1  0
 29 24  1  0
 35 30  1  0
 13  8  1  0
  1 36  1  0
  1 37  1  0
  1 38  1  0
  2 39  1  6
  3 40  1  0
  6 41  1  0
 10 42  1  0
 11 43  1  0
 12 44  1  0
 15 45  1  0
 17 46  1  0
 18 47  1  0
 19 48  1  0
 20 49  1  0
 21 50  1  0
 22 51  1  6
 23 52  1  0
 25 53  1  0
 26 54  1  0
 27 55  1  0
 29 56  1  0
 31 57  1  0
 31 58  1  0
 32 59  1  0
 32 60  1  0
 34 61  1  0
 34 62  1  0
 35 63  1  0
 35 64  1  0
M  END
$$$$
[H]OC1(C(=O)N([H])[C@]2([H])C([H])([H])C([H])([H])[C@]([H])(N([H])C(=O)c3nn(-c4c([H])c([H])c([H])c([H])c4[H])c4c([H])c([H])c([H])c([H])c34)C([H])([H])C2([H])[H])C([H])([H])C([H])([H])C([H])([H])C1([H])[H]
     RDKit          3D

 63 67  0  0  0  0  0  0  0  0999 V2000
   -7.7303   -1.6005   -0.9460 O   0  0  0  0  0  0  0  0  0  0  0  0
   -6.8872   -0.5722   -0.6088 C   0  0  0  0  0  0  0  0  0  0  0  0
   -7.2098    0.6912   -1.4208 C   0  0  0  0  0  0  0  0  0  0  0  0
   -8.4868    1.1476   -0.7330 C   0  0  0  0  0  0  0  0  0  0  0  0
   -8.3999    0.6824    0.6850 C   0  0  0  0  0  0  0  0  0  0  0  0
   -7.0842   -0.0563    0.7995 C   0  0  0  0  0  0  0  0  0  0  0  0
   -5.4551   -0.9030   -0.8713 C   0  0  0  0  0  0  0  0  0  0  0  0
   -5.1242   -1.9983   -1.4005 O   0  0  0  0  0  0  0  0  0  0  0  0
   -4.4205    0.0049   -0.5322 N   0  0  0  0  0  0  0  0  0  0  0  0
   -3.0368   -0.3168   -0.7827 C   0  0  1  0  0  0  0  0  0  0  0  0
   -2.2595    0.7424   -1.4794 C   0  0  0  0  0  0  0  0  0  0  0  0
   -0.9487    1.0277   -0.7925 C   0  0  0  0  0  0  0  0  0  0  0  0
   -0.2152   -0.2354   -0.4727 C   0  0  2  0  0  0  0  0  0  0  0  0
   -1.0683   -1.1729    0.3597 C   0  0  0  0  0  0  0  0  0  0  0  0
   -2.3951   -0.5241    0.5863 C   0  0  0  0  0  0  0  0  0  0  0  0
    1.0203    0.0502    0.2751 N   0  0  0  0  0  0  0  0  0  0  0  0
    2.2417   -0.3506   -0.2367 C   0  0  0  0  0  0  0  0  0  0  0  0
    2.1991   -0.9502   -1.3805 O   0  0  0  0  0  0  0  0  0  0  0  0
    3.5736   -0.1965    0.3136 C   0  0  0  0  0  0  0  0  0  0  0  0
    4.7330   -0.2790   -0.4224 N   0  0  0  0  0  0  0  0  0  0  0  0
    5.7820   -0.1313    0.3404 N   0  0  0  0  0  0  0  0  0  0  0  0
    7.1667   -0.1591   -0.0646 C   0  0  0  0  0  0  0  0  0  0  0  0
    8.0440    0.8379    0.2579 C   0  0  0  0  0  0  0  0  0  0  0  0
    9.3620    0.7865   -0.1396 C   0  0  0  0  0  0  0  0  0  0  0  0
    9.8299   -0.3025   -0.8901 C   0  0  0  0  0  0  0  0  0  0  0  0
    8.9499   -1.3069   -1.2161 C   0  0  0  0  0  0  0  0  0  0  0  0
    7.6474   -1.2181   -0.8019 C   0  0  0  0  0  0  0  0  0  0  0  0
    5.3364    0.0535    1.6114 C   0  0  0  0  0  0  0  0  0  0  0  0
    6.0400    0.2421    2.7611 C   0  0  0  0  0  0  0  0  0  0  0  0
    5.3661    0.3976    3.9591 C   0  0  0  0  0  0  0  0  0  0  0  0
    3.9909    0.3575    3.9654 C   0  0  0  0  0  0  0  0  0  0  0  0
    3.2504    0.1688    2.8201 C   0  0  0  0  0  0  0  0  0  0  0  0
    3.9363    0.0152    1.6195 C   0  0  0  0  0  0  0  0  0  0  0  0
   -8.4627   -1.7218   -0.3006 H   0  0  0  0  0  0  0  0  0  0  0  0
   -6.4365    1.4588   -1.3152 H   0  0  0  0  0  0  0  0  0  0  0  0
   -7.4371    0.4163   -2.4768 H   0  0  0  0  0  0  0  0  0  0  0  0
   -9.3237    0.6363   -1.2607 H   0  0  0  0  0  0  0  0  0  0  0  0
   -8.5530    2.2513   -0.7874 H   0  0  0  0  0  0  0  0  0  0  0  0
   -8.3069    1.5712    1.3781 H   0  0  0  0  0  0  0  0  0  0  0  0
   -9.2554    0.0515    1.0049 H   0  0  0  0  0  0  0  0  0  0  0  0
   -7.2301   -0.9332    1.4672 H   0  0  0  0  0  0  0  0  0  0  0  0
   -6.2624    0.5882    1.1308 H   0  0  0  0  0  0  0  0  0  0  0  0
   -4.6209    0.9434   -0.0870 H   0  0  0  0  0  0  0  0  0  0  0  0
   -2.9984   -1.2898   -1.3562 H   0  0  0  0  0  0  0  0  0  0  0  0
   -2.8005    1.7138   -1.5631 H   0  0  0  0  0  0  0  0  0  0  0  0
   -1.9952    0.4722   -2.5405 H   0  0  0  0  0  0  0  0  0  0  0  0
   -0.3089    1.6364   -1.4910 H   0  0  0  0  0  0  0  0  0  0  0  0
   -1.0553    1.6484    0.1190 H   0  0  0  0  0  0  0  0  0  0  0  0
    0.0700   -0.7815   -1.3909 H   0  0  0  0  0  0  0  0  0  0  0  0
   -0.5907   -1.4125    1.3235 H   0  0  0  0  0  0  0  0  0  0  0  0
   -1.2504   -2.1364   -0.1763 H   0  0  0  0  0  0  0  0  0  0  0  0
   -2.3602    0.4351    1.0961 H   0  0  0  0  0  0  0  0  0  0  0  0
   -3.0621   -1.1927    1.1821 H   0  0  0  0  0  0  0  0  0  0  0  0
    0.8874    0.5710    1.1619 H   0  0  0  0  0  0  0  0  0  0  0  0
    7.6797    1.6854    0.8429 H   0  0  0  0  0  0  0  0  0  0  0  0
   10.0868    1.5715    0.1073 H   0  0  0  0  0  0  0  0  0  0  0  0
   10.8638   -0.3405   -1.2005 H   0  0  0  0  0  0  0  0  0  0  0  0
    9.2724   -2.1818   -1.8047 H   0  0  0  0  0  0  0  0  0  0  0  0
    6.9555   -2.0075   -1.0556 H   0  0  0  0  0  0  0  0  0  0  0  0
    7.1314    0.2684    2.7176 H   0  0  0  0  0  0  0  0  0  0  0  0
    5.9660    0.5480    4.8601 H   0  0  0  0  0  0  0  0  0  0  0  0
    3.4713    0.4781    4.9110 H   0  0  0  0  0  0  0  0  0  0  0  0
    2.1781    0.1209    2.8282 H   0  0  0  0  0  0  0  0  0  0  0  0
  1  2  1  0
  2  3  1  0
  3  4  1  0
  4  5  1  0
  5  6  1  0
  2  7  1  0
  7  8  2  0
  7  9  1  0
  9 10  1  0
 10 11  1  0
 11 12  1  0
 12 13  1  0
 13 14  1  0
 14 15  1  0
 13 16  1  0
 16 17  1  0
 17 18  2  0
 17 19  1  0
 19 20  2  0
 20 21  1  0
 21 22  1  0
 22 23  2  0
 23 24  1  0
 24 25  2  0
 25 26  1  0
 26 27  2  0
 21 28  1  0
 28 29  2  0
 29 30  1  0
 30 31  2  0
 31 32  1  0
 32 33  2  0
  6  2  1  0
 15 10  1  0
 33 19  1  0
 27 22  1  0
 33 28  1  0
  1 34  1  0
  3 35  1  0
  3 36  1  0
  4 37  1  0
  4 38  1  0
  5 39  1  0
  5 40  1  0
  6 41  1  0
  6 42  1  0
  9 43  1  0
 10 44  1  6
 11 45  1  0
 11 46  1  0
 12 47  1  0
 12 48  1  0
 13 49  1  6
 14 50  1  0
 14 51  1  0
 15 52  1  0
 15 53  1  0
 16 54  1  0
 23 55  1  0
 24 56  1  0
 25 57  1  0
 26 58  1  0
 27 59  1  0
 29 60  1  0
 30 61  1  0
 31 62  1  0
 32 63  1  0
M  END
$$$$
[H]C([H])=C([H])C([H])([H])C1([H])c2c(n(C([H])([H])c3c([H])c([H])c([H])c([H])c3[H])c3c([H])c([H])c(OC([H])([H])[H])c([H])c23)C([H])([H])C([H])([H])N(C([H])([H])[H])C1([H])[H]
     RDKit          3D

 55 58  0  0  0  0  0  0  0  0999 V2000
   -0.1466    6.1329    0.7172 C   0  0  0  0  0  0  0  0  0  0  0  0
   -0.7569    4.8904    0.8950 O   0  0  0  0  0  0  0  0  0  0  0  0
   -0.1916    3.7569    0.3854 C   0  0  0  0  0  0  0  0  0  0  0  0
    0.9921    3.7907   -0.3180 C   0  0  0  0  0  0  0  0  0  0  0  0
    1.5196    2.6189   -0.8103 C   0  0  0  0  0  0  0  0  0  0  0  0
    0.8891    1.4179   -0.6137 C   0  0  0  0  0  0  0  0  0  0  0  0
    1.1470    0.1242   -0.9741 N   0  0  0  0  0  0  0  0  0  0  0  0
    2.3048   -0.2679   -1.7249 C   0  0  0  0  0  0  0  0  0  0  0  0
    3.4829   -0.6570   -0.8743 C   0  0  0  0  0  0  0  0  0  0  0  0
    3.6826   -1.9733   -0.5251 C   0  0  0  0  0  0  0  0  0  0  0  0
    4.7427   -2.3682    0.2469 C   0  0  0  0  0  0  0  0  0  0  0  0
    5.6448   -1.4285    0.6937 C   0  0  0  0  0  0  0  0  0  0  0  0
    5.4672   -0.1076    0.3571 C   0  0  0  0  0  0  0  0  0  0  0  0
    4.3852    0.2812   -0.4284 C   0  0  0  0  0  0  0  0  0  0  0  0
    0.1565   -0.6660   -0.5101 C   0  0  0  0  0  0  0  0  0  0  0  0
    0.0631   -2.1319   -0.7105 C   0  0  0  0  0  0  0  0  0  0  0  0
   -1.3295   -2.4762   -1.1186 C   0  0  0  0  0  0  0  0  0  0  0  0
   -2.2334   -2.6009   -0.0562 N   0  0  0  0  0  0  0  0  0  0  0  0
   -2.8699   -3.8536    0.1247 C   0  0  0  0  0  0  0  0  0  0  0  0
   -2.0542   -1.7953    1.0859 C   0  0  0  0  0  0  0  0  0  0  0  0
   -1.9895   -0.3146    0.8294 C   0  0  0  0  0  0  0  0  0  0  0  0
   -3.2602    0.1304    0.1686 C   0  0  0  0  0  0  0  0  0  0  0  0
   -4.4085   -0.1701    1.0611 C   0  0  0  0  0  0  0  0  0  0  0  0
   -5.4131   -0.9625    0.7274 C   0  0  0  0  0  0  0  0  0  0  0  0
   -0.7589    0.1032    0.1609 C   0  0  0  0  0  0  0  0  0  0  0  0
   -0.3100    1.3803    0.0977 C   0  0  0  0  0  0  0  0  0  0  0  0
   -0.8310    2.5550    0.5867 C   0  0  0  0  0  0  0  0  0  0  0  0
    0.8410    6.1759    1.2381 H   0  0  0  0  0  0  0  0  0  0  0  0
   -0.8114    6.8983    1.1880 H   0  0  0  0  0  0  0  0  0  0  0  0
    0.0388    6.3996   -0.3458 H   0  0  0  0  0  0  0  0  0  0  0  0
    1.5333    4.7242   -0.5013 H   0  0  0  0  0  0  0  0  0  0  0  0
    2.4431    2.6727   -1.3612 H   0  0  0  0  0  0  0  0  0  0  0  0
    2.0737   -1.1007   -2.4475 H   0  0  0  0  0  0  0  0  0  0  0  0
    2.6769    0.5697   -2.3788 H   0  0  0  0  0  0  0  0  0  0  0  0
    3.0155   -2.7667   -0.8593 H   0  0  0  0  0  0  0  0  0  0  0  0
    4.8710   -3.4285    0.5073 H   0  0  0  0  0  0  0  0  0  0  0  0
    6.4995   -1.7300    1.3136 H   0  0  0  0  0  0  0  0  0  0  0  0
    6.1618    0.6594    0.6935 H   0  0  0  0  0  0  0  0  0  0  0  0
    4.2784    1.3415   -0.6915 H   0  0  0  0  0  0  0  0  0  0  0  0
    0.3475   -2.6071    0.2457 H   0  0  0  0  0  0  0  0  0  0  0  0
    0.7432   -2.4486   -1.5553 H   0  0  0  0  0  0  0  0  0  0  0  0
   -1.2678   -3.4522   -1.6860 H   0  0  0  0  0  0  0  0  0  0  0  0
   -1.6967   -1.7390   -1.8649 H   0  0  0  0  0  0  0  0  0  0  0  0
   -2.1757   -4.6835   -0.1220 H   0  0  0  0  0  0  0  0  0  0  0  0
   -3.2870   -3.9260    1.1332 H   0  0  0  0  0  0  0  0  0  0  0  0
   -3.7078   -3.9281   -0.6228 H   0  0  0  0  0  0  0  0  0  0  0  0
   -1.1201   -2.0607    1.6597 H   0  0  0  0  0  0  0  0  0  0  0  0
   -2.8951   -1.9695    1.7881 H   0  0  0  0  0  0  0  0  0  0  0  0
   -1.9804    0.1708    1.8506 H   0  0  0  0  0  0  0  0  0  0  0  0
   -3.4128   -0.5043   -0.7424 H   0  0  0  0  0  0  0  0  0  0  0  0
   -3.2556    1.1636   -0.1925 H   0  0  0  0  0  0  0  0  0  0  0  0
   -4.4236    0.2858    2.0409 H   0  0  0  0  0  0  0  0  0  0  0  0
   -6.2462   -1.1896    1.3556 H   0  0  0  0  0  0  0  0  0  0  0  0
   -5.3952   -1.4191   -0.2575 H   0  0  0  0  0  0  0  0  0  0  0  0
   -1.7726    2.4835    1.1411 H   0  0  0  0  0  0  0  0  0  0  0  0
  1  2  1  0
  2  3  1  0
  3  4  2  0
  4  5  1  0
  5  6  2  0
  6  7  1  0
  7  8  1  0
  8  9  1  0
  9 10  2  0
 10 11  1  0
 11 12  2  0
 12 13  1  0
 13 14  2  0
  7 15  1  0
 15 16  1  0
 16 17  1  0
 17 18  1  0
 18 19  1  0
 18 20  1  0
 20 21  1  0
 21 22  1  0
 22 23  1  0
 23 24  2  3
 21 25  1  0
 25 26  1  0
 26 27  2  0
 27  3  1  0
 26  6  1  0
 14  9  1  0
 25 15  2  0
  1 28  1  0
  1 29  1  0
  1 30  1  0
  4 31  1  0
  5 32  1  0
  8 33  1  0
  8 34  1  0
 10 35  1  0
 11 36  1  0
 12 37  1  0
 13 38  1  0
 14 39  1  0
 16 40  1  0
 16 41  1  0
 17 42  1  0
 17 43  1  0
 19 44  1  0
 19 45  1  0
 19 46  1  0
 20 47  1  0
 20 48  1  0
 21 49  1  0
 22 50  1  0
 22 51  1  0
 23 52  1  0
 24 53  1  0
 24 54  1  0
 27 55  1  0
M  END
$$$$
[H]OC([H])(C(=O)N([H])C([H])([H])C([H])([H])N(N([H])C(=O)C([H])(C([H])([H])[H])C([H])([H])[H])S(=O)(=O)c1c([H])c([H])c(C#N)c([H])c1[H])c1c([H])c([H])c(C(C([H])([H])[H])(C([H])([H])[H])C([H])([H])[H])c([H])c1[H]
     RDKit          3D

 67 68  0  0  0  0  0  0  0  0999 V2000
   -4.9219   -4.1962   -1.0088 C   0  0  0  0  0  0  0  0  0  0  0  0
   -5.4344   -3.2127    0.0161 C   0  0  0  0  0  0  0  0  0  0  0  0
   -5.3903   -3.9218    1.3585 C   0  0  0  0  0  0  0  0  0  0  0  0
   -4.5112   -2.0326    0.0239 C   0  0  0  0  0  0  0  0  0  0  0  0
   -3.5768   -1.9865   -0.8155 O   0  0  0  0  0  0  0  0  0  0  0  0
   -4.6541   -0.9701    0.9431 N   0  0  0  0  0  0  0  0  0  0  0  0
   -3.7416    0.0957    0.8999 N   0  0  0  0  0  0  0  0  0  0  0  0
   -2.4174   -0.2900    1.0384 C   0  0  0  0  0  0  0  0  0  0  0  0
   -1.3714    0.0239    0.0540 C   0  0  0  0  0  0  0  0  0  0  0  0
   -0.1192   -0.6472    0.4506 N   0  0  0  0  0  0  0  0  0  0  0  0
    1.0681   -0.6311   -0.3170 C   0  0  0  0  0  0  0  0  0  0  0  0
    1.0282    0.0092   -1.3958 O   0  0  0  0  0  0  0  0  0  0  0  0
    2.2080   -1.3673    0.2218 C   0  0  0  0  0  0  0  0  0  0  0  0
    2.0073   -1.6080    1.5872 O   0  0  0  0  0  0  0  0  0  0  0  0
    3.5471   -0.8794    0.0019 C   0  0  0  0  0  0  0  0  0  0  0  0
    4.1147    0.0891    0.7982 C   0  0  0  0  0  0  0  0  0  0  0  0
    5.4173    0.5553    0.6394 C   0  0  0  0  0  0  0  0  0  0  0  0
    6.2013    0.0353   -0.3616 C   0  0  0  0  0  0  0  0  0  0  0  0
    5.6571   -0.9466   -1.1895 C   0  0  0  0  0  0  0  0  0  0  0  0
    4.3730   -1.3823   -1.0059 C   0  0  0  0  0  0  0  0  0  0  0  0
    7.5818    0.5114   -0.5328 C   0  0  0  0  0  0  0  0  0  0  0  0
    8.0035    0.6068   -1.9935 C   0  0  0  0  0  0  0  0  0  0  0  0
    7.8220    1.8467    0.1295 C   0  0  0  0  0  0  0  0  0  0  0  0
    8.5624   -0.4738    0.1166 C   0  0  0  0  0  0  0  0  0  0  0  0
   -4.2945    1.5141    1.6020 S   0  0  0  0  0  0  0  0  0  0  0  0
   -5.5022    1.1649    2.4613 O   0  0  0  0  0  0  0  0  0  0  0  0
   -3.3055    2.1439    2.5082 O   0  0  0  0  0  0  0  0  0  0  0  0
   -4.8434    2.6496    0.4022 C   0  0  0  0  0  0  0  0  0  0  0  0
   -4.0482    3.6125   -0.1718 C   0  0  0  0  0  0  0  0  0  0  0  0
   -4.5236    4.5039   -1.1079 C   0  0  0  0  0  0  0  0  0  0  0  0
   -5.8457    4.4738   -1.5234 C   0  0  0  0  0  0  0  0  0  0  0  0
   -6.6540    3.5066   -0.9510 C   0  0  0  0  0  0  0  0  0  0  0  0
   -6.1776    2.6244   -0.0224 C   0  0  0  0  0  0  0  0  0  0  0  0
   -6.3653    5.3950   -2.5023 C   0  0  0  0  0  0  0  0  0  0  0  0
   -6.8039    6.1257   -3.2914 N   0  0  0  0  0  0  0  0  0  0  0  0
   -5.4467   -4.0707   -1.9765 H   0  0  0  0  0  0  0  0  0  0  0  0
   -4.9602   -5.2387   -0.6179 H   0  0  0  0  0  0  0  0  0  0  0  0
   -3.8156   -3.9945   -1.1334 H   0  0  0  0  0  0  0  0  0  0  0  0
   -6.4732   -2.9410   -0.1906 H   0  0  0  0  0  0  0  0  0  0  0  0
   -4.4601   -4.5016    1.4627 H   0  0  0  0  0  0  0  0  0  0  0  0
   -6.2110   -4.6675    1.3566 H   0  0  0  0  0  0  0  0  0  0  0  0
   -5.5765   -3.2435    2.2141 H   0  0  0  0  0  0  0  0  0  0  0  0
   -5.4035   -0.9360    1.6529 H   0  0  0  0  0  0  0  0  0  0  0  0
   -2.3814   -1.4037    1.2274 H   0  0  0  0  0  0  0  0  0  0  0  0
   -2.0788    0.1087    2.0640 H   0  0  0  0  0  0  0  0  0  0  0  0
   -1.5225   -0.1445   -0.9916 H   0  0  0  0  0  0  0  0  0  0  0  0
   -1.1208    1.1300    0.2164 H   0  0  0  0  0  0  0  0  0  0  0  0
   -0.1757   -1.1600    1.3806 H   0  0  0  0  0  0  0  0  0  0  0  0
    2.1606   -2.4124   -0.2858 H   0  0  0  0  0  0  0  0  0  0  0  0
    1.6434   -2.5179    1.6943 H   0  0  0  0  0  0  0  0  0  0  0  0
    3.5213    0.5215    1.6020 H   0  0  0  0  0  0  0  0  0  0  0  0
    5.8165    1.3285    1.3071 H   0  0  0  0  0  0  0  0  0  0  0  0
    6.2749   -1.3655   -1.9861 H   0  0  0  0  0  0  0  0  0  0  0  0
    3.9236   -2.1429   -1.6300 H   0  0  0  0  0  0  0  0  0  0  0  0
    8.7788    1.3791   -2.1448 H   0  0  0  0  0  0  0  0  0  0  0  0
    8.3586   -0.3785   -2.3749 H   0  0  0  0  0  0  0  0  0  0  0  0
    7.1161    0.8741   -2.6211 H   0  0  0  0  0  0  0  0  0  0  0  0
    7.7818    1.7587    1.2378 H   0  0  0  0  0  0  0  0  0  0  0  0
    8.8755    2.2092   -0.0885 H   0  0  0  0  0  0  0  0  0  0  0  0
    7.1665    2.6537   -0.2582 H   0  0  0  0  0  0  0  0  0  0  0  0
    8.4488   -1.4833   -0.2781 H   0  0  0  0  0  0  0  0  0  0  0  0
    9.5792   -0.1075   -0.1423 H   0  0  0  0  0  0  0  0  0  0  0  0
    8.4735   -0.4751    1.2172 H   0  0  0  0  0  0  0  0  0  0  0  0
   -3.0129    3.6665    0.1278 H   0  0  0  0  0  0  0  0  0  0  0  0
   -3.8862    5.2645   -1.5538 H   0  0  0  0  0  0  0  0  0  0  0  0
   -7.6855    3.4866   -1.2758 H   0  0  0  0  0  0  0  0  0  0  0  0
   -6.7978    1.8618    0.4382 H   0  0  0  0  0  0  0  0  0  0  0  0
  1  2  1  0
  2  3  1  0
  2  4  1  0
  4  5  2  0
  4  6  1  0
  6  7  1  0
  7  8  1  0
  8  9  1  0
  9 10  1  0
 10 11  1  0
 11 12  2  0
 11 13  1  0
 13 14  1  0
 13 15  1  0
 15 16  2  0
 16 17  1  0
 17 18  2  0
 18 19  1  0
 19 20  2  0
 18 21  1  0
 21 22  1  0
 21 23  1  0
 21 24  1  0
  7 25  1  0
 25 26  2  0
 25 27  2  0
 25 28  1  0
 28 29  2  0
 29 30  1  0
 30 31  2  0
 31 32  1  0
 32 33  2  0
 31 34  1  0
 34 35  3  0
 20 15  1  0
 33 28  1  0
  1 36  1  0
  1 37  1  0
  1 38  1  0
  2 39  1  0
  3 40  1  0
  3 41  1  0
  3 42  1  0
  6 43  1  0
  8 44  1  0
  8 45  1  0
  9 46  1  0
  9 47  1  0
 10 48  1  0
 13 49  1  0
 14 50  1  0
 16 51  1  0
 17 52  1  0
 19 53  1  0
 20 54  1  0
 22 55  1  0
 22 56  1  0
 22 57  1  0
 23 58  1  0
 23 59  1  0
 23 60  1  0
 24 61  1  0
 24 62  1  0
 24 63  1  0
 29 64  1  0
 30 65  1  0
 32 66  1  0
 33 67  1  0
M  END
$$$$
[H]c1nn([H])c([H])c1-c1c([H])c2c([H])nc(N([H])[C@]3([H])C([H])([H])C([H])([H])[C@]([H])(N([H])C(=O)N(C([H])([H])[H])C([H])([H])[H])C([H])([H])C3([H])[H])nc2n(C2([H])C([H])([H])C2([H])[H])c1=O
     RDKit          3D

 60 64  0  0  0  0  0  0  0  0999 V2000
    8.5459   -2.4625   -0.0395 C   0  0  0  0  0  0  0  0  0  0  0  0
    7.6755   -1.3428   -0.3677 N   0  0  0  0  0  0  0  0  0  0  0  0
    8.2755   -0.2432   -1.1181 C   0  0  0  0  0  0  0  0  0  0  0  0
    6.3157   -1.3023    0.0110 C   0  0  0  0  0  0  0  0  0  0  0  0
    5.8058   -2.2454    0.6522 O   0  0  0  0  0  0  0  0  0  0  0  0
    5.5253   -0.1923   -0.3347 N   0  0  0  0  0  0  0  0  0  0  0  0
    4.1240   -0.0658    0.0112 C   0  0  1  0  0  0  0  0  0  0  0  0
    3.8554    1.1107    0.9019 C   0  0  0  0  0  0  0  0  0  0  0  0
    2.5719    0.8409    1.6533 C   0  0  0  0  0  0  0  0  0  0  0  0
    1.5604    0.2611    0.6617 C   0  0  2  0  0  0  0  0  0  0  0  0
    1.9269    0.6905   -0.7478 C   0  0  0  0  0  0  0  0  0  0  0  0
    3.2438    0.0545   -1.1892 C   0  0  0  0  0  0  0  0  0  0  0  0
    0.2738    0.7764    0.9978 N   0  0  0  0  0  0  0  0  0  0  0  0
   -0.9686    0.3677    0.4319 C   0  0  0  0  0  0  0  0  0  0  0  0
   -0.9673   -0.5921   -0.4951 N   0  0  0  0  0  0  0  0  0  0  0  0
   -2.1095   -1.0292   -1.0750 C   0  0  0  0  0  0  0  0  0  0  0  0
   -3.3076   -0.4569   -0.6874 C   0  0  0  0  0  0  0  0  0  0  0  0
   -4.5009   -0.8708   -1.2519 C   0  0  0  0  0  0  0  0  0  0  0  0
   -5.6865   -0.2841   -0.8488 C   0  0  0  0  0  0  0  0  0  0  0  0
   -6.9309   -0.7178   -1.4398 C   0  0  0  0  0  0  0  0  0  0  0  0
   -7.9477    0.1060   -1.8915 C   0  0  0  0  0  0  0  0  0  0  0  0
   -8.9443   -0.6794   -2.3762 N   0  0  0  0  0  0  0  0  0  0  0  0
   -8.5981   -1.9609   -2.2488 N   0  0  0  0  0  0  0  0  0  0  0  0
   -7.3764   -1.9995   -1.6810 C   0  0  0  0  0  0  0  0  0  0  0  0
   -5.6200    0.6992    0.1103 C   0  0  0  0  0  0  0  0  0  0  0  0
   -6.6899    1.2335    0.4787 O   0  0  0  0  0  0  0  0  0  0  0  0
   -4.4668    1.1100    0.6663 N   0  0  0  0  0  0  0  0  0  0  0  0
   -4.4413    2.1347    1.6596 C   0  0  0  0  0  0  0  0  0  0  0  0
   -5.2562    1.7783    2.9239 C   0  0  0  0  0  0  0  0  0  0  0  0
   -3.7468    2.0037    2.9465 C   0  0  0  0  0  0  0  0  0  0  0  0
   -3.3184    0.5324    0.2668 C   0  0  0  0  0  0  0  0  0  0  0  0
   -2.1403    0.9057    0.7900 N   0  0  0  0  0  0  0  0  0  0  0  0
    8.2359   -2.8756    0.9292 H   0  0  0  0  0  0  0  0  0  0  0  0
    9.6118   -2.0963    0.0278 H   0  0  0  0  0  0  0  0  0  0  0  0
    8.5219   -3.2156   -0.8646 H   0  0  0  0  0  0  0  0  0  0  0  0
    8.4484    0.6385   -0.4736 H   0  0  0  0  0  0  0  0  0  0  0  0
    9.2239   -0.5573   -1.5922 H   0  0  0  0  0  0  0  0  0  0  0  0
    7.6128    0.0856   -1.9454 H   0  0  0  0  0  0  0  0  0  0  0  0
    5.9557    0.5960   -0.8717 H   0  0  0  0  0  0  0  0  0  0  0  0
    3.8356   -0.9793    0.5702 H   0  0  0  0  0  0  0  0  0  0  0  0
    3.6994    2.0170    0.2729 H   0  0  0  0  0  0  0  0  0  0  0  0
    4.6466    1.2669    1.6632 H   0  0  0  0  0  0  0  0  0  0  0  0
    2.1818    1.7255    2.1627 H   0  0  0  0  0  0  0  0  0  0  0  0
    2.8058    0.0011    2.3647 H   0  0  0  0  0  0  0  0  0  0  0  0
    1.5704   -0.8436    0.6791 H   0  0  0  0  0  0  0  0  0  0  0  0
    1.9610    1.7871   -0.7634 H   0  0  0  0  0  0  0  0  0  0  0  0
    1.1726    0.3258   -1.4343 H   0  0  0  0  0  0  0  0  0  0  0  0
    3.6993    0.7541   -1.9152 H   0  0  0  0  0  0  0  0  0  0  0  0
    3.0637   -0.9289   -1.6767 H   0  0  0  0  0  0  0  0  0  0  0  0
    0.2371    1.5460    1.7468 H   0  0  0  0  0  0  0  0  0  0  0  0
   -2.1104   -1.8035   -1.8230 H   0  0  0  0  0  0  0  0  0  0  0  0
   -4.4812   -1.6432   -1.9953 H   0  0  0  0  0  0  0  0  0  0  0  0
   -7.9109    1.1840   -1.8459 H   0  0  0  0  0  0  0  0  0  0  0  0
   -9.1406   -2.8061   -2.5237 H   0  0  0  0  0  0  0  0  0  0  0  0
   -6.7851   -2.8696   -1.4287 H   0  0  0  0  0  0  0  0  0  0  0  0
   -4.6334    3.1554    1.2943 H   0  0  0  0  0  0  0  0  0  0  0  0
   -5.8867    2.5638    3.3595 H   0  0  0  0  0  0  0  0  0  0  0  0
   -5.6319    0.7592    3.0250 H   0  0  0  0  0  0  0  0  0  0  0  0
   -3.1808    1.1179    3.2485 H   0  0  0  0  0  0  0  0  0  0  0  0
   -3.4054    2.9348    3.4468 H   0  0  0  0  0  0  0  0  0  0  0  0
  1  2  1  0
  2  3  1  0
  2  4  1  0
  4  5  2  0
  4  6  1  0
  6  7  1  0
  7  8  1  0
  8  9  1  0
  9 10  1  0
 10 11  1  0
 11 12  1  0
 10 13  1  0
 13 14  1  0
 14 15  2  0
 15 16  1  0
 16 17  2  0
 17 18  1  0
 18 19  2  0
 19 20  1  0
 20 21  1  0
 21 22  2  0
 22 23  1  0
 23 24  1  0
 19 25  1  0
 25 26  2  0
 25 27  1  0
 27 28  1  0
 28 29  1  0
 29 30  1  0
 27 31  1  0
 31 32  2  0
 12  7  1  0
 32 14  1  0
 31 17  1  0
 24 20  2  0
 30 28  1  0
  1 33  1  0
  1 34  1  0
  1 35  1  0
  3 36  1  0
  3 37  1  0
  3 38  1  0
  6 39  1  0
  7 40  1  1
  8 41  1  0
  8 42  1  0
  9 43  1  0
  9 44  1  0
 10 45  1  6
 11 46  1  0
 11 47  1  0
 12 48  1  0
 12 49  1  0
 13 50  1  0
 16 51  1  0
 18 52  1  0
 21 53  1  0
 23 54  1  0
 24 55  1  0
 28 56  1  0
 29 57  1  0
 29 58  1  0
 30 59  1  0
 30 60  1  0
M  END
$$$$
[H]Oc1c([H])c([H])c2c(C([H])([H])C([H])([H])C(=O)N([H])C([H])(C(=O)N([H])[C@]([H])(C([H])([H])[H])[C@]([H])(C([H])([H])[H])C([H])([H])C([H])([H])[H])C([H])([H])[H])c([H])c([H])c([H])c2c1[H]
     RDKit          3D

 57 58  0  0  0  0  0  0  0  0999 V2000
    6.6327    0.8587    1.5552 C   0  0  0  0  0  0  0  0  0  0  0  0
    5.2990    0.4896    0.9079 C   0  0  0  0  0  0  0  0  0  0  0  0
    5.5007    0.1993   -0.5765 C   0  0  1  0  0  0  0  0  0  0  0  0
    6.4595   -0.9424   -0.8072 C   0  0  0  0  0  0  0  0  0  0  0  0
    4.1801    0.0047   -1.2335 C   0  0  1  0  0  0  0  0  0  0  0  0
    4.4330   -0.2821   -2.7047 C   0  0  0  0  0  0  0  0  0  0  0  0
    3.3860   -1.0414   -0.6176 N   0  0  0  0  0  0  0  0  0  0  0  0
    2.0136   -0.8213   -0.4222 C   0  0  0  0  0  0  0  0  0  0  0  0
    1.4402    0.2456   -0.7797 O   0  0  0  0  0  0  0  0  0  0  0  0
    1.1223   -1.8404    0.2262 C   0  0  0  0  0  0  0  0  0  0  0  0
    1.5792   -3.2022   -0.1810 C   0  0  0  0  0  0  0  0  0  0  0  0
   -0.2620   -1.5767   -0.0978 N   0  0  0  0  0  0  0  0  0  0  0  0
   -1.1493   -1.0549    0.8635 C   0  0  0  0  0  0  0  0  0  0  0  0
   -0.7231   -0.8083    2.0334 O   0  0  0  0  0  0  0  0  0  0  0  0
   -2.5733   -0.7792    0.5684 C   0  0  0  0  0  0  0  0  0  0  0  0
   -3.3160   -0.1886    1.7491 C   0  0  0  0  0  0  0  0  0  0  0  0
   -4.7100    0.0532    1.3456 C   0  0  0  0  0  0  0  0  0  0  0  0
   -5.6869   -0.8362    1.6978 C   0  0  0  0  0  0  0  0  0  0  0  0
   -7.0131   -0.6762    1.3119 C   0  0  0  0  0  0  0  0  0  0  0  0
   -7.3520    0.4069    0.5555 C   0  0  0  0  0  0  0  0  0  0  0  0
   -6.3873    1.3049    0.1961 C   0  0  0  0  0  0  0  0  0  0  0  0
   -6.7338    2.3969   -0.5654 C   0  0  0  0  0  0  0  0  0  0  0  0
   -5.7958    3.3427   -0.9590 C   0  0  0  0  0  0  0  0  0  0  0  0
   -6.1869    4.4377   -1.7332 O   0  0  0  0  0  0  0  0  0  0  0  0
   -4.4704    3.1947   -0.5799 C   0  0  0  0  0  0  0  0  0  0  0  0
   -4.1511    2.0983    0.1790 C   0  0  0  0  0  0  0  0  0  0  0  0
   -5.0451    1.1448    0.5851 C   0  0  0  0  0  0  0  0  0  0  0  0
    6.4908    1.2709    2.5705 H   0  0  0  0  0  0  0  0  0  0  0  0
    7.1638    1.6177    0.9707 H   0  0  0  0  0  0  0  0  0  0  0  0
    7.2522   -0.0706    1.6375 H   0  0  0  0  0  0  0  0  0  0  0  0
    4.6865    1.4394    0.9410 H   0  0  0  0  0  0  0  0  0  0  0  0
    4.7790   -0.3108    1.4414 H   0  0  0  0  0  0  0  0  0  0  0  0
    5.9822    1.1053   -0.9984 H   0  0  0  0  0  0  0  0  0  0  0  0
    6.0779   -1.7130   -1.5004 H   0  0  0  0  0  0  0  0  0  0  0  0
    6.6785   -1.4031    0.1864 H   0  0  0  0  0  0  0  0  0  0  0  0
    7.4413   -0.6122   -1.2024 H   0  0  0  0  0  0  0  0  0  0  0  0
    3.6006    0.9380   -1.2077 H   0  0  0  0  0  0  0  0  0  0  0  0
    5.5291   -0.2177   -2.9431 H   0  0  0  0  0  0  0  0  0  0  0  0
    3.9512    0.4949   -3.3631 H   0  0  0  0  0  0  0  0  0  0  0  0
    4.1093   -1.2685   -3.0335 H   0  0  0  0  0  0  0  0  0  0  0  0
    3.8453   -1.9149   -0.3471 H   0  0  0  0  0  0  0  0  0  0  0  0
    1.2315   -1.7474    1.3416 H   0  0  0  0  0  0  0  0  0  0  0  0
    0.8038   -3.9920    0.0342 H   0  0  0  0  0  0  0  0  0  0  0  0
    1.7428   -3.2850   -1.2798 H   0  0  0  0  0  0  0  0  0  0  0  0
    2.4822   -3.5414    0.3775 H   0  0  0  0  0  0  0  0  0  0  0  0
   -0.6469   -1.7713   -1.0631 H   0  0  0  0  0  0  0  0  0  0  0  0
   -3.1162   -1.7406    0.3295 H   0  0  0  0  0  0  0  0  0  0  0  0
   -2.7097   -0.1470   -0.3205 H   0  0  0  0  0  0  0  0  0  0  0  0
   -2.8125    0.6967    2.1765 H   0  0  0  0  0  0  0  0  0  0  0  0
   -3.3380   -0.9387    2.5947 H   0  0  0  0  0  0  0  0  0  0  0  0
   -5.4900   -1.7304    2.3061 H   0  0  0  0  0  0  0  0  0  0  0  0
   -7.7891   -1.3768    1.5867 H   0  0  0  0  0  0  0  0  0  0  0  0
   -8.3933    0.5296    0.2488 H   0  0  0  0  0  0  0  0  0  0  0  0
   -7.7553    2.5463   -0.8777 H   0  0  0  0  0  0  0  0  0  0  0  0
   -5.4813    5.1175   -2.0135 H   0  0  0  0  0  0  0  0  0  0  0  0
   -3.6984    3.8990   -0.8581 H   0  0  0  0  0  0  0  0  0  0  0  0
   -3.1075    1.9980    0.4870 H   0  0  0  0  0  0  0  0  0  0  0  0
  1  2  1  0
  2  3  1  0
  3  4  1  0
  3  5  1  0
  5  6  1  0
  5  7  1  0
  7  8  1  0
  8  9  2  0
  8 10  1  0
 10 11  1  0
 10 12  1  0
 12 13  1  0
 13 14  2  0
 13 15  1  0
 15 16  1  0
 16 17  1  0
 17 18  2  0
 18 19  1  0
 19 20  2  0
 20 21  1  0
 21 22  2  0
 22 23  1  0
 23 24  1  0
 23 25  2  0
 25 26  1  0
 26 27  2  0
 27 17  1  0
 27 21  1  0
  1 28  1  0
  1 29  1  0
  1 30  1  0
  2 31  1  0
  2 32  1  0
  3 33  1  6
  4 34  1  0
  4 35  1  0
  4 36  1  0
  5 37  1  6
  6 38  1  0
  6 39  1  0
  6 40  1  0
  7 41  1  0
 10 42  1  0
 11 43  1  0
 11 44  1  0
 11 45  1  0
 12 46  1  0
 15 47  1  0
 15 48  1  0
 16 49  1  0
 16 50  1  0
 18 51  1  0
 19 52  1  0
 20 53  1  0
 22 54  1  0
 24 55  1  0
 25 56  1  0
 26 57  1  0
M  END
$$$$
[H]c1c([H])c([H])c(N(C(=O)C([H])([H])C([H])([H])[H])C2([H])C([H])([H])C([H])([H])N(C(=O)C([H])([H])N3C([H])([H])C([H])([H])C4(OC([H])([H])C([H])([H])C4([H])[H])C([H])([H])C3([H])[H])C([H])([H])C2([H])[H])c([H])c1[H]
     RDKit          3D

 65 68  0  0  0  0  0  0  0  0999 V2000
   -5.5465   -2.3572   -2.5524 C   0  0  0  0  0  0  0  0  0  0  0  0
   -4.9808   -0.9535   -2.5141 C   0  0  0  0  0  0  0  0  0  0  0  0
   -3.6805   -0.9297   -1.7908 C   0  0  0  0  0  0  0  0  0  0  0  0
   -2.7044   -1.4983   -2.3131 O   0  0  0  0  0  0  0  0  0  0  0  0
   -3.5138   -0.2878   -0.5319 N   0  0  0  0  0  0  0  0  0  0  0  0
   -2.2434   -0.3713    0.1136 C   0  0  0  0  0  0  0  0  0  0  0  0
   -1.6476    1.0242    0.2199 C   0  0  0  0  0  0  0  0  0  0  0  0
   -0.1217    0.7375    0.3512 C   0  0  0  0  0  0  0  0  0  0  0  0
    0.0316    0.0032    1.5792 N   0  0  0  0  0  0  0  0  0  0  0  0
   -1.2055   -0.3460    2.3361 C   0  0  0  0  0  0  0  0  0  0  0  0
   -2.2823   -0.9345    1.4892 C   0  0  0  0  0  0  0  0  0  0  0  0
    1.2782   -0.3476    2.1021 C   0  0  0  0  0  0  0  0  0  0  0  0
    1.1762   -1.0830    3.2263 O   0  0  0  0  0  0  0  0  0  0  0  0
    2.6286   -0.0897    1.7053 C   0  0  0  0  0  0  0  0  0  0  0  0
    2.9973    0.6057    0.5895 N   0  0  0  0  0  0  0  0  0  0  0  0
    2.9501    0.1479   -0.7239 C   0  0  0  0  0  0  0  0  0  0  0  0
    4.2437    0.0362   -1.4758 C   0  0  0  0  0  0  0  0  0  0  0  0
    5.3903    0.3174   -0.5600 C   0  0  0  0  0  0  0  0  0  0  0  0
    6.6867    0.3309   -1.3486 C   0  0  0  0  0  0  0  0  0  0  0  0
    7.0508   -1.1325   -1.3936 C   0  0  0  0  0  0  0  0  0  0  0  0
    6.1071   -1.7538   -0.3750 C   0  0  0  0  0  0  0  0  0  0  0  0
    5.5903   -0.6871    0.3486 O   0  0  0  0  0  0  0  0  0  0  0  0
    5.1598    1.6604    0.1055 C   0  0  0  0  0  0  0  0  0  0  0  0
    3.8476    1.7629    0.7955 C   0  0  0  0  0  0  0  0  0  0  0  0
   -4.6640    0.3659   -0.0116 C   0  0  0  0  0  0  0  0  0  0  0  0
   -5.6752   -0.3360    0.6329 C   0  0  0  0  0  0  0  0  0  0  0  0
   -6.7970    0.2971    1.1302 C   0  0  0  0  0  0  0  0  0  0  0  0
   -6.9568    1.6593    1.0052 C   0  0  0  0  0  0  0  0  0  0  0  0
   -5.9629    2.3729    0.3670 C   0  0  0  0  0  0  0  0  0  0  0  0
   -4.8237    1.7231   -0.1369 C   0  0  0  0  0  0  0  0  0  0  0  0
   -4.7264   -3.0245   -2.8920 H   0  0  0  0  0  0  0  0  0  0  0  0
   -6.4165   -2.3393   -3.2493 H   0  0  0  0  0  0  0  0  0  0  0  0
   -5.8752   -2.6555   -1.5363 H   0  0  0  0  0  0  0  0  0  0  0  0
   -4.7469   -0.6210   -3.5586 H   0  0  0  0  0  0  0  0  0  0  0  0
   -5.6500   -0.2245   -2.0324 H   0  0  0  0  0  0  0  0  0  0  0  0
   -1.5502   -0.9745   -0.5202 H   0  0  0  0  0  0  0  0  0  0  0  0
   -1.8172    1.6040   -0.7120 H   0  0  0  0  0  0  0  0  0  0  0  0
   -1.9445    1.5444    1.1419 H   0  0  0  0  0  0  0  0  0  0  0  0
    0.4271    1.6635    0.2845 H   0  0  0  0  0  0  0  0  0  0  0  0
    0.0276    0.0525   -0.5444 H   0  0  0  0  0  0  0  0  0  0  0  0
   -1.5567    0.5824    2.8773 H   0  0  0  0  0  0  0  0  0  0  0  0
   -0.8654   -1.0252    3.1442 H   0  0  0  0  0  0  0  0  0  0  0  0
   -2.1569   -2.0584    1.5172 H   0  0  0  0  0  0  0  0  0  0  0  0
   -3.2930   -0.7296    1.9337 H   0  0  0  0  0  0  0  0  0  0  0  0
    3.1685   -1.1299    1.7664 H   0  0  0  0  0  0  0  0  0  0  0  0
    3.1279    0.3783    2.6416 H   0  0  0  0  0  0  0  0  0  0  0  0
    2.3632   -0.8059   -0.8042 H   0  0  0  0  0  0  0  0  0  0  0  0
    2.3340    0.8918   -1.3299 H   0  0  0  0  0  0  0  0  0  0  0  0
    4.2252    0.7887   -2.3142 H   0  0  0  0  0  0  0  0  0  0  0  0
    4.3012   -0.9788   -1.9277 H   0  0  0  0  0  0  0  0  0  0  0  0
    6.5273    0.7218   -2.3791 H   0  0  0  0  0  0  0  0  0  0  0  0
    7.4587    0.9067   -0.8319 H   0  0  0  0  0  0  0  0  0  0  0  0
    8.1125   -1.2898   -1.1049 H   0  0  0  0  0  0  0  0  0  0  0  0
    6.7985   -1.5277   -2.4065 H   0  0  0  0  0  0  0  0  0  0  0  0
    5.3007   -2.3502   -0.8391 H   0  0  0  0  0  0  0  0  0  0  0  0
    6.6597   -2.3876    0.3648 H   0  0  0  0  0  0  0  0  0  0  0  0
    6.0191    1.8819    0.7797 H   0  0  0  0  0  0  0  0  0  0  0  0
    5.1894    2.4365   -0.6935 H   0  0  0  0  0  0  0  0  0  0  0  0
    4.0162    1.8515    1.8866 H   0  0  0  0  0  0  0  0  0  0  0  0
    3.2473    2.6606    0.4903 H   0  0  0  0  0  0  0  0  0  0  0  0
   -5.5230   -1.3993    0.7147 H   0  0  0  0  0  0  0  0  0  0  0  0
   -7.5537   -0.2948    1.6208 H   0  0  0  0  0  0  0  0  0  0  0  0
   -7.8482    2.1702    1.3997 H   0  0  0  0  0  0  0  0  0  0  0  0
   -6.0487    3.4345    0.2481 H   0  0  0  0  0  0  0  0  0  0  0  0
   -4.0642    2.3105   -0.6293 H   0  0  0  0  0  0  0  0  0  0  0  0
  1  2  1  0
  2  3  1  0
  3  4  2  0
  3  5  1  0
  5  6  1  0
  6  7  1  0
  7  8  1  0
  8  9  1  0
  9 10  1  0
 10 11  1  0
  9 12  1  0
 12 13  2  0
 12 14  1  0
 14 15  1  0
 15 16  1  0
 16 17  1  0
 17 18  1  0
 18 19  1  0
 19 20  1  0
 20 21  1  0
 21 22  1  0
 18 23  1  0
 23 24  1  0
  5 25  1  0
 25 26  2  0
 26 27  1  0
 27 28  2  0
 28 29  1  0
 29 30  2  0
 11  6  1  0
 24 15  1  0
 30 25  1  0
 22 18  1  0
  1 31  1  0
  1 32  1  0
  1 33  1  0
  2 34  1  0
  2 35  1  0
  6 36  1  0
  7 37  1  0
  7 38  1  0
  8 39  1  0
  8 40  1  0
 10 41  1  0
 10 42  1  0
 11 43  1  0
 11 44  1  0
 14 45  1  0
 14 46  1  0
 16 47  1  0
 16 48  1  0
 17 49  1  0
 17 50  1  0
 19 51  1  0
 19 52  1  0
 20 53  1  0
 20 54  1  0
 21 55  1  0
 21 56  1  0
 23 57  1  0
 23 58  1  0
 24 59  1  0
 24 60  1  0
 26 61  1  0
 27 62  1  0
 28 63  1  0
 29 64  1  0
 30 65  1  0
M  END
$$$$
[H]OC([H])(C([H])([H])N([H])c1nc([H])c([H])c2c(OC([H])([H])[H])c(N([H])c3nc([H])c4c([H])nn(C5([H])C([H])([H])C([H])([H])C([H])([H])C5([H])[H])c4n3)c([H])c([H])c12)C([H])([H])N1C([H])([H])C([H])([H])OC([H])([H])C1([H])[H]
     RDKit          3D

 72 77  0  0  0  0  0  0  0  0999 V2000
    2.3356   -3.5654    1.3050 C   0  0  0  0  0  0  0  0  0  0  0  0
    1.8163   -2.9995    0.1318 O   0  0  0  0  0  0  0  0  0  0  0  0
    0.9824   -1.8972    0.1175 C   0  0  0  0  0  0  0  0  0  0  0  0
    1.5572   -0.6005    0.0317 C   0  0  0  0  0  0  0  0  0  0  0  0
    2.9489   -0.4973   -0.0277 N   0  0  0  0  0  0  0  0  0  0  0  0
    3.6954    0.6899   -0.1618 C   0  0  0  0  0  0  0  0  0  0  0  0
    3.2148    1.9269   -0.2602 N   0  0  0  0  0  0  0  0  0  0  0  0
    3.9696    3.0251   -0.3885 C   0  0  0  0  0  0  0  0  0  0  0  0
    5.3598    2.9083   -0.4257 C   0  0  0  0  0  0  0  0  0  0  0  0
    6.4079    3.7638   -0.5419 C   0  0  0  0  0  0  0  0  0  0  0  0
    7.5310    3.0409   -0.5133 N   0  0  0  0  0  0  0  0  0  0  0  0
    7.2509    1.7663   -0.3845 N   0  0  0  0  0  0  0  0  0  0  0  0
    8.1391    0.6284   -0.3043 C   0  0  0  0  0  0  0  0  0  0  0  0
    9.5753    0.9950   -0.4522 C   0  0  0  0  0  0  0  0  0  0  0  0
   10.2860   -0.1447    0.2433 C   0  0  0  0  0  0  0  0  0  0  0  0
    9.3894   -0.2952    1.4813 C   0  0  0  0  0  0  0  0  0  0  0  0
    7.9742   -0.1752    0.9286 C   0  0  0  0  0  0  0  0  0  0  0  0
    5.8910    1.6462   -0.3264 C   0  0  0  0  0  0  0  0  0  0  0  0
    5.0689    0.6145   -0.2021 N   0  0  0  0  0  0  0  0  0  0  0  0
    0.6450    0.4077    0.0253 C   0  0  0  0  0  0  0  0  0  0  0  0
   -0.7438    0.2324    0.0949 C   0  0  0  0  0  0  0  0  0  0  0  0
   -1.2553   -1.0418    0.1767 C   0  0  0  0  0  0  0  0  0  0  0  0
   -2.6138   -1.2371    0.2446 C   0  0  0  0  0  0  0  0  0  0  0  0
   -3.5616   -0.1847    0.2418 N   0  0  0  0  0  0  0  0  0  0  0  0
   -4.9798   -0.5290    0.3142 C   0  0  0  0  0  0  0  0  0  0  0  0
   -5.7835    0.7546    0.3157 C   0  0  0  0  0  0  0  0  0  0  0  0
   -5.5281    1.4722   -0.8325 O   0  0  0  0  0  0  0  0  0  0  0  0
   -7.2460    0.5151    0.4660 C   0  0  0  0  0  0  0  0  0  0  0  0
   -7.8827   -0.2092   -0.5803 N   0  0  0  0  0  0  0  0  0  0  0  0
   -9.2654   -0.4578   -0.1550 C   0  0  0  0  0  0  0  0  0  0  0  0
  -10.2438    0.5292   -0.6874 C   0  0  0  0  0  0  0  0  0  0  0  0
   -9.7385    1.8015   -0.8313 O   0  0  0  0  0  0  0  0  0  0  0  0
   -8.6674    1.8428   -1.7269 C   0  0  0  0  0  0  0  0  0  0  0  0
   -7.9997    0.5054   -1.8377 C   0  0  0  0  0  0  0  0  0  0  0  0
   -3.0502   -2.5309    0.3221 N   0  0  0  0  0  0  0  0  0  0  0  0
   -2.2434   -3.5889    0.3355 C   0  0  0  0  0  0  0  0  0  0  0  0
   -0.8830   -3.3858    0.2675 C   0  0  0  0  0  0  0  0  0  0  0  0
   -0.3633   -2.1065    0.1867 C   0  0  0  0  0  0  0  0  0  0  0  0
    2.9942   -4.4265    1.0153 H   0  0  0  0  0  0  0  0  0  0  0  0
    2.9703   -2.8525    1.8858 H   0  0  0  0  0  0  0  0  0  0  0  0
    1.5446   -3.9472    1.9850 H   0  0  0  0  0  0  0  0  0  0  0  0
    3.5316   -1.3894    0.0341 H   0  0  0  0  0  0  0  0  0  0  0  0
    3.5782    4.0207   -0.4670 H   0  0  0  0  0  0  0  0  0  0  0  0
    6.2908    4.8479   -0.6388 H   0  0  0  0  0  0  0  0  0  0  0  0
    7.8693   -0.0334   -1.1805 H   0  0  0  0  0  0  0  0  0  0  0  0
    9.8729    0.9323   -1.5353 H   0  0  0  0  0  0  0  0  0  0  0  0
    9.8277    1.9880   -0.0285 H   0  0  0  0  0  0  0  0  0  0  0  0
   11.3128    0.0877    0.5296 H   0  0  0  0  0  0  0  0  0  0  0  0
   10.1826   -1.0445   -0.4034 H   0  0  0  0  0  0  0  0  0  0  0  0
    9.6058   -1.3060    1.8799 H   0  0  0  0  0  0  0  0  0  0  0  0
    9.6258    0.5091    2.1892 H   0  0  0  0  0  0  0  0  0  0  0  0
    7.2752    0.2301    1.6651 H   0  0  0  0  0  0  0  0  0  0  0  0
    7.6354   -1.2253    0.7176 H   0  0  0  0  0  0  0  0  0  0  0  0
    0.9525    1.4221   -0.0323 H   0  0  0  0  0  0  0  0  0  0  0  0
   -1.3919    1.1100    0.0832 H   0  0  0  0  0  0  0  0  0  0  0  0
   -3.2645    0.7956    0.1910 H   0  0  0  0  0  0  0  0  0  0  0  0
   -5.1553   -1.0736    1.2835 H   0  0  0  0  0  0  0  0  0  0  0  0
   -5.2913   -1.2125   -0.4900 H   0  0  0  0  0  0  0  0  0  0  0  0
   -5.4121    1.3198    1.2212 H   0  0  0  0  0  0  0  0  0  0  0  0
   -4.8948    0.9766   -1.3990 H   0  0  0  0  0  0  0  0  0  0  0  0
   -7.3918   -0.0482    1.4175 H   0  0  0  0  0  0  0  0  0  0  0  0
   -7.7130    1.5154    0.6562 H   0  0  0  0  0  0  0  0  0  0  0  0
   -9.5947   -1.4709   -0.5005 H   0  0  0  0  0  0  0  0  0  0  0  0
   -9.3055   -0.4741    0.9459 H   0  0  0  0  0  0  0  0  0  0  0  0
  -11.1215    0.5877   -0.0055 H   0  0  0  0  0  0  0  0  0  0  0  0
  -10.6135    0.2147   -1.7030 H   0  0  0  0  0  0  0  0  0  0  0  0
   -8.0150    2.6877   -1.4975 H   0  0  0  0  0  0  0  0  0  0  0  0
   -9.1517    2.0721   -2.7256 H   0  0  0  0  0  0  0  0  0  0  0  0
   -7.0901    0.5324   -2.4385 H   0  0  0  0  0  0  0  0  0  0  0  0
   -8.7192   -0.1306   -2.4474 H   0  0  0  0  0  0  0  0  0  0  0  0
   -2.6897   -4.5848    0.4000 H   0  0  0  0  0  0  0  0  0  0  0  0
   -0.2436   -4.2495    0.2797 H   0  0  0  0  0  0  0  0  0  0  0  0
  1  2  1  0
  2  3  1  0
  3  4  2  0
  4  5  1  0
  5  6  1  0
  6  7  2  0
  7  8  1  0
  8  9  2  0
  9 10  1  0
 10 11  2  0
 11 12  1  0
 12 13  1  0
 13 14  1  0
 14 15  1  0
 15 16  1  0
 16 17  1  0
 12 18  1  0
 18 19  2  0
  4 20  1  0
 20 21  2  0
 21 22  1  0
 22 23  2  0
 23 24  1  0
 24 25  1  0
 25 26  1  0
 26 27  1  0
 26 28  1  0
 28 29  1  0
 29 30  1  0
 30 31  1  0
 31 32  1  0
 32 33  1  0
 33 34  1  0
 23 35  1  0
 35 36  2  0
 36 37  1  0
 37 38  2  0
 38  3  1  0
 19  6  1  0
 38 22  1  0
 18  9  1  0
 34 29  1  0
 17 13  1  0
  1 39  1  0
  1 40  1  0
  1 41  1  0
  5 42  1  0
  8 43  1  0
 10 44  1  0
 13 45  1  0
 14 46  1  0
 14 47  1  0
 15 48  1  0
 15 49  1  0
 16 50  1  0
 16 51  1  0
 17 52  1  0
 17 53  1  0
 20 54  1  0
 21 55  1  0
 24 56  1  0
 25 57  1  0
 25 58  1  0
 26 59  1  0
 27 60  1  0
 28 61  1  0
 28 62  1  0
 30 63  1  0
 30 64  1  0
 31 65  1  0
 31 66  1  0
 33 67  1  0
 33 68  1  0
 34 69  1  0
 34 70  1  0
 36 71  1  0
 37 72  1  0
M  END
$$$$
[H]N=C(c1c([H])c([H])c(C([H])([H])N([H])C(=O)[C@@]2([H])N(C(=O)N3C([H])([H])C([H])([H])C([H])([H])[C@@]3([H])C(=O)N3C([H])([H])C([H])([H])[C@]3([H])C(C([H])([H])[H])(C([H])([H])[H])C([H])([H])[H])[C@@]([H])(C([H])([H])c3c([H])c([H])c([H])c([H])c3[H])C2([H])[H])c([H])c1[H])N([H])[H]
     RDKit          3D

 83 87  0  0  0  0  0  0  0  0999 V2000
   -5.8661    0.9450    0.1618 C   0  0  0  0  0  0  0  0  0  0  0  0
   -5.6667   -0.2236    1.0750 C   0  0  0  0  0  0  0  0  0  0  0  0
   -6.8575   -1.1272    0.8885 C   0  0  0  0  0  0  0  0  0  0  0  0
   -5.8374    0.3537    2.4971 C   0  0  0  0  0  0  0  0  0  0  0  0
   -4.3408   -0.8709    1.0463 C   0  0  1  0  0  0  0  0  0  0  0  0
   -4.2771   -2.0502    2.0087 C   0  0  0  0  0  0  0  0  0  0  0  0
   -4.3990   -2.8407    0.7214 C   0  0  0  0  0  0  0  0  0  0  0  0
   -3.9115   -1.6943   -0.0161 N   0  0  0  0  0  0  0  0  0  0  0  0
   -3.2527   -1.5408   -1.2634 C   0  0  0  0  0  0  0  0  0  0  0  0
   -3.0686   -2.5791   -1.9429 O   0  0  0  0  0  0  0  0  0  0  0  0
   -2.8457   -0.1841   -1.6411 C   0  0  2  0  0  0  0  0  0  0  0  0
   -3.6004    0.2227   -2.9236 C   0  0  0  0  0  0  0  0  0  0  0  0
   -2.6566    1.1585   -3.6380 C   0  0  0  0  0  0  0  0  0  0  0  0
   -1.5010    1.3237   -2.6435 C   0  0  0  0  0  0  0  0  0  0  0  0
   -1.4651   -0.0038   -2.0608 N   0  0  0  0  0  0  0  0  0  0  0  0
   -0.3631   -0.8460   -1.9578 C   0  0  0  0  0  0  0  0  0  0  0  0
   -0.4720   -2.0327   -1.4864 O   0  0  0  0  0  0  0  0  0  0  0  0
    0.9615   -0.4664   -2.3611 N   0  0  0  0  0  0  0  0  0  0  0  0
    1.8021    0.5364   -2.8600 C   0  0  1  0  0  0  0  0  0  0  0  0
    2.4881    1.5609   -2.0407 C   0  0  0  0  0  0  0  0  0  0  0  0
    1.7642    2.5018   -1.2324 C   0  0  0  0  0  0  0  0  0  0  0  0
    1.3471    3.7137   -1.7258 C   0  0  0  0  0  0  0  0  0  0  0  0
    0.6669    4.6634   -1.0096 C   0  0  0  0  0  0  0  0  0  0  0  0
    0.3706    4.3823    0.3308 C   0  0  0  0  0  0  0  0  0  0  0  0
    0.7708    3.1742    0.8710 C   0  0  0  0  0  0  0  0  0  0  0  0
    1.4653    2.2450    0.0806 C   0  0  0  0  0  0  0  0  0  0  0  0
    2.8162   -0.5339   -3.3089 C   0  0  0  0  0  0  0  0  0  0  0  0
    2.0988   -1.4123   -2.4002 C   0  0  1  0  0  0  0  0  0  0  0  0
    2.6274   -1.8906   -1.1429 C   0  0  0  0  0  0  0  0  0  0  0  0
    3.6388   -2.6813   -1.2205 O   0  0  0  0  0  0  0  0  0  0  0  0
    2.1686   -1.6061    0.1441 N   0  0  0  0  0  0  0  0  0  0  0  0
    2.7680   -2.1888    1.3054 C   0  0  0  0  0  0  0  0  0  0  0  0
    4.0203   -1.6253    1.7752 C   0  0  0  0  0  0  0  0  0  0  0  0
    4.5667   -0.4943    1.2407 C   0  0  0  0  0  0  0  0  0  0  0  0
    5.7702    0.0664    1.6881 C   0  0  0  0  0  0  0  0  0  0  0  0
    6.4688   -0.5235    2.7187 C   0  0  0  0  0  0  0  0  0  0  0  0
    5.9105   -1.6656    3.2519 C   0  0  0  0  0  0  0  0  0  0  0  0
    4.7380   -2.2192    2.8224 C   0  0  0  0  0  0  0  0  0  0  0  0
    7.7183    0.0270    3.2184 C   0  0  0  0  0  0  0  0  0  0  0  0
    8.4081   -0.6202    4.3000 N   0  0  0  0  0  0  0  0  0  0  0  0
    8.2176    1.0831    2.7198 N   0  0  0  0  0  0  0  0  0  0  0  0
   -6.2801    0.6255   -0.8360 H   0  0  0  0  0  0  0  0  0  0  0  0
   -6.6562    1.5926    0.5938 H   0  0  0  0  0  0  0  0  0  0  0  0
   -4.9717    1.5858    0.0334 H   0  0  0  0  0  0  0  0  0  0  0  0
   -7.7550   -0.4738    1.0201 H   0  0  0  0  0  0  0  0  0  0  0  0
   -6.9283   -1.5188   -0.1462 H   0  0  0  0  0  0  0  0  0  0  0  0
   -6.9471   -1.9093    1.6565 H   0  0  0  0  0  0  0  0  0  0  0  0
   -5.1777   -0.1989    3.1807 H   0  0  0  0  0  0  0  0  0  0  0  0
   -5.4637    1.3988    2.4741 H   0  0  0  0  0  0  0  0  0  0  0  0
   -6.8985    0.3464    2.8072 H   0  0  0  0  0  0  0  0  0  0  0  0
   -3.5719   -0.1199    1.4185 H   0  0  0  0  0  0  0  0  0  0  0  0
   -3.2958   -2.1670    2.5149 H   0  0  0  0  0  0  0  0  0  0  0  0
   -5.0932   -2.1599    2.7144 H   0  0  0  0  0  0  0  0  0  0  0  0
   -5.3603   -3.2603    0.4619 H   0  0  0  0  0  0  0  0  0  0  0  0
   -3.6584   -3.6912    0.7773 H   0  0  0  0  0  0  0  0  0  0  0  0
   -2.9847    0.5524   -0.8303 H   0  0  0  0  0  0  0  0  0  0  0  0
   -4.5782    0.6568   -2.6975 H   0  0  0  0  0  0  0  0  0  0  0  0
   -3.7247   -0.7274   -3.5015 H   0  0  0  0  0  0  0  0  0  0  0  0
   -3.1381    2.1338   -3.8586 H   0  0  0  0  0  0  0  0  0  0  0  0
   -2.2760    0.7059   -4.5628 H   0  0  0  0  0  0  0  0  0  0  0  0
   -1.9079    2.0630   -1.8915 H   0  0  0  0  0  0  0  0  0  0  0  0
   -0.6013    1.6723   -3.1113 H   0  0  0  0  0  0  0  0  0  0  0  0
    1.4520    0.9961   -3.8628 H   0  0  0  0  0  0  0  0  0  0  0  0
    3.2958    1.0100   -1.4603 H   0  0  0  0  0  0  0  0  0  0  0  0
    3.1567    2.1441   -2.7874 H   0  0  0  0  0  0  0  0  0  0  0  0
    1.5745    3.9379   -2.7600 H   0  0  0  0  0  0  0  0  0  0  0  0
    0.3431    5.6158   -1.4121 H   0  0  0  0  0  0  0  0  0  0  0  0
   -0.1680    5.1208    0.9188 H   0  0  0  0  0  0  0  0  0  0  0  0
    0.5295    2.9823    1.9041 H   0  0  0  0  0  0  0  0  0  0  0  0
    1.7324    1.3443    0.6098 H   0  0  0  0  0  0  0  0  0  0  0  0
    3.8408   -0.2388   -2.9953 H   0  0  0  0  0  0  0  0  0  0  0  0
    2.7532   -0.7725   -4.4098 H   0  0  0  0  0  0  0  0  0  0  0  0
    1.7383   -2.3424   -3.0101 H   0  0  0  0  0  0  0  0  0  0  0  0
    1.3800   -0.9515    0.2917 H   0  0  0  0  0  0  0  0  0  0  0  0
    1.9882   -2.1999    2.1244 H   0  0  0  0  0  0  0  0  0  0  0  0
    2.9413   -3.3003    1.1435 H   0  0  0  0  0  0  0  0  0  0  0  0
    4.0787    0.0194    0.4391 H   0  0  0  0  0  0  0  0  0  0  0  0
    6.1793    0.9705    1.2383 H   0  0  0  0  0  0  0  0  0  0  0  0
    6.4862   -2.1212    4.0701 H   0  0  0  0  0  0  0  0  0  0  0  0
    4.3108   -3.1122    3.2459 H   0  0  0  0  0  0  0  0  0  0  0  0
    7.9575   -0.7434    5.2428 H   0  0  0  0  0  0  0  0  0  0  0  0
    9.3742   -0.9804    4.1693 H   0  0  0  0  0  0  0  0  0  0  0  0
    9.1327    1.4779    3.0931 H   0  0  0  0  0  0  0  0  0  0  0  0
  1  2  1  0
  2  3  1  0
  2  4  1  0
  2  5  1  0
  5  6  1  0
  6  7  1  0
  7  8  1  0
  8  9  1  0
  9 10  2  0
  9 11  1  0
 11 12  1  0
 12 13  1  0
 13 14  1  0
 14 15  1  0
 15 16  1  0
 16 17  2  0
 16 18  1  0
 18 19  1  0
 19 20  1  0
 20 21  1  0
 21 22  2  0
 22 23  1  0
 23 24  2  0
 24 25  1  0
 25 26  2  0
 19 27  1  0
 27 28  1  0
 28 29  1  0
 29 30  2  0
 29 31  1  0
 31 32  1  0
 32 33  1  0
 33 34  2  0
 34 35  1  0
 35 36  2  0
 36 37  1  0
 37 38  2  0
 36 39  1  0
 39 40  1  0
 39 41  2  3
  8  5  1  0
 15 11  1  0
 28 18  1  0
 38 33  1  0
 26 21  1  0
  1 42  1  0
  1 43  1  0
  1 44  1  0
  3 45  1  0
  3 46  1  0
  3 47  1  0
  4 48  1  0
  4 49  1  0
  4 50  1  0
  5 51  1  1
  6 52  1  0
  6 53  1  0
  7 54  1  0
  7 55  1  0
 11 56  1  1
 12 57  1  0
 12 58  1  0
 13 59  1  0
 13 60  1  0
 14 61  1  0
 14 62  1  0
 19 63  1  6
 20 64  1  0
 20 65  1  0
 22 66  1  0
 23 67  1  0
 24 68  1  0
 25 69  1  0
 26 70  1  0
 27 71  1  0
 27 72  1  0
 28 73  1  6
 31 74  1  0
 32 75  1  0
 32 76  1  0
 34 77  1  0
 35 78  1  0
 37 79  1  0
 38 80  1  0
 40 81  1  0
 40 82  1  0
 41 83  1  0
M  END
$$$$
[H]c1nc(N([H])[H])c([H])c([H])c1N([H])c1nc(N([H])c2c([H])c([H])c(C(=O)N([H])C([H])([H])C([H])([H])N3C([H])([H])C([H])([H])C([H])([H])C3([H])[H])c([H])c2[H])c2c(n1)c(C([H])([H])[H])nn2C([H])(C([H])([H])[H])C([H])([H])[H]
     RDKit          3D

 72 76  0  0  0  0  0  0  0  0999 V2000
   -2.8460   -4.9909   -0.5876 C   0  0  0  0  0  0  0  0  0  0  0  0
   -3.0758   -4.1549   -1.8351 C   0  0  0  0  0  0  0  0  0  0  0  0
   -3.8761   -5.1123   -2.7616 C   0  0  0  0  0  0  0  0  0  0  0  0
   -3.9485   -3.0773   -1.5012 N   0  0  0  0  0  0  0  0  0  0  0  0
   -5.2788   -3.1242   -1.6929 N   0  0  0  0  0  0  0  0  0  0  0  0
   -5.8733   -2.0249   -1.2738 C   0  0  0  0  0  0  0  0  0  0  0  0
   -7.3420   -1.7978   -1.3586 C   0  0  0  0  0  0  0  0  0  0  0  0
   -4.9010   -1.2013   -0.7780 C   0  0  0  0  0  0  0  0  0  0  0  0
   -4.9133    0.0033   -0.2172 N   0  0  0  0  0  0  0  0  0  0  0  0
   -3.8296    0.6374    0.2267 C   0  0  0  0  0  0  0  0  0  0  0  0
   -3.8436    1.9199    0.8173 N   0  0  0  0  0  0  0  0  0  0  0  0
   -4.9849    2.6987    1.0009 C   0  0  0  0  0  0  0  0  0  0  0  0
   -4.8941    3.6596    2.0310 C   0  0  0  0  0  0  0  0  0  0  0  0
   -5.9554    4.4936    2.2707 C   0  0  0  0  0  0  0  0  0  0  0  0
   -7.1132    4.4240    1.5361 C   0  0  0  0  0  0  0  0  0  0  0  0
   -8.1505    5.3444    1.8742 N   0  0  0  0  0  0  0  0  0  0  0  0
   -7.1872    3.5190    0.5725 N   0  0  0  0  0  0  0  0  0  0  0  0
   -6.1571    2.6643    0.2930 C   0  0  0  0  0  0  0  0  0  0  0  0
   -2.6627   -0.0439    0.0655 N   0  0  0  0  0  0  0  0  0  0  0  0
   -2.5614   -1.2591   -0.4896 C   0  0  0  0  0  0  0  0  0  0  0  0
   -1.2927   -1.8012   -0.6834 N   0  0  0  0  0  0  0  0  0  0  0  0
   -0.0791   -1.2306   -0.1260 C   0  0  0  0  0  0  0  0  0  0  0  0
   -0.0285   -0.6137    1.0883 C   0  0  0  0  0  0  0  0  0  0  0  0
    1.1800   -0.0746    1.5465 C   0  0  0  0  0  0  0  0  0  0  0  0
    2.3490   -0.1324    0.8242 C   0  0  0  0  0  0  0  0  0  0  0  0
    2.2869   -0.7619   -0.4102 C   0  0  0  0  0  0  0  0  0  0  0  0
    1.0986   -1.2908   -0.8578 C   0  0  0  0  0  0  0  0  0  0  0  0
    3.5932    0.4235    1.3404 C   0  0  0  0  0  0  0  0  0  0  0  0
    3.6993    0.6339    2.5741 O   0  0  0  0  0  0  0  0  0  0  0  0
    4.7010    0.7417    0.5098 N   0  0  0  0  0  0  0  0  0  0  0  0
    5.9327    1.2796    1.0121 C   0  0  0  0  0  0  0  0  0  0  0  0
    6.8683    1.5245   -0.1229 C   0  0  0  0  0  0  0  0  0  0  0  0
    8.1589    2.0562    0.2645 N   0  0  0  0  0  0  0  0  0  0  0  0
    8.8839    2.2831   -0.9786 C   0  0  0  0  0  0  0  0  0  0  0  0
    9.8333    1.1528   -1.1849 C   0  0  0  0  0  0  0  0  0  0  0  0
    9.5610    0.1784   -0.0695 C   0  0  0  0  0  0  0  0  0  0  0  0
    8.9440    1.0739    0.9942 C   0  0  0  0  0  0  0  0  0  0  0  0
   -3.6952   -1.8796   -0.9309 C   0  0  0  0  0  0  0  0  0  0  0  0
   -1.8406   -4.8217   -0.1520 H   0  0  0  0  0  0  0  0  0  0  0  0
   -2.9398   -6.0795   -0.7639 H   0  0  0  0  0  0  0  0  0  0  0  0
   -3.5785   -4.7293    0.1992 H   0  0  0  0  0  0  0  0  0  0  0  0
   -2.2051   -3.9537   -2.4395 H   0  0  0  0  0  0  0  0  0  0  0  0
   -3.3018   -6.0360   -2.9164 H   0  0  0  0  0  0  0  0  0  0  0  0
   -3.9356   -4.6129   -3.7555 H   0  0  0  0  0  0  0  0  0  0  0  0
   -4.8585   -5.2456   -2.3063 H   0  0  0  0  0  0  0  0  0  0  0  0
   -7.5758   -0.7224   -1.3681 H   0  0  0  0  0  0  0  0  0  0  0  0
   -7.7090   -2.2424   -2.3115 H   0  0  0  0  0  0  0  0  0  0  0  0
   -7.9004   -2.3162   -0.5440 H   0  0  0  0  0  0  0  0  0  0  0  0
   -2.8931    2.3238    1.1411 H   0  0  0  0  0  0  0  0  0  0  0  0
   -3.9853    3.7253    2.6239 H   0  0  0  0  0  0  0  0  0  0  0  0
   -5.8296    5.2238    3.0854 H   0  0  0  0  0  0  0  0  0  0  0  0
   -8.6004    5.9303    1.1413 H   0  0  0  0  0  0  0  0  0  0  0  0
   -8.4903    5.4624    2.8525 H   0  0  0  0  0  0  0  0  0  0  0  0
   -6.2576    1.9542   -0.5132 H   0  0  0  0  0  0  0  0  0  0  0  0
   -1.1360   -2.6344   -1.2600 H   0  0  0  0  0  0  0  0  0  0  0  0
   -0.9028   -0.5499    1.7092 H   0  0  0  0  0  0  0  0  0  0  0  0
    1.2299    0.4170    2.5075 H   0  0  0  0  0  0  0  0  0  0  0  0
    3.2010   -0.8205   -1.0031 H   0  0  0  0  0  0  0  0  0  0  0  0
    1.0231   -1.7950   -1.8329 H   0  0  0  0  0  0  0  0  0  0  0  0
    4.5940    0.5677   -0.5099 H   0  0  0  0  0  0  0  0  0  0  0  0
    5.6996    2.2628    1.5132 H   0  0  0  0  0  0  0  0  0  0  0  0
    6.3766    0.6599    1.8191 H   0  0  0  0  0  0  0  0  0  0  0  0
    6.4212    2.2877   -0.8080 H   0  0  0  0  0  0  0  0  0  0  0  0
    7.0385    0.6292   -0.7554 H   0  0  0  0  0  0  0  0  0  0  0  0
    8.1873    2.3084   -1.8651 H   0  0  0  0  0  0  0  0  0  0  0  0
    9.3607    3.2916   -0.9803 H   0  0  0  0  0  0  0  0  0  0  0  0
   10.8796    1.5124   -1.1067 H   0  0  0  0  0  0  0  0  0  0  0  0
    9.6810    0.6408   -2.1770 H   0  0  0  0  0  0  0  0  0  0  0  0
    8.9265   -0.6661   -0.3501 H   0  0  0  0  0  0  0  0  0  0  0  0
   10.5282   -0.2481    0.3315 H   0  0  0  0  0  0  0  0  0  0  0  0
    9.7914    1.6036    1.4872 H   0  0  0  0  0  0  0  0  0  0  0  0
    8.4015    0.5324    1.7643 H   0  0  0  0  0  0  0  0  0  0  0  0
  1  2  1  0
  2  3  1  0
  2  4  1  0
  4  5  1  0
  5  6  2  0
  6  7  1  0
  6  8  1  0
  8  9  2  0
  9 10  1  0
 10 11  1  0
 11 12  1  0
 12 13  2  0
 13 14  1  0
 14 15  2  0
 15 16  1  0
 15 17  1  0
 17 18  2  0
 10 19  2  0
 19 20  1  0
 20 21  1  0
 21 22  1  0
 22 23  2  0
 23 24  1  0
 24 25  2  0
 25 26  1  0
 26 27  2  0
 25 28  1  0
 28 29  2  0
 28 30  1  0
 30 31  1  0
 31 32  1  0
 32 33  1  0
 33 34  1  0
 34 35  1  0
 35 36  1  0
 36 37  1  0
 20 38  2  0
 38  4  1  0
 38  8  1  0
 18 12  1  0
 27 22  1  0
 37 33  1  0
  1 39  1  0
  1 40  1  0
  1 41  1  0
  2 42  1  0
  3 43  1  0
  3 44  1  0
  3 45  1  0
  7 46  1  0
  7 47  1  0
  7 48  1  0
 11 49  1  0
 13 50  1  0
 14 51  1  0
 16 52  1  0
 16 53  1  0
 18 54  1  0
 21 55  1  0
 23 56  1  0
 24 57  1  0
 26 58  1  0
 27 59  1  0
 30 60  1  0
 31 61  1  0
 31 62  1  0
 32 63  1  0
 32 64  1  0
 34 65  1  0
 34 66  1  0
 35 67  1  0
 35 68  1  0
 36 69  1  0
 36 70  1  0
 37 71  1  0
 37 72  1  0
M  END
$$$$
[H]c1c([H])c(C(=O)C([H])([H])C([H])([H])[H])c([H])c(-c2c([H])c([H])c(C#N)c([H])c2[H])c1[H]
     RDKit          3D

 31 32  0  0  0  0  0  0  0  0999 V2000
   -4.7913    1.0769    0.2998 C   0  0  0  0  0  0  0  0  0  0  0  0
   -4.1827    0.3062   -0.8550 C   0  0  0  0  0  0  0  0  0  0  0  0
   -2.7472    0.6597   -0.8976 C   0  0  0  0  0  0  0  0  0  0  0  0
   -2.4273    1.7082   -1.5459 O   0  0  0  0  0  0  0  0  0  0  0  0
   -1.7552   -0.1565   -0.2280 C   0  0  0  0  0  0  0  0  0  0  0  0
   -2.1177   -1.2667    0.4750 C   0  0  0  0  0  0  0  0  0  0  0  0
   -1.1574   -2.0592    1.1226 C   0  0  0  0  0  0  0  0  0  0  0  0
    0.1660   -1.6914    1.0338 C   0  0  0  0  0  0  0  0  0  0  0  0
    0.5831   -0.5774    0.3345 C   0  0  0  0  0  0  0  0  0  0  0  0
   -0.3922    0.1712   -0.2854 C   0  0  0  0  0  0  0  0  0  0  0  0
    1.9884   -0.1984    0.2485 C   0  0  0  0  0  0  0  0  0  0  0  0
    2.3595    1.1324    0.1419 C   0  0  0  0  0  0  0  0  0  0  0  0
    3.6808    1.5190    0.0599 C   0  0  0  0  0  0  0  0  0  0  0  0
    4.6547    0.5375    0.0861 C   0  0  0  0  0  0  0  0  0  0  0  0
    4.2836   -0.7949    0.1927 C   0  0  0  0  0  0  0  0  0  0  0  0
    2.9570   -1.1873    0.2753 C   0  0  0  0  0  0  0  0  0  0  0  0
    6.0320    0.9402    0.0008 C   0  0  0  0  0  0  0  0  0  0  0  0
    7.1519    1.2790   -0.0553 N   0  0  0  0  0  0  0  0  0  0  0  0
   -5.1051    0.3513    1.1004 H   0  0  0  0  0  0  0  0  0  0  0  0
   -5.6676    1.6423   -0.0839 H   0  0  0  0  0  0  0  0  0  0  0  0
   -4.0721    1.7831    0.7706 H   0  0  0  0  0  0  0  0  0  0  0  0
   -4.3389   -0.7765   -0.8048 H   0  0  0  0  0  0  0  0  0  0  0  0
   -4.6270    0.6689   -1.8301 H   0  0  0  0  0  0  0  0  0  0  0  0
   -3.1507   -1.5915    0.5730 H   0  0  0  0  0  0  0  0  0  0  0  0
   -1.4814   -2.9329    1.6711 H   0  0  0  0  0  0  0  0  0  0  0  0
    0.9425   -2.2717    1.5169 H   0  0  0  0  0  0  0  0  0  0  0  0
   -0.1107    1.0599   -0.8490 H   0  0  0  0  0  0  0  0  0  0  0  0
    1.5796    1.8842    0.1231 H   0  0  0  0  0  0  0  0  0  0  0  0
    3.9477    2.5582   -0.0224 H   0  0  0  0  0  0  0  0  0  0  0  0
    5.0804   -1.5302    0.2092 H   0  0  0  0  0  0  0  0  0  0  0  0
    2.7172   -2.2438    0.3573 H   0  0  0  0  0  0  0  0  0  0  0  0
  1  2  1  0
  2  3  1  0
  3  4  2  0
  3  5  1  0
  5  6  2  0
  6  7  1  0
  7  8  2  0
  8  9  1  0
  9 10  2  0
  9 11  1  0
 11 12  2  0
 12 13  1  0
 13 14  2  0
 14 15  1  0
 15 16  2  0
 14 17  1  0
 17 18  3  0
 10  5  1  0
 16 11  1  0
  1 19  1  0
  1 20  1  0
  1 21  1  0
  2 22  1  0
  2 23  1  0
  6 24  1  0
  7 25  1  0
  8 26  1  0
 10 27  1  0
 12 28  1  0
 13 29  1  0
 15 30  1  0
 16 31  1  0
M  END
$$$$
[H]OC(=O)C([H])([H])C([H])(C(=O)N([H])[C@]([H])(C(=O)N([H])C([H])([H])C([H])([H])C([H])([H])N([H])C(=O)C([H])(C([H])([H])OC([H])([H])[H])C([H])([H])C([H])([H])[H])C([H])([H])C(=O)O[H])N([H])C(=O)C([H])(n1c(-c2c([H])c([H])nc(C([H])(F)F)c2[H])nc(C(C([H])([H])[H])(C([H])([H])[H])C([H])([H])[H])c1[H])C([H])([H])C([H])([H])[H]
     RDKit          3D

101102  0  0  0  0  0  0  0  0999 V2000
   10.7279   -0.6962   -3.4832 C   0  0  0  0  0  0  0  0  0  0  0  0
   11.5499    0.1542   -2.5637 C   0  0  0  0  0  0  0  0  0  0  0  0
   11.1220   -0.0915   -1.1331 C   0  0  0  0  0  0  0  0  0  0  0  0
   11.9567    0.7613   -0.1963 C   0  0  0  0  0  0  0  0  0  0  0  0
   11.6173    0.5860    1.1379 O   0  0  0  0  0  0  0  0  0  0  0  0
   12.4629    1.4465    1.8731 C   0  0  0  0  0  0  0  0  0  0  0  0
    9.6890    0.2805   -0.9556 C   0  0  0  0  0  0  0  0  0  0  0  0
    9.1317    0.9153   -1.8798 O   0  0  0  0  0  0  0  0  0  0  0  0
    8.9620   -0.0610    0.2175 N   0  0  0  0  0  0  0  0  0  0  0  0
    7.5734    0.3185    0.3990 C   0  0  0  0  0  0  0  0  0  0  0  0
    7.0514   -0.2067    1.6968 C   0  0  0  0  0  0  0  0  0  0  0  0
    5.6442    0.1443    2.0114 C   0  0  0  0  0  0  0  0  0  0  0  0
    4.6643   -0.2773    1.0543 N   0  0  0  0  0  0  0  0  0  0  0  0
    3.2852   -0.0722    1.1823 C   0  0  0  0  0  0  0  0  0  0  0  0
    2.9219    0.5318    2.2666 O   0  0  0  0  0  0  0  0  0  0  0  0
    2.2388   -0.4684    0.2216 C   0  0  2  0  0  0  0  0  0  0  0  0
    2.5176    0.3115   -1.0687 C   0  0  0  0  0  0  0  0  0  0  0  0
    1.5450    0.0207   -2.1292 C   0  0  0  0  0  0  0  0  0  0  0  0
    1.7320   -0.9387   -3.0989 O   0  0  0  0  0  0  0  0  0  0  0  0
    0.4785    0.6930   -2.1457 O   0  0  0  0  0  0  0  0  0  0  0  0
    0.9194   -0.1752    0.7183 N   0  0  0  0  0  0  0  0  0  0  0  0
   -0.2438   -0.9501    0.5092 C   0  0  0  0  0  0  0  0  0  0  0  0
   -0.1213   -1.9797   -0.1884 O   0  0  0  0  0  0  0  0  0  0  0  0
   -1.5564   -0.5971    1.0672 C   0  0  0  0  0  0  0  0  0  0  0  0
   -1.6880   -1.0158    2.5275 C   0  0  0  0  0  0  0  0  0  0  0  0
   -1.5665   -2.4389    2.7830 C   0  0  0  0  0  0  0  0  0  0  0  0
   -1.4982   -3.3780    1.7782 O   0  0  0  0  0  0  0  0  0  0  0  0
   -1.5176   -2.8892    3.9650 O   0  0  0  0  0  0  0  0  0  0  0  0
   -2.6850   -1.1075    0.3063 N   0  0  0  0  0  0  0  0  0  0  0  0
   -3.7757   -0.2797   -0.0313 C   0  0  0  0  0  0  0  0  0  0  0  0
   -3.7432    0.9290    0.3566 O   0  0  0  0  0  0  0  0  0  0  0  0
   -4.9598   -0.6810   -0.7972 C   0  0  0  0  0  0  0  0  0  0  0  0
   -4.6604   -0.8364   -2.2737 C   0  0  0  0  0  0  0  0  0  0  0  0
   -4.1412    0.3445   -2.9823 C   0  0  0  0  0  0  0  0  0  0  0  0
   -6.1292    0.0815   -0.4748 N   0  0  0  0  0  0  0  0  0  0  0  0
   -6.4417    1.2896   -1.0260 C   0  0  0  0  0  0  0  0  0  0  0  0
   -7.6462    1.7378   -0.5395 C   0  0  0  0  0  0  0  0  0  0  0  0
   -8.0609    0.8101    0.3004 N   0  0  0  0  0  0  0  0  0  0  0  0
   -7.1445   -0.2170    0.3592 C   0  0  0  0  0  0  0  0  0  0  0  0
   -7.4403   -1.3532    1.2070 C   0  0  0  0  0  0  0  0  0  0  0  0
   -6.5501   -2.2575    1.6693 C   0  0  0  0  0  0  0  0  0  0  0  0
   -6.9057   -3.3907    2.4298 C   0  0  0  0  0  0  0  0  0  0  0  0
   -8.2017   -3.5757    2.7104 N   0  0  0  0  0  0  0  0  0  0  0  0
   -9.1480   -2.7223    2.2904 C   0  0  0  0  0  0  0  0  0  0  0  0
   -8.7881   -1.6222    1.5487 C   0  0  0  0  0  0  0  0  0  0  0  0
  -10.5561   -2.9999    2.6470 C   0  0  0  0  0  0  0  0  0  0  0  0
  -11.4272   -2.8061    1.6023 F   0  0  0  0  0  0  0  0  0  0  0  0
  -10.9400   -2.0661    3.6299 F   0  0  0  0  0  0  0  0  0  0  0  0
   -8.3411    3.0190   -0.8933 C   0  0  0  0  0  0  0  0  0  0  0  0
   -8.3814    3.8776    0.3519 C   0  0  0  0  0  0  0  0  0  0  0  0
   -9.7522    2.7438   -1.3669 C   0  0  0  0  0  0  0  0  0  0  0  0
   -7.6104    3.7149   -2.0213 C   0  0  0  0  0  0  0  0  0  0  0  0
    9.9321   -1.1974   -2.8944 H   0  0  0  0  0  0  0  0  0  0  0  0
   11.3812   -1.4632   -3.9800 H   0  0  0  0  0  0  0  0  0  0  0  0
   10.2681   -0.0606   -4.2670 H   0  0  0  0  0  0  0  0  0  0  0  0
   12.6054   -0.0876   -2.6683 H   0  0  0  0  0  0  0  0  0  0  0  0
   11.3694    1.2446   -2.8000 H   0  0  0  0  0  0  0  0  0  0  0  0
   11.2388   -1.1370   -0.8709 H   0  0  0  0  0  0  0  0  0  0  0  0
   13.0329    0.6059   -0.3437 H   0  0  0  0  0  0  0  0  0  0  0  0
   11.6869    1.8393   -0.4328 H   0  0  0  0  0  0  0  0  0  0  0  0
   12.1936    1.3213    2.9250 H   0  0  0  0  0  0  0  0  0  0  0  0
   13.5206    1.2577    1.6586 H   0  0  0  0  0  0  0  0  0  0  0  0
   12.1891    2.4670    1.5393 H   0  0  0  0  0  0  0  0  0  0  0  0
    9.4197   -0.5974    0.9814 H   0  0  0  0  0  0  0  0  0  0  0  0
    6.9181   -0.0017   -0.4435 H   0  0  0  0  0  0  0  0  0  0  0  0
    7.5886    1.4494    0.4646 H   0  0  0  0  0  0  0  0  0  0  0  0
    7.2674   -1.2963    1.7883 H   0  0  0  0  0  0  0  0  0  0  0  0
    7.6866    0.2612    2.5020 H   0  0  0  0  0  0  0  0  0  0  0  0
    5.4046   -0.2289    3.0268 H   0  0  0  0  0  0  0  0  0  0  0  0
    5.5832    1.2650    2.0400 H   0  0  0  0  0  0  0  0  0  0  0  0
    5.0161   -0.7800    0.1998 H   0  0  0  0  0  0  0  0  0  0  0  0
    2.2909   -1.5235   -0.0794 H   0  0  0  0  0  0  0  0  0  0  0  0
    2.5489    1.3825   -0.7929 H   0  0  0  0  0  0  0  0  0  0  0  0
    3.5270    0.0683   -1.4514 H   0  0  0  0  0  0  0  0  0  0  0  0
    2.6746   -1.1873   -3.3700 H   0  0  0  0  0  0  0  0  0  0  0  0
    0.7998    0.7043    1.2994 H   0  0  0  0  0  0  0  0  0  0  0  0
   -1.6522    0.5083    1.0893 H   0  0  0  0  0  0  0  0  0  0  0  0
   -0.8606   -0.4810    3.0709 H   0  0  0  0  0  0  0  0  0  0  0  0
   -2.6331   -0.5853    2.9168 H   0  0  0  0  0  0  0  0  0  0  0  0
   -2.2698   -3.9540    1.4465 H   0  0  0  0  0  0  0  0  0  0  0  0
   -2.6821   -2.0916    0.0074 H   0  0  0  0  0  0  0  0  0  0  0  0
   -5.1496   -1.7729   -0.4996 H   0  0  0  0  0  0  0  0  0  0  0  0
   -5.6386   -1.1375   -2.7441 H   0  0  0  0  0  0  0  0  0  0  0  0
   -3.9900   -1.7377   -2.4026 H   0  0  0  0  0  0  0  0  0  0  0  0
   -3.3674   -0.0283   -3.7316 H   0  0  0  0  0  0  0  0  0  0  0  0
   -3.6940    1.1173   -2.3638 H   0  0  0  0  0  0  0  0  0  0  0  0
   -4.9047    0.8461   -3.6463 H   0  0  0  0  0  0  0  0  0  0  0  0
   -5.8482    1.8317   -1.7255 H   0  0  0  0  0  0  0  0  0  0  0  0
   -5.4884   -2.1785    1.5403 H   0  0  0  0  0  0  0  0  0  0  0  0
   -6.1846   -4.0958    2.7836 H   0  0  0  0  0  0  0  0  0  0  0  0
   -9.5362   -0.9293    1.2013 H   0  0  0  0  0  0  0  0  0  0  0  0
  -10.6589   -3.9740    3.1457 H   0  0  0  0  0  0  0  0  0  0  0  0
   -8.9820    4.7672    0.1622 H   0  0  0  0  0  0  0  0  0  0  0  0
   -7.3258    4.1470    0.5954 H   0  0  0  0  0  0  0  0  0  0  0  0
   -8.8341    3.2698    1.1635 H   0  0  0  0  0  0  0  0  0  0  0  0
  -10.0445    3.5822   -2.0220 H   0  0  0  0  0  0  0  0  0  0  0  0
  -10.4645    2.5632   -0.5379 H   0  0  0  0  0  0  0  0  0  0  0  0
   -9.7141    1.8302   -2.0193 H   0  0  0  0  0  0  0  0  0  0  0  0
   -7.2375    2.9992   -2.7857 H   0  0  0  0  0  0  0  0  0  0  0  0
   -6.8030    4.3599   -1.6604 H   0  0  0  0  0  0  0  0  0  0  0  0
   -8.3485    4.3629   -2.5842 H   0  0  0  0  0  0  0  0  0  0  0  0
  1  2  1  0
  2  3  1  0
  3  4  1  0
  4  5  1  0
  5  6  1  0
  3  7  1  0
  7  8  2  0
  7  9  1  0
  9 10  1  0
 10 11  1  0
 11 12  1  0
 12 13  1  0
 13 14  1  0
 14 15  2  0
 14 16  1  0
 16 17  1  0
 17 18  1  0
 18 19  1  0
 18 20  2  0
 16 21  1  0
 21 22  1  0
 22 23  2  0
 22 24  1  0
 24 25  1  0
 25 26  1  0
 26 27  1  0
 26 28  2  0
 24 29  1  0
 29 30  1  0
 30 31  2  0
 30 32  1  0
 32 33  1  0
 33 34  1  0
 32 35  1  0
 35 36  1  0
 36 37  2  0
 37 38  1  0
 38 39  2  0
 39 40  1  0
 40 41  2  0
 41 42  1  0
 42 43  2  0
 43 44  1  0
 44 45  2  0
 44 46  1  0
 46 47  1  0
 46 48  1  0
 37 49  1  0
 49 50  1  0
 49 51  1  0
 49 52  1  0
 39 35  1  0
 45 40  1  0
  1 53  1  0
  1 54  1  0
  1 55  1  0
  2 56  1  0
  2 57  1  0
  3 58  1  0
  4 59  1  0
  4 60  1  0
  6 61  1  0
  6 62  1  0
  6 63  1  0
  9 64  1  0
 10 65  1  0
 10 66  1  0
 11 67  1  0
 11 68  1  0
 12 69  1  0
 12 70  1  0
 13 71  1  0
 16 72  1  6
 17 73  1  0
 17 74  1  0
 19 75  1  0
 21 76  1  0
 24 77  1  0
 25 78  1  0
 25 79  1  0
 27 80  1  0
 29 81  1  0
 32 82  1  0
 33 83  1  0
 33 84  1  0
 34 85  1  0
 34 86  1  0
 34 87  1  0
 36 88  1  0
 41 89  1  0
 42 90  1  0
 45 91  1  0
 46 92  1  0
 50 93  1  0
 50 94  1  0
 50 95  1  0
 51 96  1  0
 51 97  1  0
 51 98  1  0
 52 99  1  0
 52100  1  0
 52101  1  0
M  END
$$$$
[H]OC(=O)c1c([H])c([H])c([H])c(S(=O)(=O)N([H])C([H])(c2c([H])c([H])c(C([H])([H])C([H])([H])C([H])([H])C([H])([H])C([H])([H])C([H])([H])C([H])([H])C([H])([H])C([H])([H])[H])c([H])c2[H])C([H])([H])C([H])(C([H])([H])[H])C([H])([H])S[H])c1[H]
     RDKit          3D

 73 74  0  0  0  0  0  0  0  0999 V2000
    9.6260   -2.9636   -0.4459 C   0  0  0  0  0  0  0  0  0  0  0  0
    8.2445   -2.3141   -0.5939 C   0  0  0  0  0  0  0  0  0  0  0  0
    7.4067   -2.7989    0.5765 C   0  0  0  0  0  0  0  0  0  0  0  0
    6.0172   -2.2298    0.5469 C   0  0  0  0  0  0  0  0  0  0  0  0
    6.0004   -0.7329    0.6071 C   0  0  0  0  0  0  0  0  0  0  0  0
    4.6121   -0.1488    0.5806 C   0  0  0  0  0  0  0  0  0  0  0  0
    3.8809   -0.5258   -0.6718 C   0  0  0  0  0  0  0  0  0  0  0  0
    2.4866    0.0540   -0.7173 C   0  0  0  0  0  0  0  0  0  0  0  0
    1.6232   -0.4078    0.4289 C   0  0  0  0  0  0  0  0  0  0  0  0
    0.2862    0.2586    0.2293 C   0  0  0  0  0  0  0  0  0  0  0  0
   -0.6943   -0.3522   -0.5090 C   0  0  0  0  0  0  0  0  0  0  0  0
   -1.9158    0.2776   -0.6801 C   0  0  0  0  0  0  0  0  0  0  0  0
   -2.1905    1.5091   -0.1321 C   0  0  0  0  0  0  0  0  0  0  0  0
   -1.1734    2.0943    0.6079 C   0  0  0  0  0  0  0  0  0  0  0  0
    0.0480    1.4761    0.7853 C   0  0  0  0  0  0  0  0  0  0  0  0
   -3.4973    2.1834   -0.3236 C   0  0  0  0  0  0  0  0  0  0  0  0
   -3.4338    3.2553   -1.3752 C   0  0  0  0  0  0  0  0  0  0  0  0
   -3.0417    2.7720   -2.7400 C   0  0  0  0  0  0  0  0  0  0  0  0
   -3.9591    1.7583   -3.3352 C   0  0  0  0  0  0  0  0  0  0  0  0
   -2.8699    3.9721   -3.6697 C   0  0  0  0  0  0  0  0  0  0  0  0
   -2.3993    3.4744   -5.3261 S   0  0  0  0  0  0  0  0  0  0  0  0
   -4.0021    2.6455    0.9312 N   0  0  0  0  0  0  0  0  0  0  0  0
   -5.4460    1.9551    1.4689 S   0  0  0  0  0  0  0  0  0  0  0  0
   -6.6312    2.2462    0.6040 O   0  0  0  0  0  0  0  0  0  0  0  0
   -5.7597    2.5229    2.8255 O   0  0  0  0  0  0  0  0  0  0  0  0
   -5.1914    0.2405    1.6793 C   0  0  0  0  0  0  0  0  0  0  0  0
   -4.7266   -0.1891    2.9039 C   0  0  0  0  0  0  0  0  0  0  0  0
   -4.4785   -1.5039    3.2193 C   0  0  0  0  0  0  0  0  0  0  0  0
   -4.7175   -2.4339    2.2305 C   0  0  0  0  0  0  0  0  0  0  0  0
   -5.1885   -2.0072    0.9869 C   0  0  0  0  0  0  0  0  0  0  0  0
   -5.4290   -0.6846    0.6964 C   0  0  0  0  0  0  0  0  0  0  0  0
   -5.4180   -3.0405   -0.0085 C   0  0  0  0  0  0  0  0  0  0  0  0
   -5.1926   -4.3776    0.2261 O   0  0  0  0  0  0  0  0  0  0  0  0
   -5.8385   -2.7112   -1.1307 O   0  0  0  0  0  0  0  0  0  0  0  0
    9.9533   -2.8647    0.6063 H   0  0  0  0  0  0  0  0  0  0  0  0
    9.4753   -4.0465   -0.6297 H   0  0  0  0  0  0  0  0  0  0  0  0
   10.3392   -2.5681   -1.1741 H   0  0  0  0  0  0  0  0  0  0  0  0
    8.3330   -1.2128   -0.6148 H   0  0  0  0  0  0  0  0  0  0  0  0
    7.8443   -2.6781   -1.5489 H   0  0  0  0  0  0  0  0  0  0  0  0
    7.9001   -2.5768    1.5297 H   0  0  0  0  0  0  0  0  0  0  0  0
    7.3311   -3.9001    0.4968 H   0  0  0  0  0  0  0  0  0  0  0  0
    5.4542   -2.6527   -0.2925 H   0  0  0  0  0  0  0  0  0  0  0  0
    5.5082   -2.5968    1.4768 H   0  0  0  0  0  0  0  0  0  0  0  0
    6.5037   -0.4210    1.5506 H   0  0  0  0  0  0  0  0  0  0  0  0
    6.5715   -0.2662   -0.2243 H   0  0  0  0  0  0  0  0  0  0  0  0
    4.7382    0.9649    0.5938 H   0  0  0  0  0  0  0  0  0  0  0  0
    4.0565   -0.4682    1.4900 H   0  0  0  0  0  0  0  0  0  0  0  0
    4.4317   -0.1013   -1.5334 H   0  0  0  0  0  0  0  0  0  0  0  0
    3.7899   -1.6106   -0.8024 H   0  0  0  0  0  0  0  0  0  0  0  0
    2.4611    1.1434   -0.7477 H   0  0  0  0  0  0  0  0  0  0  0  0
    2.0057   -0.3404   -1.6498 H   0  0  0  0  0  0  0  0  0  0  0  0
    1.4520   -1.4987    0.3876 H   0  0  0  0  0  0  0  0  0  0  0  0
    2.0096   -0.0838    1.4063 H   0  0  0  0  0  0  0  0  0  0  0  0
   -0.5426   -1.3168   -0.9648 H   0  0  0  0  0  0  0  0  0  0  0  0
   -2.7047   -0.2169   -1.2704 H   0  0  0  0  0  0  0  0  0  0  0  0
   -1.3160    3.0457    1.0598 H   0  0  0  0  0  0  0  0  0  0  0  0
    0.8221    1.9646    1.3716 H   0  0  0  0  0  0  0  0  0  0  0  0
   -4.2015    1.4153   -0.6987 H   0  0  0  0  0  0  0  0  0  0  0  0
   -2.6057    3.9533   -1.0498 H   0  0  0  0  0  0  0  0  0  0  0  0
   -4.3258    3.8624   -1.4560 H   0  0  0  0  0  0  0  0  0  0  0  0
   -2.0170    2.2950   -2.7061 H   0  0  0  0  0  0  0  0  0  0  0  0
   -3.4840    0.7457   -3.4357 H   0  0  0  0  0  0  0  0  0  0  0  0
   -4.1947    2.0553   -4.3988 H   0  0  0  0  0  0  0  0  0  0  0  0
   -4.9428    1.6956   -2.8285 H   0  0  0  0  0  0  0  0  0  0  0  0
   -2.1735    4.7074   -3.2659 H   0  0  0  0  0  0  0  0  0  0  0  0
   -3.8700    4.4897   -3.7530 H   0  0  0  0  0  0  0  0  0  0  0  0
   -3.4907    3.3171   -6.1915 H   0  0  0  0  0  0  0  0  0  0  0  0
   -3.2474    2.7054    1.6119 H   0  0  0  0  0  0  0  0  0  0  0  0
   -4.5307    0.5389    3.7035 H   0  0  0  0  0  0  0  0  0  0  0  0
   -4.1137   -1.8413    4.1807 H   0  0  0  0  0  0  0  0  0  0  0  0
   -4.5388   -3.5003    2.4201 H   0  0  0  0  0  0  0  0  0  0  0  0
   -5.7913   -0.3428   -0.2565 H   0  0  0  0  0  0  0  0  0  0  0  0
   -5.9269   -5.0684    0.3321 H   0  0  0  0  0  0  0  0  0  0  0  0
  1  2  1  0
  2  3  1  0
  3  4  1  0
  4  5  1  0
  5  6  1  0
  6  7  1  0
  7  8  1  0
  8  9  1  0
  9 10  1  0
 10 11  2  0
 11 12  1  0
 12 13  2  0
 13 14  1  0
 14 15  2  0
 13 16  1  0
 16 17  1  0
 17 18  1  0
 18 19  1  0
 18 20  1  0
 20 21  1  0
 16 22  1  0
 22 23  1  0
 23 24  2  0
 23 25  2  0
 23 26  1  0
 26 27  2  0
 27 28  1  0
 28 29  2  0
 29 30  1  0
 30 31  2  0
 30 32  1  0
 32 33  1  0
 32 34  2  0
 15 10  1  0
 31 26  1  0
  1 35  1  0
  1 36  1  0
  1 37  1  0
  2 38  1  0
  2 39  1  0
  3 40  1  0
  3 41  1  0
  4 42  1  0
  4 43  1  0
  5 44  1  0
  5 45  1  0
  6 46  1  0
  6 47  1  0
  7 48  1  0
  7 49  1  0
  8 50  1  0
  8 51  1  0
  9 52  1  0
  9 53  1  0
 11 54  1  0
 12 55  1  0
 14 56  1  0
 15 57  1  0
 16 58  1  0
 17 59  1  0
 17 60  1  0
 18 61  1  0
 19 62  1  0
 19 63  1  0
 19 64  1  0
 20 65  1  0
 20 66  1  0
 21 67  1  0
 22 68  1  0
 27 69  1  0
 28 70  1  0
 29 71  1  0
 31 72  1  0
 33 73  1  0
M  END
$$$$
[H]c1c([H])c(N2C([H])([H])C3([H])N([H])C2([H])C([H])([H])C3([H])[H])c([H])c([H])c1Cl
     RDKit          3D

 27 29  0  0  0  0  0  0  0  0999 V2000
    5.5230    1.2752    0.4819 Cl  0  0  0  0  0  0  0  0  0  0  0  0
    3.8267    0.8181    0.4049 C   0  0  0  0  0  0  0  0  0  0  0  0
    3.4255    0.0363   -0.6473 C   0  0  0  0  0  0  0  0  0  0  0  0
    2.0945   -0.3167   -0.6989 C   0  0  0  0  0  0  0  0  0  0  0  0
    1.1769    0.0695    0.2317 C   0  0  0  0  0  0  0  0  0  0  0  0
    1.6087    0.8532    1.2756 C   0  0  0  0  0  0  0  0  0  0  0  0
    2.9360    1.2402    1.3808 C   0  0  0  0  0  0  0  0  0  0  0  0
   -0.1845   -0.2967    0.1710 N   0  0  0  0  0  0  0  0  0  0  0  0
   -0.7520   -1.1194   -0.8830 C   0  0  0  0  0  0  0  0  0  0  0  0
   -2.1775   -1.3237   -0.4241 C   0  0  0  0  0  0  0  0  0  0  0  0
   -2.9290   -0.0561   -0.6665 C   0  0  0  0  0  0  0  0  0  0  0  0
   -2.3099    0.8902    0.3731 C   0  0  0  0  0  0  0  0  0  0  0  0
   -1.2748    0.0179    1.0555 C   0  0  0  0  0  0  0  0  0  0  0  0
   -1.9963   -1.2719    1.0378 N   0  0  0  0  0  0  0  0  0  0  0  0
    4.1390   -0.2702   -1.3805 H   0  0  0  0  0  0  0  0  0  0  0  0
    1.7461   -0.9356   -1.5206 H   0  0  0  0  0  0  0  0  0  0  0  0
    0.9495    1.2039    2.0567 H   0  0  0  0  0  0  0  0  0  0  0  0
    3.3170    1.8465    2.1711 H   0  0  0  0  0  0  0  0  0  0  0  0
   -0.2580   -2.1145   -0.9352 H   0  0  0  0  0  0  0  0  0  0  0  0
   -0.6685   -0.5980   -1.8342 H   0  0  0  0  0  0  0  0  0  0  0  0
   -2.6422   -2.2315   -0.7642 H   0  0  0  0  0  0  0  0  0  0  0  0
   -2.6101    0.3268   -1.6745 H   0  0  0  0  0  0  0  0  0  0  0  0
   -4.0084   -0.1337   -0.5665 H   0  0  0  0  0  0  0  0  0  0  0  0
   -1.8869    1.7802   -0.0974 H   0  0  0  0  0  0  0  0  0  0  0  0
   -3.0980    1.0969    1.1141 H   0  0  0  0  0  0  0  0  0  0  0  0
   -1.0010    0.3335    2.0483 H   0  0  0  0  0  0  0  0  0  0  0  0
   -2.9460   -1.1203    1.4465 H   0  0  0  0  0  0  0  0  0  0  0  0
  1  2  1  0
  2  3  2  0
  3  4  1  0
  4  5  2  0
  5  6  1  0
  6  7  2  0
  5  8  1  0
  8  9  1  0
  9 10  1  0
 10 11  1  0
 11 12  1  0
 12 13  1  0
 13 14  1  0
  7  2  1  0
 13  8  1  0
 14 10  1  0
  3 15  1  0
  4 16  1  0
  6 17  1  0
  7 18  1  0
  9 19  1  0
  9 20  1  0
 10 21  1  0
 11 22  1  0
 11 23  1  0
 12 24  1  0
 12 25  1  0
 13 26  1  0
 14 27  1  0
M  END
$$$$
[H]OC(=O)C1([H])C([H])([H])N(C([H])([H])[C@@]2([H])Oc3c([H])c([H])c([N+](=O)[O-])c([H])c3C([H])([H])C2([H])[H])C([H])([H])C([H])([H])C1([H])[H]
     RDKit          3D

 43 45  0  0  0  0  0  0  0  0999 V2000
    7.1150    1.3250    1.5864 O   0  0  0  0  0  0  0  0  0  0  0  0
    6.5004    0.5318    0.6614 N   0  0  0  0  0  0  0  0  0  0  0  0
    7.1423   -0.2198   -0.0802 O   0  0  0  0  0  0  0  0  0  0  0  0
    5.0828    0.5696    0.5464 C   0  0  0  0  0  0  0  0  0  0  0  0
    4.3436    1.4077    1.3709 C   0  0  0  0  0  0  0  0  0  0  0  0
    2.9768    1.4024    1.2149 C   0  0  0  0  0  0  0  0  0  0  0  0
    2.3359    0.6086    0.2864 C   0  0  0  0  0  0  0  0  0  0  0  0
    0.9789    0.5792    0.1056 O   0  0  0  0  0  0  0  0  0  0  0  0
    0.2963    0.2192   -1.0710 C   0  0  2  0  0  0  0  0  0  0  0  0
   -0.6233   -0.9600   -0.8597 C   0  0  0  0  0  0  0  0  0  0  0  0
   -1.6384   -0.6920    0.1405 N   0  0  0  0  0  0  0  0  0  0  0  0
   -2.4526   -1.8637    0.2651 C   0  0  0  0  0  0  0  0  0  0  0  0
   -3.8538   -1.6900   -0.2672 C   0  0  0  0  0  0  0  0  0  0  0  0
   -4.5805   -0.5448    0.4048 C   0  0  0  0  0  0  0  0  0  0  0  0
   -3.5745    0.4797    0.8651 C   0  0  0  0  0  0  0  0  0  0  0  0
   -2.4386    0.4522   -0.1659 C   0  0  0  0  0  0  0  0  0  0  0  0
   -4.1376    1.8125    1.0350 C   0  0  0  0  0  0  0  0  0  0  0  0
   -3.3320    2.8515    1.4530 O   0  0  0  0  0  0  0  0  0  0  0  0
   -5.3461    2.0412    0.8091 O   0  0  0  0  0  0  0  0  0  0  0  0
    1.2802   -0.1739   -2.1455 C   0  0  0  0  0  0  0  0  0  0  0  0
    2.3277   -1.0647   -1.5246 C   0  0  0  0  0  0  0  0  0  0  0  0
    3.0816   -0.2300   -0.5380 C   0  0  0  0  0  0  0  0  0  0  0  0
    4.4426   -0.2402   -0.3992 C   0  0  0  0  0  0  0  0  0  0  0  0
    4.8615    2.0301    2.1005 H   0  0  0  0  0  0  0  0  0  0  0  0
    2.3919    2.0504    1.8510 H   0  0  0  0  0  0  0  0  0  0  0  0
   -0.2617    1.1290   -1.3880 H   0  0  0  0  0  0  0  0  0  0  0  0
   -1.1635   -1.2189   -1.7921 H   0  0  0  0  0  0  0  0  0  0  0  0
   -0.0216   -1.7961   -0.4752 H   0  0  0  0  0  0  0  0  0  0  0  0
   -2.5096   -2.1547    1.3326 H   0  0  0  0  0  0  0  0  0  0  0  0
   -2.0175   -2.7382   -0.2664 H   0  0  0  0  0  0  0  0  0  0  0  0
   -4.4120   -2.6158   -0.0117 H   0  0  0  0  0  0  0  0  0  0  0  0
   -3.8678   -1.6152   -1.3744 H   0  0  0  0  0  0  0  0  0  0  0  0
   -5.2332   -0.9009    1.2089 H   0  0  0  0  0  0  0  0  0  0  0  0
   -5.2272   -0.0658   -0.3650 H   0  0  0  0  0  0  0  0  0  0  0  0
   -3.1399    0.1104    1.8210 H   0  0  0  0  0  0  0  0  0  0  0  0
   -1.9044    1.4013   -0.1619 H   0  0  0  0  0  0  0  0  0  0  0  0
   -2.9177    0.3627   -1.1812 H   0  0  0  0  0  0  0  0  0  0  0  0
   -3.0466    3.6059    0.8234 H   0  0  0  0  0  0  0  0  0  0  0  0
    0.7652   -0.6593   -2.9960 H   0  0  0  0  0  0  0  0  0  0  0  0
    1.7997    0.7642   -2.4612 H   0  0  0  0  0  0  0  0  0  0  0  0
    1.9402   -1.9253   -0.9764 H   0  0  0  0  0  0  0  0  0  0  0  0
    3.0211   -1.4658   -2.3048 H   0  0  0  0  0  0  0  0  0  0  0  0
    5.0165   -0.8996   -1.0488 H   0  0  0  0  0  0  0  0  0  0  0  0
  1  2  1  0
  2  3  2  0
  2  4  1  0
  4  5  2  0
  5  6  1  0
  6  7  2  0
  7  8  1  0
  8  9  1  0
  9 10  1  0
 10 11  1  0
 11 12  1  0
 12 13  1  0
 13 14  1  0
 14 15  1  0
 15 16  1  0
 15 17  1  0
 17 18  1  0
 17 19  2  0
  9 20  1  0
 20 21  1  0
 21 22  1  0
 22 23  2  0
 23  4  1  0
 22  7  1  0
 16 11  1  0
  5 24  1  0
  6 25  1  0
  9 26  1  6
 10 27  1  0
 10 28  1  0
 12 29  1  0
 12 30  1  0
 13 31  1  0
 13 32  1  0
 14 33  1  0
 14 34  1  0
 15 35  1  0
 16 36  1  0
 16 37  1  0
 18 38  1  0
 20 39  1  0
 20 40  1  0
 21 41  1  0
 21 42  1  0
 23 43  1  0
M  CHG  2   1  -1   2   1
M  END
$$$$
[H]OC(=O)c1c([H])c([H])c(OC2([H])C([H])([H])C([H])([H])N(C(=O)N([H])[C@]3([H])C([H])([H])C([H])([H])[C@@]([H])(Oc4c([H])c([H])c([H])c([H])c4[H])C([H])([H])C3([H])[H])C([H])([H])C2([H])[H])c(F)c1[H]
     RDKit          3D

 62 65  0  0  0  0  0  0  0  0999 V2000
   -9.8208   -3.7043   -0.1011 O   0  0  0  0  0  0  0  0  0  0  0  0
   -9.1448   -2.9372   -1.0272 C   0  0  0  0  0  0  0  0  0  0  0  0
   -9.6054   -2.7935   -2.1802 O   0  0  0  0  0  0  0  0  0  0  0  0
   -7.8866   -2.2852   -0.6743 C   0  0  0  0  0  0  0  0  0  0  0  0
   -7.2105   -1.5232   -1.5873 C   0  0  0  0  0  0  0  0  0  0  0  0
   -6.0405   -0.8954   -1.3156 C   0  0  0  0  0  0  0  0  0  0  0  0
   -5.4402   -1.0002   -0.0319 C   0  0  0  0  0  0  0  0  0  0  0  0
   -4.2778   -0.3560    0.1842 O   0  0  0  0  0  0  0  0  0  0  0  0
   -3.4273   -0.2118    1.1966 C   0  0  0  0  0  0  0  0  0  0  0  0
   -3.3687    1.2489    1.6425 C   0  0  0  0  0  0  0  0  0  0  0  0
   -2.6273    2.1088    0.6802 C   0  0  0  0  0  0  0  0  0  0  0  0
   -1.3427    1.5134    0.3519 N   0  0  0  0  0  0  0  0  0  0  0  0
   -1.3702    0.1965   -0.2047 C   0  0  0  0  0  0  0  0  0  0  0  0
   -2.0378   -0.7065    0.8161 C   0  0  0  0  0  0  0  0  0  0  0  0
   -0.1473    2.2001    0.5738 C   0  0  0  0  0  0  0  0  0  0  0  0
   -0.2040    3.3817    1.0845 O   0  0  0  0  0  0  0  0  0  0  0  0
    1.1487    1.7245    0.2903 N   0  0  0  0  0  0  0  0  0  0  0  0
    2.3323    2.5538    0.5738 C   0  0  1  0  0  0  0  0  0  0  0  0
    3.2287    1.8868    1.5903 C   0  0  0  0  0  0  0  0  0  0  0  0
    4.6660    1.9560    1.0902 C   0  0  0  0  0  0  0  0  0  0  0  0
    4.6864    1.0630   -0.1717 C   0  0  1  0  0  0  0  0  0  0  0  0
    3.9517    1.8594   -1.2345 C   0  0  0  0  0  0  0  0  0  0  0  0
    3.0521    2.9089   -0.6908 C   0  0  0  0  0  0  0  0  0  0  0  0
    5.9873    0.7809   -0.4979 O   0  0  0  0  0  0  0  0  0  0  0  0
    6.5120   -0.4808   -0.5805 C   0  0  0  0  0  0  0  0  0  0  0  0
    5.7971   -1.6279   -0.3435 C   0  0  0  0  0  0  0  0  0  0  0  0
    6.3903   -2.8650   -0.4448 C   0  0  0  0  0  0  0  0  0  0  0  0
    7.7084   -3.0051   -0.7834 C   0  0  0  0  0  0  0  0  0  0  0  0
    8.4361   -1.8793   -1.0228 C   0  0  0  0  0  0  0  0  0  0  0  0
    7.8700   -0.6418   -0.9286 C   0  0  0  0  0  0  0  0  0  0  0  0
   -6.1241   -1.7653    0.8766 C   0  0  0  0  0  0  0  0  0  0  0  0
   -5.6373   -1.9361    2.1503 F   0  0  0  0  0  0  0  0  0  0  0  0
   -7.3312   -2.4040    0.5720 C   0  0  0  0  0  0  0  0  0  0  0  0
   -9.4434   -4.0925    0.7365 H   0  0  0  0  0  0  0  0  0  0  0  0
   -7.6497   -1.4276   -2.5768 H   0  0  0  0  0  0  0  0  0  0  0  0
   -5.5141   -0.3004   -2.0315 H   0  0  0  0  0  0  0  0  0  0  0  0
   -3.6739   -0.7660    2.1150 H   0  0  0  0  0  0  0  0  0  0  0  0
   -2.9436    1.3519    2.6556 H   0  0  0  0  0  0  0  0  0  0  0  0
   -4.4226    1.5923    1.6937 H   0  0  0  0  0  0  0  0  0  0  0  0
   -3.1983    2.1215   -0.2916 H   0  0  0  0  0  0  0  0  0  0  0  0
   -2.5062    3.1070    1.0972 H   0  0  0  0  0  0  0  0  0  0  0  0
   -0.3826   -0.2026   -0.4030 H   0  0  0  0  0  0  0  0  0  0  0  0
   -1.9790    0.2067   -1.1413 H   0  0  0  0  0  0  0  0  0  0  0  0
   -2.1635   -1.6997    0.3569 H   0  0  0  0  0  0  0  0  0  0  0  0
   -1.4000   -0.8072    1.7027 H   0  0  0  0  0  0  0  0  0  0  0  0
    1.2807    0.7704   -0.1280 H   0  0  0  0  0  0  0  0  0  0  0  0
    1.9771    3.5012    1.0234 H   0  0  0  0  0  0  0  0  0  0  0  0
    3.1938    2.3316    2.5836 H   0  0  0  0  0  0  0  0  0  0  0  0
    2.9799    0.7988    1.6608 H   0  0  0  0  0  0  0  0  0  0  0  0
    4.8916    2.9856    0.7883 H   0  0  0  0  0  0  0  0  0  0  0  0
    5.3166    1.5492    1.8655 H   0  0  0  0  0  0  0  0  0  0  0  0
    4.0623    0.1815    0.0261 H   0  0  0  0  0  0  0  0  0  0  0  0
    3.4451    1.1419   -1.9070 H   0  0  0  0  0  0  0  0  0  0  0  0
    4.7342    2.3851   -1.8570 H   0  0  0  0  0  0  0  0  0  0  0  0
    2.2606    3.1148   -1.4692 H   0  0  0  0  0  0  0  0  0  0  0  0
    3.5841    3.8715   -0.5168 H   0  0  0  0  0  0  0  0  0  0  0  0
    4.7574   -1.6201   -0.0723 H   0  0  0  0  0  0  0  0  0  0  0  0
    5.8053   -3.7546   -0.2526 H   0  0  0  0  0  0  0  0  0  0  0  0
    8.1570   -4.0017   -0.8574 H   0  0  0  0  0  0  0  0  0  0  0  0
    9.4816   -1.9663   -1.2921 H   0  0  0  0  0  0  0  0  0  0  0  0
    8.4349    0.2487   -1.1150 H   0  0  0  0  0  0  0  0  0  0  0  0
   -7.8078   -2.9851    1.3336 H   0  0  0  0  0  0  0  0  0  0  0  0
  1  2  1  0
  2  3  2  0
  2  4  1  0
  4  5  2  0
  5  6  1  0
  6  7  2  0
  7  8  1  0
  8  9  1  0
  9 10  1  0
 10 11  1  0
 11 12  1  0
 12 13  1  0
 13 14  1  0
 12 15  1  0
 15 16  2  0
 15 17  1  0
 17 18  1  0
 18 19  1  0
 19 20  1  0
 20 21  1  0
 21 22  1  0
 22 23  1  0
 21 24  1  0
 24 25  1  0
 25 26  2  0
 26 27  1  0
 27 28  2  0
 28 29  1  0
 29 30  2  0
  7 31  1  0
 31 32  1  0
 31 33  2  0
 33  4  1  0
 14  9  1  0
 23 18  1  0
 30 25  1  0
  1 34  1  0
  5 35  1  0
  6 36  1  0
  9 37  1  0
 10 38  1  0
 10 39  1  0
 11 40  1  0
 11 41  1  0
 13 42  1  0
 13 43  1  0
 14 44  1  0
 14 45  1  0
 17 46  1  0
 18 47  1  1
 19 48  1  0
 19 49  1  0
 20 50  1  0
 20 51  1  0
 21 52  1  1
 22 53  1  0
 22 54  1  0
 23 55  1  0
 23 56  1  0
 26 57  1  0
 27 58  1  0
 28 59  1  0
 29 60  1  0
 30 61  1  0
 33 62  1  0
M  END
$$$$
[H]c1c([H])c([H])c(C(=O)N([H])c2c([H])c(N3C([H])([H])C([H])([H])C([H])([H])C([H])([H])C3([H])[H])c([H])c([C@@]([H])(N([H])S(=O)(=O)c3c([H])c([H])c(C#N)c([H])c3[H])C([H])([H])c3c([H])c([H])c4c([H])c([H])c([H])c([H])c4c3[H])c2[H])c([H])c1[H]
     RDKit          3D

 79 84  0  0  0  0  0  0  0  0999 V2000
    5.8219   -0.3817   -1.1583 O   0  0  0  0  0  0  0  0  0  0  0  0
    4.9695   -0.5981   -2.0967 C   0  0  0  0  0  0  0  0  0  0  0  0
    3.5847   -0.5575   -1.9244 N   0  0  0  0  0  0  0  0  0  0  0  0
    2.8293   -0.2931   -0.7794 C   0  0  0  0  0  0  0  0  0  0  0  0
    1.4372   -0.1734   -0.8467 C   0  0  0  0  0  0  0  0  0  0  0  0
    0.6477    0.0727    0.2372 C   0  0  0  0  0  0  0  0  0  0  0  0
    1.2665    0.2081    1.4506 C   0  0  0  0  0  0  0  0  0  0  0  0
    2.6283    0.1051    1.6058 C   0  0  0  0  0  0  0  0  0  0  0  0
    3.3903   -0.1487    0.4595 C   0  0  0  0  0  0  0  0  0  0  0  0
    3.1825    0.2659    2.8895 N   0  0  0  0  0  0  0  0  0  0  0  0
    2.3282    0.7725    3.9617 C   0  0  0  0  0  0  0  0  0  0  0  0
    3.1153    0.8271    5.2258 C   0  0  0  0  0  0  0  0  0  0  0  0
    4.4092    1.5874    5.0857 C   0  0  0  0  0  0  0  0  0  0  0  0
    5.1295    1.2769    3.7976 C   0  0  0  0  0  0  0  0  0  0  0  0
    4.5442   -0.0328    3.2714 C   0  0  0  0  0  0  0  0  0  0  0  0
   -0.8385    0.1956    0.1485 C   0  0  2  0  0  0  0  0  0  0  0  0
   -1.3392   -1.1927   -0.0298 C   0  0  0  0  0  0  0  0  0  0  0  0
   -2.7682   -1.4020   -0.1464 C   0  0  0  0  0  0  0  0  0  0  0  0
   -3.6090   -1.5801    0.9423 C   0  0  0  0  0  0  0  0  0  0  0  0
   -4.9581   -1.7881    0.7624 C   0  0  0  0  0  0  0  0  0  0  0  0
   -5.5303   -1.8283   -0.5091 C   0  0  0  0  0  0  0  0  0  0  0  0
   -6.8803   -2.0364   -0.6796 C   0  0  0  0  0  0  0  0  0  0  0  0
   -7.3803   -2.0642   -1.9640 C   0  0  0  0  0  0  0  0  0  0  0  0
   -6.5950   -1.8946   -3.0746 C   0  0  0  0  0  0  0  0  0  0  0  0
   -5.2525   -1.6888   -2.8727 C   0  0  0  0  0  0  0  0  0  0  0  0
   -4.7176   -1.6555   -1.5847 C   0  0  0  0  0  0  0  0  0  0  0  0
   -3.3433   -1.4440   -1.3957 C   0  0  0  0  0  0  0  0  0  0  0  0
   -1.1249    1.0578   -0.9515 N   0  0  0  0  0  0  0  0  0  0  0  0
   -1.8716    2.5287   -0.5357 S   0  0  0  0  0  0  0  0  0  0  0  0
   -2.1093    3.3733   -1.7694 O   0  0  0  0  0  0  0  0  0  0  0  0
   -1.0372    3.3685    0.3870 O   0  0  0  0  0  0  0  0  0  0  0  0
   -3.4314    2.3370    0.2306 C   0  0  0  0  0  0  0  0  0  0  0  0
   -4.5723    2.2708   -0.5498 C   0  0  0  0  0  0  0  0  0  0  0  0
   -5.8234    2.1220    0.0052 C   0  0  0  0  0  0  0  0  0  0  0  0
   -5.9927    2.0318    1.3790 C   0  0  0  0  0  0  0  0  0  0  0  0
   -4.8535    2.0982    2.1540 C   0  0  0  0  0  0  0  0  0  0  0  0
   -3.5812    2.2492    1.5932 C   0  0  0  0  0  0  0  0  0  0  0  0
   -7.3066    1.8756    1.9492 C   0  0  0  0  0  0  0  0  0  0  0  0
   -8.3667    1.7416    2.3945 N   0  0  0  0  0  0  0  0  0  0  0  0
    5.5266   -0.9039   -3.4126 C   0  0  0  0  0  0  0  0  0  0  0  0
    6.8155   -1.3666   -3.5089 C   0  0  0  0  0  0  0  0  0  0  0  0
    7.3946   -1.6649   -4.7336 C   0  0  0  0  0  0  0  0  0  0  0  0
    6.6557   -1.4914   -5.8820 C   0  0  0  0  0  0  0  0  0  0  0  0
    5.3690   -1.0310   -5.8105 C   0  0  0  0  0  0  0  0  0  0  0  0
    4.8055   -0.7366   -4.5633 C   0  0  0  0  0  0  0  0  0  0  0  0
    3.0082   -0.7680   -2.8019 H   0  0  0  0  0  0  0  0  0  0  0  0
    0.9678   -0.2812   -1.8017 H   0  0  0  0  0  0  0  0  0  0  0  0
    0.6279    0.4050    2.3084 H   0  0  0  0  0  0  0  0  0  0  0  0
    4.4411   -0.2201    0.6336 H   0  0  0  0  0  0  0  0  0  0  0  0
    1.4750    0.1008    4.1240 H   0  0  0  0  0  0  0  0  0  0  0  0
    2.0318    1.7975    3.6460 H   0  0  0  0  0  0  0  0  0  0  0  0
    3.2895   -0.2172    5.5968 H   0  0  0  0  0  0  0  0  0  0  0  0
    2.4753    1.3659    5.9875 H   0  0  0  0  0  0  0  0  0  0  0  0
    5.0705    1.2825    5.9275 H   0  0  0  0  0  0  0  0  0  0  0  0
    4.2029    2.6833    5.1223 H   0  0  0  0  0  0  0  0  0  0  0  0
    4.9000    2.0680    3.0516 H   0  0  0  0  0  0  0  0  0  0  0  0
    6.2263    1.1547    3.9564 H   0  0  0  0  0  0  0  0  0  0  0  0
    4.5601   -0.7585    4.1191 H   0  0  0  0  0  0  0  0  0  0  0  0
    5.1583   -0.3926    2.4368 H   0  0  0  0  0  0  0  0  0  0  0  0
   -1.1793    0.6720    1.0948 H   0  0  0  0  0  0  0  0  0  0  0  0
   -0.7941   -1.6299   -0.9086 H   0  0  0  0  0  0  0  0  0  0  0  0
   -0.9717   -1.8005    0.8430 H   0  0  0  0  0  0  0  0  0  0  0  0
   -3.1885   -1.5531    1.9439 H   0  0  0  0  0  0  0  0  0  0  0  0
   -5.6296   -1.9301    1.5971 H   0  0  0  0  0  0  0  0  0  0  0  0
   -7.5115   -2.1714    0.1827 H   0  0  0  0  0  0  0  0  0  0  0  0
   -8.4443   -2.2282   -2.0930 H   0  0  0  0  0  0  0  0  0  0  0  0
   -6.9911   -1.9174   -4.0830 H   0  0  0  0  0  0  0  0  0  0  0  0
   -4.5881   -1.5480   -3.7383 H   0  0  0  0  0  0  0  0  0  0  0  0
   -2.7932   -1.3276   -2.3222 H   0  0  0  0  0  0  0  0  0  0  0  0
   -1.6183    0.6087   -1.7230 H   0  0  0  0  0  0  0  0  0  0  0  0
   -4.4500    2.3416   -1.6297 H   0  0  0  0  0  0  0  0  0  0  0  0
   -6.7318    2.0686   -0.5936 H   0  0  0  0  0  0  0  0  0  0  0  0
   -4.9653    2.0296    3.2338 H   0  0  0  0  0  0  0  0  0  0  0  0
   -2.7092    2.2982    2.2085 H   0  0  0  0  0  0  0  0  0  0  0  0
    7.4218   -1.5137   -2.6287 H   0  0  0  0  0  0  0  0  0  0  0  0
    8.4093   -2.0240   -4.7344 H   0  0  0  0  0  0  0  0  0  0  0  0
    7.1473   -1.7373   -6.8280 H   0  0  0  0  0  0  0  0  0  0  0  0
    4.8024   -0.8990   -6.7037 H   0  0  0  0  0  0  0  0  0  0  0  0
    3.7828   -0.3700   -4.5752 H   0  0  0  0  0  0  0  0  0  0  0  0
  1  2  2  0
  2  3  1  0
  3  4  1  0
  4  5  2  0
  5  6  1  0
  6  7  2  0
  7  8  1  0
  8  9  2  0
  8 10  1  0
 10 11  1  0
 11 12  1  0
 12 13  1  0
 13 14  1  0
 14 15  1  0
  6 16  1  0
 16 17  1  0
 17 18  1  0
 18 19  2  0
 19 20  1  0
 20 21  2  0
 21 22  1  0
 22 23  2  0
 23 24  1  0
 24 25  2  0
 25 26  1  0
 26 27  2  0
 16 28  1  0
 28 29  1  0
 29 30  2  0
 29 31  2  0
 29 32  1  0
 32 33  2  0
 33 34  1  0
 34 35  2  0
 35 36  1  0
 36 37  2  0
 35 38  1  0
 38 39  3  0
  2 40  1  0
 40 41  2  0
 41 42  1  0
 42 43  2  0
 43 44  1  0
 44 45  2  0
  9  4  1  0
 15 10  1  0
 27 18  1  0
 37 32  1  0
 45 40  1  0
 26 21  1  0
  3 46  1  0
  5 47  1  0
  7 48  1  0
  9 49  1  0
 11 50  1  0
 11 51  1  0
 12 52  1  0
 12 53  1  0
 13 54  1  0
 13 55  1  0
 14 56  1  0
 14 57  1  0
 15 58  1  0
 15 59  1  0
 16 60  1  1
 17 61  1  0
 17 62  1  0
 19 63  1  0
 20 64  1  0
 22 65  1  0
 23 66  1  0
 24 67  1  0
 25 68  1  0
 27 69  1  0
 28 70  1  0
 33 71  1  0
 34 72  1  0
 36 73  1  0
 37 74  1  0
 41 75  1  0
 42 76  1  0
 43 77  1  0
 44 78  1  0
 45 79  1  0
M  END
$$$$
[H]c1c([H])c(Cl)c([H])c(N2C(c3c([H])c([H])c(Cl)c([H])c3[H])=NC([H])([H])C2([H])[H])c1[H]
     RDKit          3D

 31 33  0  0  0  0  0  0  0  0999 V2000
    5.3813    0.6204    0.2183 Cl  0  0  0  0  0  0  0  0  0  0  0  0
    3.7526    0.0026    0.5161 C   0  0  0  0  0  0  0  0  0  0  0  0
    3.4255   -0.6172    1.6997 C   0  0  0  0  0  0  0  0  0  0  0  0
    2.1545   -1.0920    1.9146 C   0  0  0  0  0  0  0  0  0  0  0  0
    1.1652   -0.9712    0.9704 C   0  0  0  0  0  0  0  0  0  0  0  0
    1.4525   -0.3565   -0.2272 C   0  0  0  0  0  0  0  0  0  0  0  0
    2.7569    0.1181   -0.4198 C   0  0  0  0  0  0  0  0  0  0  0  0
    0.4695   -0.1942   -1.2238 N   0  0  0  0  0  0  0  0  0  0  0  0
    0.7911   -0.1013   -2.6656 C   0  0  0  0  0  0  0  0  0  0  0  0
   -0.4185   -0.8126   -3.2655 C   0  0  0  0  0  0  0  0  0  0  0  0
   -1.4516   -0.4252   -2.3170 N   0  0  0  0  0  0  0  0  0  0  0  0
   -0.9428   -0.0786   -1.1764 C   0  0  0  0  0  0  0  0  0  0  0  0
   -1.7187    0.3701   -0.0223 C   0  0  0  0  0  0  0  0  0  0  0  0
   -1.2825    1.3149    0.8721 C   0  0  0  0  0  0  0  0  0  0  0  0
   -2.0812    1.6690    1.9314 C   0  0  0  0  0  0  0  0  0  0  0  0
   -3.3244    1.1114    2.1452 C   0  0  0  0  0  0  0  0  0  0  0  0
   -4.2952    1.6095    3.5205 Cl  0  0  0  0  0  0  0  0  0  0  0  0
   -3.7697    0.1655    1.2558 C   0  0  0  0  0  0  0  0  0  0  0  0
   -2.9721   -0.1851    0.2020 C   0  0  0  0  0  0  0  0  0  0  0  0
    4.2170   -0.7060    2.4372 H   0  0  0  0  0  0  0  0  0  0  0  0
    1.9534   -1.5727    2.8682 H   0  0  0  0  0  0  0  0  0  0  0  0
    0.1859   -1.3782    1.2010 H   0  0  0  0  0  0  0  0  0  0  0  0
    3.0119    0.6054   -1.3518 H   0  0  0  0  0  0  0  0  0  0  0  0
    0.7771    0.9496   -3.0097 H   0  0  0  0  0  0  0  0  0  0  0  0
    1.7409   -0.5997   -2.8715 H   0  0  0  0  0  0  0  0  0  0  0  0
   -0.6289   -0.5083   -4.2941 H   0  0  0  0  0  0  0  0  0  0  0  0
   -0.2534   -1.8997   -3.1514 H   0  0  0  0  0  0  0  0  0  0  0  0
   -0.3231    1.7660    0.7263 H   0  0  0  0  0  0  0  0  0  0  0  0
   -1.7154    2.4297    2.6408 H   0  0  0  0  0  0  0  0  0  0  0  0
   -4.7198   -0.2887    1.3828 H   0  0  0  0  0  0  0  0  0  0  0  0
   -3.3379   -0.9452   -0.5065 H   0  0  0  0  0  0  0  0  0  0  0  0
  1  2  1  0
  2  3  2  0
  3  4  1  0
  4  5  2  0
  5  6  1  0
  6  7  2  0
  6  8  1  0
  8  9  1  0
  9 10  1  0
 10 11  1  0
 11 12  2  0
 12 13  1  0
 13 14  2  0
 14 15  1  0
 15 16  2  0
 16 17  1  0
 16 18  1  0
 18 19  2  0
  7  2  1  0
 12  8  1  0
 19 13  1  0
  3 20  1  0
  4 21  1  0
  5 22  1  0
  7 23  1  0
  9 24  1  0
  9 25  1  0
 10 26  1  0
 10 27  1  0
 14 28  1  0
 15 29  1  0
 18 30  1  0
 19 31  1  0
M  END
$$$$
[H]c1c([H])c([H])c(-c2c([H])c([H])c(Cl)c(Cl)c2[H])c(C(=O)[C@]2([H])N([H])C(=O)[C@]3(C([H])([H])[H])C([H])([H])C([H])([H])C([H])([H])[C@@]3([H])[C@]2([H])[C@@]([H])(C([H])([H])[H])C([H])([H])C([H])([H])[H])c1[H]
     RDKit          3D

 60 63  0  0  0  0  0  0  0  0999 V2000
   -2.3011    3.1518    2.5038 C   0  0  0  0  0  0  0  0  0  0  0  0
   -2.3226    1.6886    2.1223 C   0  0  0  0  0  0  0  0  0  0  0  0
   -1.1978    1.3006    1.1679 C   0  0  2  0  0  0  0  0  0  0  0  0
   -1.3510    2.1273   -0.0473 C   0  0  0  0  0  0  0  0  0  0  0  0
   -1.1744   -0.1894    0.9718 C   0  0  1  0  0  0  0  0  0  0  0  0
   -2.4898   -0.6907    0.4569 C   0  0  2  0  0  0  0  0  0  0  0  0
   -3.3919   -1.4484    1.3459 C   0  0  0  0  0  0  0  0  0  0  0  0
   -4.4623   -1.9161    0.3704 C   0  0  0  0  0  0  0  0  0  0  0  0
   -4.0499   -1.4195   -1.0048 C   0  0  0  0  0  0  0  0  0  0  0  0
   -2.5186   -1.5065   -0.7746 C   0  0  2  0  0  0  0  0  0  0  0  0
   -2.2228   -2.9581   -0.7089 C   0  0  0  0  0  0  0  0  0  0  0  0
   -1.7535   -0.8137   -1.8031 C   0  0  0  0  0  0  0  0  0  0  0  0
   -2.0561   -0.6746   -3.0189 O   0  0  0  0  0  0  0  0  0  0  0  0
   -0.5374   -0.2547   -1.3500 N   0  0  0  0  0  0  0  0  0  0  0  0
   -0.1084   -0.7204    0.0212 C   0  0  1  0  0  0  0  0  0  0  0  0
    1.2583   -0.2013    0.1899 C   0  0  0  0  0  0  0  0  0  0  0  0
    1.5135    0.8537    0.6879 O   0  0  0  0  0  0  0  0  0  0  0  0
    2.3285   -1.0623   -0.3484 C   0  0  0  0  0  0  0  0  0  0  0  0
    2.0184   -2.4078   -0.5737 C   0  0  0  0  0  0  0  0  0  0  0  0
    2.9913   -3.2998   -1.0486 C   0  0  0  0  0  0  0  0  0  0  0  0
    4.2467   -2.8347   -1.2883 C   0  0  0  0  0  0  0  0  0  0  0  0
    4.5562   -1.5167   -1.0674 C   0  0  0  0  0  0  0  0  0  0  0  0
    3.5876   -0.5931   -0.5905 C   0  0  0  0  0  0  0  0  0  0  0  0
    3.9369    0.7939   -0.5388 C   0  0  0  0  0  0  0  0  0  0  0  0
    5.0579    1.1914    0.1610 C   0  0  0  0  0  0  0  0  0  0  0  0
    5.4792    2.5009    0.2365 C   0  0  0  0  0  0  0  0  0  0  0  0
    4.7417    3.4902   -0.4304 C   0  0  0  0  0  0  0  0  0  0  0  0
    5.2726    5.1347   -0.3451 Cl  0  0  0  0  0  0  0  0  0  0  0  0
    3.6105    3.0807   -1.1377 C   0  0  0  0  0  0  0  0  0  0  0  0
    2.6987    4.3654   -1.9398 Cl  0  0  0  0  0  0  0  0  0  0  0  0
    3.2190    1.7618   -1.1919 C   0  0  0  0  0  0  0  0  0  0  0  0
   -1.3658    3.4985    2.9689 H   0  0  0  0  0  0  0  0  0  0  0  0
   -3.0807    3.2484    3.3302 H   0  0  0  0  0  0  0  0  0  0  0  0
   -2.7123    3.8177    1.7087 H   0  0  0  0  0  0  0  0  0  0  0  0
   -2.2634    1.1439    3.0908 H   0  0  0  0  0  0  0  0  0  0  0  0
   -3.3384    1.5159    1.7218 H   0  0  0  0  0  0  0  0  0  0  0  0
   -0.3059    1.6131    1.7111 H   0  0  0  0  0  0  0  0  0  0  0  0
   -2.2798    1.9971   -0.6320 H   0  0  0  0  0  0  0  0  0  0  0  0
   -0.5095    2.2073   -0.7382 H   0  0  0  0  0  0  0  0  0  0  0  0
   -1.4458    3.2136    0.3219 H   0  0  0  0  0  0  0  0  0  0  0  0
   -1.0032   -0.6496    1.9523 H   0  0  0  0  0  0  0  0  0  0  0  0
   -3.0748    0.2554    0.1854 H   0  0  0  0  0  0  0  0  0  0  0  0
   -2.8996   -2.2721    1.8943 H   0  0  0  0  0  0  0  0  0  0  0  0
   -3.9334   -0.8802    2.1103 H   0  0  0  0  0  0  0  0  0  0  0  0
   -5.4681   -1.5536    0.6425 H   0  0  0  0  0  0  0  0  0  0  0  0
   -4.4690   -3.0182    0.4365 H   0  0  0  0  0  0  0  0  0  0  0  0
   -4.3794   -0.3663   -1.0764 H   0  0  0  0  0  0  0  0  0  0  0  0
   -4.3937   -2.0375   -1.8262 H   0  0  0  0  0  0  0  0  0  0  0  0
   -2.1533   -3.4137    0.2758 H   0  0  0  0  0  0  0  0  0  0  0  0
   -1.2676   -3.1829   -1.2228 H   0  0  0  0  0  0  0  0  0  0  0  0
   -2.9772   -3.5956   -1.2759 H   0  0  0  0  0  0  0  0  0  0  0  0
    0.0549    0.3885   -1.9041 H   0  0  0  0  0  0  0  0  0  0  0  0
   -0.0907   -1.7675    0.1634 H   0  0  0  0  0  0  0  0  0  0  0  0
    1.0715   -2.8670   -0.4144 H   0  0  0  0  0  0  0  0  0  0  0  0
    2.7461   -4.3569   -1.2267 H   0  0  0  0  0  0  0  0  0  0  0  0
    5.0120   -3.5337   -1.6659 H   0  0  0  0  0  0  0  0  0  0  0  0
    5.5542   -1.1130   -1.2524 H   0  0  0  0  0  0  0  0  0  0  0  0
    5.7046    0.4779    0.6952 H   0  0  0  0  0  0  0  0  0  0  0  0
    6.3577    2.7492    0.7892 H   0  0  0  0  0  0  0  0  0  0  0  0
    2.3310    1.5482   -1.7909 H   0  0  0  0  0  0  0  0  0  0  0  0
  1  2  1  0
  2  3  1  0
  3  4  1  0
  3  5  1  0
  5  6  1  0
  6  7  1  0
  7  8  1  0
  8  9  1  0
  9 10  1  0
 10 11  1  1
 10 12  1  0
 12 13  2  0
 12 14  1  0
 14 15  1  0
 15 16  1  0
 16 17  2  0
 16 18  1  0
 18 19  2  0
 19 20  1  0
 20 21  2  0
 21 22  1  0
 22 23  2  0
 23 24  1  0
 24 25  2  0
 25 26  1  0
 26 27  2  0
 27 28  1  0
 27 29  1  0
 29 30  1  0
 29 31  2  0
 15  5  1  0
 23 18  1  0
 31 24  1  0
 10  6  1  0
  1 32  1  0
  1 33  1  0
  1 34  1  0
  2 35  1  0
  2 36  1  0
  3 37  1  1
  4 38  1  0
  4 39  1  0
  4 40  1  0
  5 41  1  1
  6 42  1  6
  7 43  1  0
  7 44  1  0
  8 45  1  0
  8 46  1  0
  9 47  1  0
  9 48  1  0
 11 49  1  0
 11 50  1  0
 11 51  1  0
 14 52  1  0
 15 53  1  6
 19 54  1  0
 20 55  1  0
 21 56  1  0
 22 57  1  0
 25 58  1  0
 26 59  1  0
 31 60  1  0
M  END
$$$$
[H]Oc1c([H])c([H])c([H])c([C@]2(O[H])C([H])([H])N(C([H])([H])C([H])([H])c3c([H])c([H])c([H])c([H])c3[H])C([H])([H])C([H])([H])C2([H])[H])c1[H]
     RDKit          3D

 45 47  0  0  0  0  0  0  0  0999 V2000
   -3.3964    3.6790    0.5193 O   0  0  0  0  0  0  0  0  0  0  0  0
   -3.7020    2.3308    0.3642 C   0  0  0  0  0  0  0  0  0  0  0  0
   -5.0231    1.9420    0.2234 C   0  0  0  0  0  0  0  0  0  0  0  0
   -5.3192    0.5928    0.0680 C   0  0  0  0  0  0  0  0  0  0  0  0
   -4.2958   -0.3092    0.0581 C   0  0  0  0  0  0  0  0  0  0  0  0
   -2.9648    0.0438    0.1972 C   0  0  0  0  0  0  0  0  0  0  0  0
   -2.7033    1.4050    0.3515 C   0  0  0  0  0  0  0  0  0  0  0  0
   -1.8272   -0.8455    0.2150 C   0  0  1  0  0  0  0  0  0  0  0  0
   -1.0519   -0.5471    1.3624 O   0  0  0  0  0  0  0  0  0  0  0  0
   -2.1123   -2.3203    0.1598 C   0  0  0  0  0  0  0  0  0  0  0  0
   -0.8051   -2.9632    0.6340 C   0  0  0  0  0  0  0  0  0  0  0  0
    0.3806   -2.4998   -0.1249 C   0  0  0  0  0  0  0  0  0  0  0  0
    0.3868   -1.2421   -0.7202 N   0  0  0  0  0  0  0  0  0  0  0  0
    1.4023   -0.3156   -0.4215 C   0  0  0  0  0  0  0  0  0  0  0  0
    2.7276   -0.7936   -0.9766 C   0  0  0  0  0  0  0  0  0  0  0  0
    3.6997    0.2783   -0.6590 C   0  0  0  0  0  0  0  0  0  0  0  0
    3.9345    1.2302   -1.6090 C   0  0  0  0  0  0  0  0  0  0  0  0
    4.8123    2.2560   -1.3316 C   0  0  0  0  0  0  0  0  0  0  0  0
    5.4417    2.3163   -0.1118 C   0  0  0  0  0  0  0  0  0  0  0  0
    5.1944    1.3443    0.8436 C   0  0  0  0  0  0  0  0  0  0  0  0
    4.3085    0.3153    0.5533 C   0  0  0  0  0  0  0  0  0  0  0  0
   -0.8824   -0.6045   -0.9672 C   0  0  0  0  0  0  0  0  0  0  0  0
   -4.1138    4.3752    0.5265 H   0  0  0  0  0  0  0  0  0  0  0  0
   -5.8091    2.6877    0.2280 H   0  0  0  0  0  0  0  0  0  0  0  0
   -6.3626    0.3027   -0.0404 H   0  0  0  0  0  0  0  0  0  0  0  0
   -4.5252   -1.3621   -0.0639 H   0  0  0  0  0  0  0  0  0  0  0  0
   -1.6808    1.7377    0.4566 H   0  0  0  0  0  0  0  0  0  0  0  0
   -1.4986   -0.8614    2.1854 H   0  0  0  0  0  0  0  0  0  0  0  0
   -2.9424   -2.6373    0.7970 H   0  0  0  0  0  0  0  0  0  0  0  0
   -2.2285   -2.6168   -0.8993 H   0  0  0  0  0  0  0  0  0  0  0  0
   -0.8660   -4.0695    0.5821 H   0  0  0  0  0  0  0  0  0  0  0  0
   -0.7069   -2.6867    1.7141 H   0  0  0  0  0  0  0  0  0  0  0  0
    1.2525   -2.5653    0.6001 H   0  0  0  0  0  0  0  0  0  0  0  0
    0.6494   -3.2992   -0.8943 H   0  0  0  0  0  0  0  0  0  0  0  0
    1.4854   -0.1214    0.6835 H   0  0  0  0  0  0  0  0  0  0  0  0
    1.1054    0.6611   -0.9038 H   0  0  0  0  0  0  0  0  0  0  0  0
    3.0403   -1.7137   -0.4365 H   0  0  0  0  0  0  0  0  0  0  0  0
    2.6680   -0.9603   -2.0565 H   0  0  0  0  0  0  0  0  0  0  0  0
    3.4484    1.2149   -2.5994 H   0  0  0  0  0  0  0  0  0  0  0  0
    5.0019    3.0095   -2.0816 H   0  0  0  0  0  0  0  0  0  0  0  0
    6.1307    3.1161    0.1225 H   0  0  0  0  0  0  0  0  0  0  0  0
    5.6816    1.3806    1.8039 H   0  0  0  0  0  0  0  0  0  0  0  0
    4.1343   -0.4381    1.3456 H   0  0  0  0  0  0  0  0  0  0  0  0
   -0.7011    0.4815   -1.0135 H   0  0  0  0  0  0  0  0  0  0  0  0
   -1.3678   -0.9283   -1.8820 H   0  0  0  0  0  0  0  0  0  0  0  0
  1  2  1  0
  2  3  2  0
  3  4  1  0
  4  5  2  0
  5  6  1  0
  6  7  2  0
  6  8  1  0
  8  9  1  1
  8 10  1  0
 10 11  1  0
 11 12  1  0
 12 13  1  0
 13 14  1  0
 14 15  1  0
 15 16  1  0
 16 17  2  0
 17 18  1  0
 18 19  2  0
 19 20  1  0
 20 21  2  0
 13 22  1  0
  7  2  1  0
 22  8  1  0
 21 16  1  0
  1 23  1  0
  3 24  1  0
  4 25  1  0
  5 26  1  0
  7 27  1  0
  9 28  1  0
 10 29  1  0
 10 30  1  0
 11 31  1  0
 11 32  1  0
 12 33  1  0
 12 34  1  0
 14 35  1  0
 14 36  1  0
 15 37  1  0
 15 38  1  0
 17 39  1  0
 18 40  1  0
 19 41  1  0
 20 42  1  0
 21 43  1  0
 22 44  1  0
 22 45  1  0
M  END
$$$$
[H]C1([H])C(=O)N2S[C@@](C(=O)[O-])(C([H])([H])[H])C([H])([H])S[C@@]2([H])[C@]1([H])C(=O)[O-]
     RDKit          3D

 26 27  0  0  0  0  0  0  0  0999 V2000
   -3.5719   -0.6526   -0.3071 C   0  0  0  0  0  0  0  0  0  0  0  0
   -2.1296   -0.3334    0.0387 C   0  0  1  0  0  0  0  0  0  0  0  0
   -1.4605   -1.5419    0.6339 C   0  0  0  0  0  0  0  0  0  0  0  0
    0.2577   -1.7421    0.0851 S   0  0  0  0  0  0  0  0  0  0  0  0
    1.0369   -0.1369    0.1126 C   0  0  1  0  0  0  0  0  0  0  0  0
    2.4582   -0.1479   -0.4416 C   0  0  1  0  0  0  0  0  0  0  0  0
    2.6659    1.3446   -0.6274 C   0  0  0  0  0  0  0  0  0  0  0  0
    1.3180    1.7227   -1.1882 C   0  0  0  0  0  0  0  0  0  0  0  0
    1.0033    2.7620   -1.8165 O   0  0  0  0  0  0  0  0  0  0  0  0
    0.3940    0.6855   -0.8946 N   0  0  0  0  0  0  0  0  0  0  0  0
   -1.2126    0.2144   -1.4334 S   0  0  0  0  0  0  0  0  0  0  0  0
    3.4142   -0.7375    0.5149 C   0  0  0  0  0  0  0  0  0  0  0  0
    4.6830   -1.0490    0.0445 O   0  0  0  0  0  0  0  0  0  0  0  0
    3.1324   -0.9630    1.7078 O   0  0  0  0  0  0  0  0  0  0  0  0
   -2.1463    0.8135    0.9831 C   0  0  0  0  0  0  0  0  0  0  0  0
   -2.6716    2.0515    0.6792 O   0  0  0  0  0  0  0  0  0  0  0  0
   -1.6518    0.6383    2.1226 O   0  0  0  0  0  0  0  0  0  0  0  0
   -3.9941   -1.1907    0.5677 H   0  0  0  0  0  0  0  0  0  0  0  0
   -3.6526   -1.2458   -1.2398 H   0  0  0  0  0  0  0  0  0  0  0  0
   -4.1246    0.2974   -0.3954 H   0  0  0  0  0  0  0  0  0  0  0  0
   -1.4571   -1.4196    1.7430 H   0  0  0  0  0  0  0  0  0  0  0  0
   -2.0132   -2.4790    0.4077 H   0  0  0  0  0  0  0  0  0  0  0  0
    1.0455    0.3532    1.1118 H   0  0  0  0  0  0  0  0  0  0  0  0
    2.4260   -0.6380   -1.4152 H   0  0  0  0  0  0  0  0  0  0  0  0
    2.7805    1.8208    0.3489 H   0  0  0  0  0  0  0  0  0  0  0  0
    3.4700    1.5735   -1.3425 H   0  0  0  0  0  0  0  0  0  0  0  0
  1  2  1  0
  2  3  1  0
  3  4  1  0
  4  5  1  0
  5  6  1  0
  6  7  1  0
  7  8  1  0
  8  9  2  0
  8 10  1  0
 10 11  1  0
  6 12  1  0
 12 13  1  0
 12 14  2  0
  2 15  1  1
 15 16  1  0
 15 17  2  0
 11  2  1  0
 10  5  1  0
  1 18  1  0
  1 19  1  0
  1 20  1  0
  3 21  1  0
  3 22  1  0
  5 23  1  1
  6 24  1  6
  7 25  1  0
  7 26  1  0
M  CHG  2  13  -1  16  -1
M  END
$$$$
[H]c1nc(N([H])[H])c(N([H])C(=O)c2c([H])nc(OC([H])([H])C([H])([H])C([H])([H])N3C([H])([H])C([H])([H])C([H])([H])C3([H])[H])c([H])c2[H])nc1-c1c([H])c([H])c([H])c(N([H])C(=O)c2c([H])c([H])c(C(F)(F)F)c([H])c2[H])c1C([H])([H])[H]
     RDKit          3D

 77 81  0  0  0  0  0  0  0  0999 V2000
    4.7760    0.2405   -1.4965 C   0  0  0  0  0  0  0  0  0  0  0  0
    4.1075    1.1833   -0.5713 C   0  0  0  0  0  0  0  0  0  0  0  0
    4.7240    1.3773    0.6917 C   0  0  0  0  0  0  0  0  0  0  0  0
    5.9397    0.7220    0.9535 N   0  0  0  0  0  0  0  0  0  0  0  0
    6.8512    0.8173    2.0093 C   0  0  0  0  0  0  0  0  0  0  0  0
    6.7628    1.5481    3.0046 O   0  0  0  0  0  0  0  0  0  0  0  0
    8.0675   -0.0623    1.9129 C   0  0  0  0  0  0  0  0  0  0  0  0
    7.8241   -1.4166    1.9216 C   0  0  0  0  0  0  0  0  0  0  0  0
    8.9287   -2.2352    1.7394 C   0  0  0  0  0  0  0  0  0  0  0  0
   10.1984   -1.7529    1.5569 C   0  0  0  0  0  0  0  0  0  0  0  0
   10.4014   -0.3842    1.5556 C   0  0  0  0  0  0  0  0  0  0  0  0
    9.3101    0.4490    1.7391 C   0  0  0  0  0  0  0  0  0  0  0  0
   11.3591   -2.6555    1.3441 C   0  0  0  0  0  0  0  0  0  0  0  0
   11.0461   -3.5288    0.2881 F   0  0  0  0  0  0  0  0  0  0  0  0
   11.6768   -3.3675    2.4525 F   0  0  0  0  0  0  0  0  0  0  0  0
   12.4583   -1.9080    0.8969 F   0  0  0  0  0  0  0  0  0  0  0  0
    4.1079    2.1818    1.5982 C   0  0  0  0  0  0  0  0  0  0  0  0
    2.8870    2.8341    1.3528 C   0  0  0  0  0  0  0  0  0  0  0  0
    2.3367    2.5991    0.0846 C   0  0  0  0  0  0  0  0  0  0  0  0
    2.9202    1.7981   -0.8627 C   0  0  0  0  0  0  0  0  0  0  0  0
    2.3444    1.5420   -2.1862 C   0  0  0  0  0  0  0  0  0  0  0  0
    3.1480    1.9503   -3.2796 C   0  0  0  0  0  0  0  0  0  0  0  0
    2.7431    1.7362   -4.5139 N   0  0  0  0  0  0  0  0  0  0  0  0
    1.5946    1.1441   -4.8469 C   0  0  0  0  0  0  0  0  0  0  0  0
    1.2346    0.9302   -6.1956 N   0  0  0  0  0  0  0  0  0  0  0  0
    0.7546    0.7207   -3.7604 C   0  0  0  0  0  0  0  0  0  0  0  0
   -0.3551   -0.0581   -4.1092 N   0  0  0  0  0  0  0  0  0  0  0  0
   -1.5077   -0.5560   -3.6027 C   0  0  0  0  0  0  0  0  0  0  0  0
   -2.0731   -1.5196   -4.3248 O   0  0  0  0  0  0  0  0  0  0  0  0
   -2.3071   -0.2568   -2.4085 C   0  0  0  0  0  0  0  0  0  0  0  0
   -2.3486    0.9646   -1.8212 C   0  0  0  0  0  0  0  0  0  0  0  0
   -3.2392    1.2280   -0.7943 C   0  0  0  0  0  0  0  0  0  0  0  0
   -4.0920    0.2614   -0.3550 C   0  0  0  0  0  0  0  0  0  0  0  0
   -5.0103    0.5043    0.6745 O   0  0  0  0  0  0  0  0  0  0  0  0
   -5.9468   -0.4371    1.1836 C   0  0  0  0  0  0  0  0  0  0  0  0
   -6.7649    0.2255    2.2754 C   0  0  0  0  0  0  0  0  0  0  0  0
   -7.8059   -0.6870    2.8221 C   0  0  0  0  0  0  0  0  0  0  0  0
   -8.7841   -1.1606    1.8627 N   0  0  0  0  0  0  0  0  0  0  0  0
   -9.6121   -0.1082    1.3640 C   0  0  0  0  0  0  0  0  0  0  0  0
  -10.9548   -0.1885    2.0659 C   0  0  0  0  0  0  0  0  0  0  0  0
  -11.0794   -1.6617    2.3047 C   0  0  0  0  0  0  0  0  0  0  0  0
   -9.6498   -2.1464    2.4857 C   0  0  0  0  0  0  0  0  0  0  0  0
   -4.0670   -0.9506   -0.9125 N   0  0  0  0  0  0  0  0  0  0  0  0
   -3.1940   -1.2179   -1.9253 C   0  0  0  0  0  0  0  0  0  0  0  0
    1.1937    0.9552   -2.4826 N   0  0  0  0  0  0  0  0  0  0  0  0
    5.8346    0.5707   -1.6224 H   0  0  0  0  0  0  0  0  0  0  0  0
    4.8672   -0.7796   -0.9780 H   0  0  0  0  0  0  0  0  0  0  0  0
    4.3644    0.1057   -2.4675 H   0  0  0  0  0  0  0  0  0  0  0  0
    6.2295   -0.0155    0.2164 H   0  0  0  0  0  0  0  0  0  0  0  0
    6.8610   -1.8222    2.0474 H   0  0  0  0  0  0  0  0  0  0  0  0
    8.7645   -3.2922    1.7348 H   0  0  0  0  0  0  0  0  0  0  0  0
   11.3990   -0.0413    1.4138 H   0  0  0  0  0  0  0  0  0  0  0  0
    9.4653    1.5018    1.7520 H   0  0  0  0  0  0  0  0  0  0  0  0
    4.5510    2.3577    2.5898 H   0  0  0  0  0  0  0  0  0  0  0  0
    2.4246    3.4710    2.0906 H   0  0  0  0  0  0  0  0  0  0  0  0
    1.4009    3.0955   -0.1498 H   0  0  0  0  0  0  0  0  0  0  0  0
    4.0835    2.4482   -3.0951 H   0  0  0  0  0  0  0  0  0  0  0  0
    1.0105   -0.0136   -6.6153 H   0  0  0  0  0  0  0  0  0  0  0  0
    1.1842    1.7186   -6.8900 H   0  0  0  0  0  0  0  0  0  0  0  0
   -0.1229   -0.5701   -5.1061 H   0  0  0  0  0  0  0  0  0  0  0  0
   -1.6754    1.7823   -2.1643 H   0  0  0  0  0  0  0  0  0  0  0  0
   -3.2675    2.2181   -0.3297 H   0  0  0  0  0  0  0  0  0  0  0  0
   -5.5393   -1.3869    1.4757 H   0  0  0  0  0  0  0  0  0  0  0  0
   -6.6629   -0.5891    0.3362 H   0  0  0  0  0  0  0  0  0  0  0  0
   -7.2228    1.1689    1.8729 H   0  0  0  0  0  0  0  0  0  0  0  0
   -6.1052    0.5536    3.1097 H   0  0  0  0  0  0  0  0  0  0  0  0
   -7.3308   -1.5558    3.3731 H   0  0  0  0  0  0  0  0  0  0  0  0
   -8.4197   -0.1941    3.6379 H   0  0  0  0  0  0  0  0  0  0  0  0
   -9.8084   -0.1611    0.2768 H   0  0  0  0  0  0  0  0  0  0  0  0
   -9.1491    0.8661    1.6409 H   0  0  0  0  0  0  0  0  0  0  0  0
  -10.8765    0.3951    3.0238 H   0  0  0  0  0  0  0  0  0  0  0  0
  -11.7638    0.2153    1.4211 H   0  0  0  0  0  0  0  0  0  0  0  0
  -11.6718   -1.9612    3.1770 H   0  0  0  0  0  0  0  0  0  0  0  0
  -11.5492   -2.1048    1.3828 H   0  0  0  0  0  0  0  0  0  0  0  0
   -9.4071   -2.2835    3.5511 H   0  0  0  0  0  0  0  0  0  0  0  0
   -9.5854   -3.1225    1.9586 H   0  0  0  0  0  0  0  0  0  0  0  0
   -3.1869   -2.2285   -2.3632 H   0  0  0  0  0  0  0  0  0  0  0  0
  1  2  1  0
  2  3  2  0
  3  4  1  0
  4  5  1  0
  5  6  2  0
  5  7  1  0
  7  8  2  0
  8  9  1  0
  9 10  2  0
 10 11  1  0
 11 12  2  0
 10 13  1  0
 13 14  1  0
 13 15  1  0
 13 16  1  0
  3 17  1  0
 17 18  2  0
 18 19  1  0
 19 20  2  0
 20 21  1  0
 21 22  2  0
 22 23  1  0
 23 24  2  0
 24 25  1  0
 24 26  1  0
 26 27  1  0
 27 28  1  0
 28 29  2  0
 28 30  1  0
 30 31  2  0
 31 32  1  0
 32 33  2  0
 33 34  1  0
 34 35  1  0
 35 36  1  0
 36 37  1  0
 37 38  1  0
 38 39  1  0
 39 40  1  0
 40 41  1  0
 41 42  1  0
 33 43  1  0
 43 44  2  0
 26 45  2  0
 20  2  1  0
 45 21  1  0
 12  7  1  0
 44 30  1  0
 42 38  1  0
  1 46  1  0
  1 47  1  0
  1 48  1  0
  4 49  1  0
  8 50  1  0
  9 51  1  0
 11 52  1  0
 12 53  1  0
 17 54  1  0
 18 55  1  0
 19 56  1  0
 22 57  1  0
 25 58  1  0
 25 59  1  0
 27 60  1  0
 31 61  1  0
 32 62  1  0
 35 63  1  0
 35 64  1  0
 36 65  1  0
 36 66  1  0
 37 67  1  0
 37 68  1  0
 39 69  1  0
 39 70  1  0
 40 71  1  0
 40 72  1  0
 41 73  1  0
 41 74  1  0
 42 75  1  0
 42 76  1  0
 44 77  1  0
M  END
$$$$
[H]c1nc2c(C([H])([H])[H])c(C([H])([H])[H])c(-c3c(C([H])(C([H])([H])[H])C([H])([H])[H])c4c([H])c(C5([H])C([H])([H])C([H])([H])N(C(=O)N([H])C([H])([H])C6(C([H])([H])[H])C([H])([H])OC6([H])[H])C([H])([H])C5([H])[H])c([H])c([H])c4n3[H])c([H])n2n1
     RDKit          3D

 76 81  0  0  0  0  0  0  0  0999 V2000
   -2.7435    0.1041    3.1071 C   0  0  0  0  0  0  0  0  0  0  0  0
   -3.7953   -0.0680    2.0419 C   0  0  0  0  0  0  0  0  0  0  0  0
   -3.9415   -1.6458    1.9744 C   0  0  0  0  0  0  0  0  0  0  0  0
   -3.4562    0.3723    0.6853 C   0  0  0  0  0  0  0  0  0  0  0  0
   -4.3306    0.7212   -0.3393 C   0  0  0  0  0  0  0  0  0  0  0  0
   -3.5982    0.9218   -1.4432 N   0  0  0  0  0  0  0  0  0  0  0  0
   -2.2997    0.7217   -1.1764 C   0  0  0  0  0  0  0  0  0  0  0  0
   -1.1664    0.8016   -1.9889 C   0  0  0  0  0  0  0  0  0  0  0  0
    0.0906    0.5413   -1.4969 C   0  0  0  0  0  0  0  0  0  0  0  0
    0.2412    0.1989   -0.2001 C   0  0  0  0  0  0  0  0  0  0  0  0
   -0.8830    0.1168    0.6165 C   0  0  0  0  0  0  0  0  0  0  0  0
   -2.1531    0.3745    0.1473 C   0  0  0  0  0  0  0  0  0  0  0  0
    1.5597   -0.1003    0.4389 C   0  0  0  0  0  0  0  0  0  0  0  0
    2.3684   -1.1097   -0.3153 C   0  0  0  0  0  0  0  0  0  0  0  0
    3.6387   -1.3175    0.5232 C   0  0  0  0  0  0  0  0  0  0  0  0
    4.3587   -0.0568    0.4324 N   0  0  0  0  0  0  0  0  0  0  0  0
    3.7048    1.1496    0.9113 C   0  0  0  0  0  0  0  0  0  0  0  0
    2.2594    1.2320    0.5708 C   0  0  0  0  0  0  0  0  0  0  0  0
    5.6647    0.0575   -0.1017 C   0  0  0  0  0  0  0  0  0  0  0  0
    6.1759    1.2101   -0.1140 O   0  0  0  0  0  0  0  0  0  0  0  0
    6.4399   -0.9965   -0.6175 N   0  0  0  0  0  0  0  0  0  0  0  0
    7.7607   -0.9300   -1.1583 C   0  0  0  0  0  0  0  0  0  0  0  0
    8.8479   -0.4804   -0.2606 C   0  0  0  0  0  0  0  0  0  0  0  0
    9.0617   -1.3232    0.9849 C   0  0  0  0  0  0  0  0  0  0  0  0
    9.1605    0.9586   -0.0943 C   0  0  0  0  0  0  0  0  0  0  0  0
   10.5327    0.6077   -0.0311 O   0  0  0  0  0  0  0  0  0  0  0  0
   10.2159   -0.3784   -0.9627 C   0  0  0  0  0  0  0  0  0  0  0  0
   -5.8096    0.7785   -0.2616 C   0  0  0  0  0  0  0  0  0  0  0  0
   -6.4505    1.3416    0.8148 C   0  0  0  0  0  0  0  0  0  0  0  0
   -7.7884    1.3112    0.9110 N   0  0  0  0  0  0  0  0  0  0  0  0
   -8.6099    1.7889    1.8581 N   0  0  0  0  0  0  0  0  0  0  0  0
   -9.8922    1.5390    1.5523 C   0  0  0  0  0  0  0  0  0  0  0  0
   -9.8613    0.8837    0.3748 N   0  0  0  0  0  0  0  0  0  0  0  0
   -8.5717    0.7436   -0.0195 C   0  0  0  0  0  0  0  0  0  0  0  0
   -7.9679    0.1700   -1.1149 C   0  0  0  0  0  0  0  0  0  0  0  0
   -8.8069   -0.4642   -2.1712 C   0  0  0  0  0  0  0  0  0  0  0  0
   -6.5748    0.1839   -1.2427 C   0  0  0  0  0  0  0  0  0  0  0  0
   -5.9908   -0.4799   -2.4397 C   0  0  0  0  0  0  0  0  0  0  0  0
   -2.1614   -0.7917    3.3387 H   0  0  0  0  0  0  0  0  0  0  0  0
   -2.1550    1.0475    2.9918 H   0  0  0  0  0  0  0  0  0  0  0  0
   -3.2737    0.3156    4.1149 H   0  0  0  0  0  0  0  0  0  0  0  0
   -4.7829    0.2338    2.4052 H   0  0  0  0  0  0  0  0  0  0  0  0
   -4.3633   -1.8533    0.9962 H   0  0  0  0  0  0  0  0  0  0  0  0
   -2.9197   -2.0723    2.0303 H   0  0  0  0  0  0  0  0  0  0  0  0
   -4.4972   -1.9835    2.8479 H   0  0  0  0  0  0  0  0  0  0  0  0
   -3.9354    1.2032   -2.3872 H   0  0  0  0  0  0  0  0  0  0  0  0
   -1.2858    1.0773   -3.0294 H   0  0  0  0  0  0  0  0  0  0  0  0
    0.9847    0.6019   -2.1290 H   0  0  0  0  0  0  0  0  0  0  0  0
   -0.7544   -0.1723    1.6435 H   0  0  0  0  0  0  0  0  0  0  0  0
    1.4305   -0.4762    1.4748 H   0  0  0  0  0  0  0  0  0  0  0  0
    1.7728   -2.0394   -0.3953 H   0  0  0  0  0  0  0  0  0  0  0  0
    2.7375   -0.7322   -1.2926 H   0  0  0  0  0  0  0  0  0  0  0  0
    4.2099   -2.1788    0.2330 H   0  0  0  0  0  0  0  0  0  0  0  0
    3.2337   -1.4346    1.5742 H   0  0  0  0  0  0  0  0  0  0  0  0
    4.2047    2.0105    0.4288 H   0  0  0  0  0  0  0  0  0  0  0  0
    3.9070    1.2507    2.0021 H   0  0  0  0  0  0  0  0  0  0  0  0
    1.7471    1.7607    1.4292 H   0  0  0  0  0  0  0  0  0  0  0  0
    2.0415    1.8180   -0.3297 H   0  0  0  0  0  0  0  0  0  0  0  0
    5.9560   -1.9543   -0.5918 H   0  0  0  0  0  0  0  0  0  0  0  0
    7.7122   -0.1976   -2.0199 H   0  0  0  0  0  0  0  0  0  0  0  0
    8.0625   -1.9156   -1.6262 H   0  0  0  0  0  0  0  0  0  0  0  0
    8.9078   -2.3841    0.7529 H   0  0  0  0  0  0  0  0  0  0  0  0
    8.2349   -1.0274    1.6913 H   0  0  0  0  0  0  0  0  0  0  0  0
   10.0517   -1.0856    1.4121 H   0  0  0  0  0  0  0  0  0  0  0  0
    9.0089    1.5686   -0.9856 H   0  0  0  0  0  0  0  0  0  0  0  0
    8.8783    1.4234    0.8754 H   0  0  0  0  0  0  0  0  0  0  0  0
   10.8104   -1.2758   -0.7959 H   0  0  0  0  0  0  0  0  0  0  0  0
   10.1143   -0.0272   -2.0059 H   0  0  0  0  0  0  0  0  0  0  0  0
   -5.8685    1.8741    1.5979 H   0  0  0  0  0  0  0  0  0  0  0  0
  -10.7826    1.7998    2.1203 H   0  0  0  0  0  0  0  0  0  0  0  0
   -9.8702   -0.2378   -1.9542 H   0  0  0  0  0  0  0  0  0  0  0  0
   -8.6435   -1.5505   -2.1252 H   0  0  0  0  0  0  0  0  0  0  0  0
   -8.4899   -0.0699   -3.1615 H   0  0  0  0  0  0  0  0  0  0  0  0
   -5.0385   -0.9634   -2.1979 H   0  0  0  0  0  0  0  0  0  0  0  0
   -6.7317   -1.2692   -2.7508 H   0  0  0  0  0  0  0  0  0  0  0  0
   -5.8425    0.2285   -3.2772 H   0  0  0  0  0  0  0  0  0  0  0  0
  1  2  1  0
  2  3  1  0
  2  4  1  0
  4  5  2  0
  5  6  1  0
  6  7  1  0
  7  8  2  0
  8  9  1  0
  9 10  2  0
 10 11  1  0
 11 12  2  0
 10 13  1  0
 13 14  1  0
 14 15  1  0
 15 16  1  0
 16 17  1  0
 17 18  1  0
 16 19  1  0
 19 20  2  0
 19 21  1  0
 21 22  1  0
 22 23  1  0
 23 24  1  0
 23 25  1  0
 25 26  1  0
 26 27  1  0
  5 28  1  0
 28 29  2  0
 29 30  1  0
 30 31  1  0
 31 32  2  0
 32 33  1  0
 33 34  2  0
 34 35  1  0
 35 36  1  0
 35 37  2  0
 37 38  1  0
 12  4  1  0
 18 13  1  0
 27 23  1  0
 37 28  1  0
 12  7  1  0
 34 30  1  0
  1 39  1  0
  1 40  1  0
  1 41  1  0
  2 42  1  0
  3 43  1  0
  3 44  1  0
  3 45  1  0
  6 46  1  0
  8 47  1  0
  9 48  1  0
 11 49  1  0
 13 50  1  0
 14 51  1  0
 14 52  1  0
 15 53  1  0
 15 54  1  0
 17 55  1  0
 17 56  1  0
 18 57  1  0
 18 58  1  0
 21 59  1  0
 22 60  1  0
 22 61  1  0
 24 62  1  0
 24 63  1  0
 24 64  1  0
 25 65  1  0
 25 66  1  0
 27 67  1  0
 27 68  1  0
 29 69  1  0
 32 70  1  0
 36 71  1  0
 36 72  1  0
 36 73  1  0
 38 74  1  0
 38 75  1  0
 38 76  1  0
M  END
$$$$
[H]c1sc2c([H])c([H])c([H])c([H])c2c1C1(N([H])C(=O)n2c(=O)n(C([H])([H])[H])c3nc(N([H])c4c([H])c([H])c(N5C([H])([H])C([H])([H])N(C([H])([H])[H])C([H])([H])C5([H])[H])c([H])c4[H])nc([H])c32)C([H])([H])C1([H])[H]
     RDKit          3D

 70 76  0  0  0  0  0  0  0  0999 V2000
   10.3656   -1.9610    0.7458 C   0  0  0  0  0  0  0  0  0  0  0  0
    9.3846   -1.6134   -0.2435 N   0  0  0  0  0  0  0  0  0  0  0  0
    9.1090   -0.2005   -0.1487 C   0  0  0  0  0  0  0  0  0  0  0  0
    7.8874    0.1324   -0.9830 C   0  0  0  0  0  0  0  0  0  0  0  0
    6.7762   -0.5931   -0.4179 N   0  0  0  0  0  0  0  0  0  0  0  0
    7.0291   -1.7156    0.4436 C   0  0  0  0  0  0  0  0  0  0  0  0
    8.2426   -2.4571   -0.1061 C   0  0  0  0  0  0  0  0  0  0  0  0
    5.4607   -0.2036   -0.7125 C   0  0  0  0  0  0  0  0  0  0  0  0
    5.2492    0.8248   -1.6209 C   0  0  0  0  0  0  0  0  0  0  0  0
    4.0166    1.2749   -1.9695 C   0  0  0  0  0  0  0  0  0  0  0  0
    2.8733    0.6930   -1.4015 C   0  0  0  0  0  0  0  0  0  0  0  0
    1.6194    1.1903   -1.8215 N   0  0  0  0  0  0  0  0  0  0  0  0
    0.3960    1.0716   -1.1131 C   0  0  0  0  0  0  0  0  0  0  0  0
   -0.7394    1.5985   -1.6686 N   0  0  0  0  0  0  0  0  0  0  0  0
   -1.9447    1.5574   -1.0799 C   0  0  0  0  0  0  0  0  0  0  0  0
   -2.1150    0.9664    0.1517 C   0  0  0  0  0  0  0  0  0  0  0  0
   -3.1798    0.7870    0.9473 N   0  0  0  0  0  0  0  0  0  0  0  0
   -4.5410    1.1479    0.8177 C   0  0  0  0  0  0  0  0  0  0  0  0
   -5.2918    0.7861    1.8110 O   0  0  0  0  0  0  0  0  0  0  0  0
   -5.2062    1.8222   -0.1905 N   0  0  0  0  0  0  0  0  0  0  0  0
   -6.6561    2.0687   -0.0759 C   0  0  0  0  0  0  0  0  0  0  0  0
   -7.3314    2.8163   -1.1786 C   0  0  0  0  0  0  0  0  0  0  0  0
   -7.0505    3.4555    0.1421 C   0  0  0  0  0  0  0  0  0  0  0  0
   -7.5157    0.9503    0.4761 C   0  0  0  0  0  0  0  0  0  0  0  0
   -7.6029   -0.2837   -0.0937 C   0  0  0  0  0  0  0  0  0  0  0  0
   -6.9245   -0.7625   -1.2456 C   0  0  0  0  0  0  0  0  0  0  0  0
   -7.1256   -2.0324   -1.6862 C   0  0  0  0  0  0  0  0  0  0  0  0
   -7.9678   -2.9436   -1.0904 C   0  0  0  0  0  0  0  0  0  0  0  0
   -8.6314   -2.4858    0.0305 C   0  0  0  0  0  0  0  0  0  0  0  0
   -8.4423   -1.1768    0.5085 C   0  0  0  0  0  0  0  0  0  0  0  0
   -9.0790   -0.3034    1.8254 S   0  0  0  0  0  0  0  0  0  0  0  0
   -8.2723    1.1757    1.5906 C   0  0  0  0  0  0  0  0  0  0  0  0
   -2.6683    0.1203    2.0365 C   0  0  0  0  0  0  0  0  0  0  0  0
   -3.3597   -0.2371    3.0238 O   0  0  0  0  0  0  0  0  0  0  0  0
   -1.3562   -0.0807    1.8813 N   0  0  0  0  0  0  0  0  0  0  0  0
   -0.4493   -0.7432    2.7969 C   0  0  0  0  0  0  0  0  0  0  0  0
   -0.9591    0.4343    0.7087 C   0  0  0  0  0  0  0  0  0  0  0  0
    0.2219    0.5045    0.0733 N   0  0  0  0  0  0  0  0  0  0  0  0
    3.0668   -0.3246   -0.5031 C   0  0  0  0  0  0  0  0  0  0  0  0
    4.3371   -0.7533   -0.1744 C   0  0  0  0  0  0  0  0  0  0  0  0
   11.1044   -1.1406    0.8047 H   0  0  0  0  0  0  0  0  0  0  0  0
    9.8621   -2.0866    1.7279 H   0  0  0  0  0  0  0  0  0  0  0  0
   10.8541   -2.9358    0.4669 H   0  0  0  0  0  0  0  0  0  0  0  0
    8.8835    0.1127    0.8835 H   0  0  0  0  0  0  0  0  0  0  0  0
   10.0004    0.3255   -0.5848 H   0  0  0  0  0  0  0  0  0  0  0  0
    7.6968    1.2263   -0.8368 H   0  0  0  0  0  0  0  0  0  0  0  0
    8.0673   -0.1120   -2.0514 H   0  0  0  0  0  0  0  0  0  0  0  0
    7.1962   -1.4101    1.4990 H   0  0  0  0  0  0  0  0  0  0  0  0
    6.2081   -2.4649    0.4202 H   0  0  0  0  0  0  0  0  0  0  0  0
    7.9354   -2.9335   -1.0630 H   0  0  0  0  0  0  0  0  0  0  0  0
    8.4132   -3.3040    0.6124 H   0  0  0  0  0  0  0  0  0  0  0  0
    6.1028    1.3078   -2.0898 H   0  0  0  0  0  0  0  0  0  0  0  0
    3.9080    2.0857   -2.6875 H   0  0  0  0  0  0  0  0  0  0  0  0
    1.6182    1.6972   -2.7715 H   0  0  0  0  0  0  0  0  0  0  0  0
   -2.8130    1.9756   -1.5373 H   0  0  0  0  0  0  0  0  0  0  0  0
   -4.8018    2.2096   -1.0821 H   0  0  0  0  0  0  0  0  0  0  0  0
   -6.6661    3.1088   -2.0276 H   0  0  0  0  0  0  0  0  0  0  0  0
   -8.3572    2.5536   -1.4851 H   0  0  0  0  0  0  0  0  0  0  0  0
   -6.2884    4.2492    0.1562 H   0  0  0  0  0  0  0  0  0  0  0  0
   -7.8828    3.6596    0.8616 H   0  0  0  0  0  0  0  0  0  0  0  0
   -6.2380   -0.1480   -1.8025 H   0  0  0  0  0  0  0  0  0  0  0  0
   -6.6018   -2.4016   -2.5753 H   0  0  0  0  0  0  0  0  0  0  0  0
   -8.1189   -3.9392   -1.4446 H   0  0  0  0  0  0  0  0  0  0  0  0
   -9.3204   -3.0919    0.5954 H   0  0  0  0  0  0  0  0  0  0  0  0
   -8.3261    2.1127    2.1804 H   0  0  0  0  0  0  0  0  0  0  0  0
   -1.0237   -1.1479    3.6598 H   0  0  0  0  0  0  0  0  0  0  0  0
    0.3068   -0.0597    3.2052 H   0  0  0  0  0  0  0  0  0  0  0  0
    0.0344   -1.5630    2.2612 H   0  0  0  0  0  0  0  0  0  0  0  0
    2.1998   -0.8261   -0.0414 H   0  0  0  0  0  0  0  0  0  0  0  0
    4.4217   -1.5662    0.5509 H   0  0  0  0  0  0  0  0  0  0  0  0
  1  2  1  0
  2  3  1  0
  3  4  1  0
  4  5  1  0
  5  6  1  0
  6  7  1  0
  5  8  1  0
  8  9  2  0
  9 10  1  0
 10 11  2  0
 11 12  1  0
 12 13  1  0
 13 14  2  0
 14 15  1  0
 15 16  2  0
 16 17  1  0
 17 18  1  0
 18 19  2  0
 18 20  1  0
 20 21  1  0
 21 22  1  0
 22 23  1  0
 21 24  1  0
 24 25  1  0
 25 26  2  0
 26 27  1  0
 27 28  2  0
 28 29  1  0
 29 30  2  0
 30 31  1  0
 31 32  1  0
 17 33  1  0
 33 34  2  0
 33 35  1  0
 35 36  1  0
 35 37  1  0
 37 38  2  0
 11 39  1  0
 39 40  2  0
  7  2  1  0
 40  8  1  0
 38 13  1  0
 37 16  1  0
 23 21  1  0
 32 24  2  0
 30 25  1  0
  1 41  1  0
  1 42  1  0
  1 43  1  0
  3 44  1  0
  3 45  1  0
  4 46  1  0
  4 47  1  0
  6 48  1  0
  6 49  1  0
  7 50  1  0
  7 51  1  0
  9 52  1  0
 10 53  1  0
 12 54  1  0
 15 55  1  0
 20 56  1  0
 22 57  1  0
 22 58  1  0
 23 59  1  0
 23 60  1  0
 26 61  1  0
 27 62  1  0
 28 63  1  0
 29 64  1  0
 32 65  1  0
 36 66  1  0
 36 67  1  0
 36 68  1  0
 39 69  1  0
 40 70  1  0
M  END
$$$$
[H]OC(=O)[C@@]1([H])N2C(=O)[C@@]([H])(O[H])[C@]2([H])SC1(C([H])([H])C([H])([H])[H])C([H])([H])C([H])([H])[H]
     RDKit          3D

 31 32  0  0  0  0  0  0  0  0999 V2000
   -2.0942   -2.0707    0.2670 C   0  0  0  0  0  0  0  0  0  0  0  0
   -1.1562   -1.0285    0.8121 C   0  0  0  0  0  0  0  0  0  0  0  0
   -0.7318   -0.0122   -0.2033 C   0  0  0  0  0  0  0  0  0  0  0  0
   -1.8956    0.7186   -0.7482 C   0  0  0  0  0  0  0  0  0  0  0  0
   -1.5687    1.7543   -1.7695 C   0  0  0  0  0  0  0  0  0  0  0  0
    0.2429   -0.8171   -1.5534 S   0  0  0  0  0  0  0  0  0  0  0  0
    1.6114   -1.1378   -0.4342 C   0  0  1  0  0  0  0  0  0  0  0  0
    2.9746   -0.6708   -0.7213 C   0  0  2  0  0  0  0  0  0  0  0  0
    3.9616   -1.6144   -0.9316 O   0  0  0  0  0  0  0  0  0  0  0  0
    2.8699   -0.2977    0.7171 C   0  0  0  0  0  0  0  0  0  0  0  0
    3.5364   -0.2902    1.7523 O   0  0  0  0  0  0  0  0  0  0  0  0
    1.5581    0.0869    0.3876 N   0  0  0  0  0  0  0  0  0  0  0  0
    0.3672    0.8184    0.3410 C   0  0  2  0  0  0  0  0  0  0  0  0
    0.0642    1.3807    1.6802 C   0  0  0  0  0  0  0  0  0  0  0  0
   -1.0522    2.1485    1.9315 O   0  0  0  0  0  0  0  0  0  0  0  0
    0.8464    1.1539    2.6218 O   0  0  0  0  0  0  0  0  0  0  0  0
   -1.8612   -3.0777    0.6520 H   0  0  0  0  0  0  0  0  0  0  0  0
   -2.0628   -2.0254   -0.8414 H   0  0  0  0  0  0  0  0  0  0  0  0
   -3.1286   -1.8393    0.6454 H   0  0  0  0  0  0  0  0  0  0  0  0
   -1.5674   -0.5216    1.7074 H   0  0  0  0  0  0  0  0  0  0  0  0
   -0.2546   -1.5923    1.1951 H   0  0  0  0  0  0  0  0  0  0  0  0
   -2.4795    1.1388    0.0634 H   0  0  0  0  0  0  0  0  0  0  0  0
   -2.5608   -0.0398   -1.2557 H   0  0  0  0  0  0  0  0  0  0  0  0
   -2.5183    2.0753   -2.2512 H   0  0  0  0  0  0  0  0  0  0  0  0
   -0.9229    1.3521   -2.5757 H   0  0  0  0  0  0  0  0  0  0  0  0
   -1.1377    2.6831   -1.3213 H   0  0  0  0  0  0  0  0  0  0  0  0
    1.5692   -2.0676    0.1291 H   0  0  0  0  0  0  0  0  0  0  0  0
    3.0752    0.2143   -1.3716 H   0  0  0  0  0  0  0  0  0  0  0  0
    4.8233   -1.1196   -1.0645 H   0  0  0  0  0  0  0  0  0  0  0  0
    0.4142    1.7156   -0.3727 H   0  0  0  0  0  0  0  0  0  0  0  0
   -0.9219    2.9822    2.5126 H   0  0  0  0  0  0  0  0  0  0  0  0
  1  2  1  0
  2  3  1  0
  3  4  1  0
  4  5  1  0
  3  6  1  0
  6  7  1  0
  7  8  1  0
  8  9  1  0
  8 10  1  0
 10 11  2  0
 10 12  1  0
 12 13  1  0
 13 14  1  0
 14 15  1  0
 14 16  2  0
 13  3  1  0
 12  7  1  0
  1 17  1  0
  1 18  1  0
  1 19  1  0
  2 20  1  0
  2 21  1  0
  4 22  1  0
  4 23  1  0
  5 24  1  0
  5 25  1  0
  5 26  1  0
  7 27  1  1
  8 28  1  6
  9 29  1  0
 13 30  1  6
 15 31  1  0
M  END
$$$$
[H]N=C(N([H])[H])C([H])([H])SC1([H])C2([H])C([H])=C([H])C([H])([H])C1([H])C2([H])[H]
     RDKit          3D

 26 27  0  0  0  0  0  0  0  0999 V2000
    4.1007    0.0842    0.8304 N   0  0  0  0  0  0  0  0  0  0  0  0
    3.5222    0.2276   -0.4539 C   0  0  0  0  0  0  0  0  0  0  0  0
    4.2629    0.6604   -1.4091 N   0  0  0  0  0  0  0  0  0  0  0  0
    2.1096   -0.0984   -0.7390 C   0  0  0  0  0  0  0  0  0  0  0  0
    0.9705    0.8976    0.2539 S   0  0  0  0  0  0  0  0  0  0  0  0
   -0.7486    0.5234   -0.0789 C   0  0  0  0  0  0  0  0  0  0  0  0
   -1.1749   -0.8684    0.3332 C   0  0  0  0  0  0  0  0  0  0  0  0
   -2.5638   -1.1890   -0.1150 C   0  0  0  0  0  0  0  0  0  0  0  0
   -3.5067   -0.0786    0.0950 C   0  0  0  0  0  0  0  0  0  0  0  0
   -3.0428    1.0165    0.6855 C   0  0  0  0  0  0  0  0  0  0  0  0
   -1.6193    1.0168    1.0771 C   0  0  0  0  0  0  0  0  0  0  0  0
   -1.2517   -0.3098    1.7548 C   0  0  0  0  0  0  0  0  0  0  0  0
    3.8566    0.6812    1.6356 H   0  0  0  0  0  0  0  0  0  0  0  0
    4.8260   -0.6714    0.9946 H   0  0  0  0  0  0  0  0  0  0  0  0
    5.2632    0.9195   -1.3272 H   0  0  0  0  0  0  0  0  0  0  0  0
    1.9534   -1.1854   -0.5886 H   0  0  0  0  0  0  0  0  0  0  0  0
    1.8712    0.1076   -1.8020 H   0  0  0  0  0  0  0  0  0  0  0  0
   -1.1403    0.8531   -1.0759 H   0  0  0  0  0  0  0  0  0  0  0  0
   -0.4695   -1.6714    0.1765 H   0  0  0  0  0  0  0  0  0  0  0  0
   -2.6159   -1.4912   -1.1731 H   0  0  0  0  0  0  0  0  0  0  0  0
   -2.8986   -2.0849    0.4856 H   0  0  0  0  0  0  0  0  0  0  0  0
   -4.5320   -0.1892   -0.2335 H   0  0  0  0  0  0  0  0  0  0  0  0
   -3.6384    1.8900    0.8909 H   0  0  0  0  0  0  0  0  0  0  0  0
   -1.2234    1.9086    1.5541 H   0  0  0  0  0  0  0  0  0  0  0  0
   -0.2641   -0.2093    2.2270 H   0  0  0  0  0  0  0  0  0  0  0  0
   -2.0464   -0.7394    2.3775 H   0  0  0  0  0  0  0  0  0  0  0  0
  1  2  1  0
  2  3  2  3
  2  4  1  0
  4  5  1  0
  5  6  1  0
  6  7  1  0
  7  8  1  0
  8  9  1  0
  9 10  2  0
 10 11  1  0
 11 12  1  0
 11  6  1  0
 12  7  1  0
  1 13  1  0
  1 14  1  0
  3 15  1  0
  4 16  1  0
  4 17  1  0
  6 18  1  0
  7 19  1  0
  8 20  1  0
  8 21  1  0
  9 22  1  0
 10 23  1  0
 11 24  1  0
 12 25  1  0
 12 26  1  0
M  END
$$$$
[H]OC1(C([H])([H])[H])C([H])([H])N(C(=O)c2c([H])c([H])n3nc(C([H])([H])[H])c(-c4nc(N([H])c5c([H])c(OC([H])([H])[H])c(OC([H])([H])[H])c(OC([H])([H])[H])c5[H])nc([H])c4[H])c3c2[H])C([H])([H])C1([H])[H]
     RDKit          3D

 68 72  0  0  0  0  0  0  0  0999 V2000
   -5.3292   -1.1006   -3.4392 C   0  0  0  0  0  0  0  0  0  0  0  0
   -6.2623   -0.2421   -2.8131 O   0  0  0  0  0  0  0  0  0  0  0  0
   -5.9087    0.3216   -1.5959 C   0  0  0  0  0  0  0  0  0  0  0  0
   -4.6708    0.0577   -0.9957 C   0  0  0  0  0  0  0  0  0  0  0  0
   -4.2911    0.5959    0.2037 C   0  0  0  0  0  0  0  0  0  0  0  0
   -3.0845    0.3583    0.8859 N   0  0  0  0  0  0  0  0  0  0  0  0
   -2.2472   -0.7734    0.7721 C   0  0  0  0  0  0  0  0  0  0  0  0
   -2.5713   -1.7792   -0.0390 N   0  0  0  0  0  0  0  0  0  0  0  0
   -1.7862   -2.8709   -0.1659 C   0  0  0  0  0  0  0  0  0  0  0  0
   -0.6334   -2.9052    0.5777 C   0  0  0  0  0  0  0  0  0  0  0  0
   -0.2598   -1.8898    1.4273 C   0  0  0  0  0  0  0  0  0  0  0  0
   -1.0833   -0.8327    1.5082 N   0  0  0  0  0  0  0  0  0  0  0  0
    0.9670   -1.9396    2.2113 C   0  0  0  0  0  0  0  0  0  0  0  0
    1.2126   -2.4416    3.4676 C   0  0  0  0  0  0  0  0  0  0  0  0
    0.1402   -3.0781    4.2929 C   0  0  0  0  0  0  0  0  0  0  0  0
    2.4958   -2.2488    3.7494 N   0  0  0  0  0  0  0  0  0  0  0  0
    3.1144   -1.6437    2.7425 N   0  0  0  0  0  0  0  0  0  0  0  0
    4.3839   -1.2659    2.6065 C   0  0  0  0  0  0  0  0  0  0  0  0
    4.7854   -0.6325    1.4187 C   0  0  0  0  0  0  0  0  0  0  0  0
    3.9058   -0.3935    0.3962 C   0  0  0  0  0  0  0  0  0  0  0  0
    2.5785   -0.8292    0.6295 C   0  0  0  0  0  0  0  0  0  0  0  0
    2.2018   -1.4384    1.7781 C   0  0  0  0  0  0  0  0  0  0  0  0
    4.1951    0.2313   -0.8548 C   0  0  0  0  0  0  0  0  0  0  0  0
    3.1790    0.3821   -1.6683 O   0  0  0  0  0  0  0  0  0  0  0  0
    5.4183    0.7072   -1.3356 N   0  0  0  0  0  0  0  0  0  0  0  0
    5.4852    1.3391   -2.6796 C   0  0  0  0  0  0  0  0  0  0  0  0
    6.8925    1.1217   -3.1310 C   0  0  0  0  0  0  0  0  0  0  0  0
    7.6836    1.2734   -1.8392 C   0  0  0  0  0  0  0  0  0  0  0  0
    7.9253    2.7402   -1.5500 C   0  0  0  0  0  0  0  0  0  0  0  0
    8.8636    0.5339   -1.8590 O   0  0  0  0  0  0  0  0  0  0  0  0
    6.7210    0.7264   -0.7897 C   0  0  0  0  0  0  0  0  0  0  0  0
   -5.1990    1.4565    0.8543 C   0  0  0  0  0  0  0  0  0  0  0  0
   -6.4185    1.7331    0.2893 C   0  0  0  0  0  0  0  0  0  0  0  0
   -7.3455    2.5834    0.9071 O   0  0  0  0  0  0  0  0  0  0  0  0
   -6.9676    3.1486    2.1472 C   0  0  0  0  0  0  0  0  0  0  0  0
   -6.7676    1.1656   -0.9306 C   0  0  0  0  0  0  0  0  0  0  0  0
   -7.9975    1.4659   -1.4650 O   0  0  0  0  0  0  0  0  0  0  0  0
   -9.0914    0.6128   -1.1100 C   0  0  0  0  0  0  0  0  0  0  0  0
   -4.3483   -0.6179   -3.5988 H   0  0  0  0  0  0  0  0  0  0  0  0
   -5.1526   -1.9950   -2.8204 H   0  0  0  0  0  0  0  0  0  0  0  0
   -5.7042   -1.4529   -4.4293 H   0  0  0  0  0  0  0  0  0  0  0  0
   -4.0098   -0.5887   -1.5417 H   0  0  0  0  0  0  0  0  0  0  0  0
   -2.7675    1.1418    1.5664 H   0  0  0  0  0  0  0  0  0  0  0  0
   -2.0698   -3.6824   -0.8351 H   0  0  0  0  0  0  0  0  0  0  0  0
    0.0083   -3.7646    0.4934 H   0  0  0  0  0  0  0  0  0  0  0  0
   -0.6170   -2.3581    4.6305 H   0  0  0  0  0  0  0  0  0  0  0  0
   -0.3498   -3.8295    3.6364 H   0  0  0  0  0  0  0  0  0  0  0  0
    0.5479   -3.6013    5.1717 H   0  0  0  0  0  0  0  0  0  0  0  0
    5.1411   -1.4134    3.3557 H   0  0  0  0  0  0  0  0  0  0  0  0
    5.8162   -0.3285    1.3316 H   0  0  0  0  0  0  0  0  0  0  0  0
    1.8293   -0.6758   -0.1295 H   0  0  0  0  0  0  0  0  0  0  0  0
    5.2224    2.4100   -2.5627 H   0  0  0  0  0  0  0  0  0  0  0  0
    4.7373    0.8463   -3.3227 H   0  0  0  0  0  0  0  0  0  0  0  0
    7.0208    0.1138   -3.5535 H   0  0  0  0  0  0  0  0  0  0  0  0
    7.1830    1.9417   -3.8108 H   0  0  0  0  0  0  0  0  0  0  0  0
    7.8205    2.8903   -0.4511 H   0  0  0  0  0  0  0  0  0  0  0  0
    8.9457    3.0458   -1.8284 H   0  0  0  0  0  0  0  0  0  0  0  0
    7.1526    3.3843   -2.0270 H   0  0  0  0  0  0  0  0  0  0  0  0
    9.1447    0.3802   -0.9203 H   0  0  0  0  0  0  0  0  0  0  0  0
    6.8057    1.3533    0.1358 H   0  0  0  0  0  0  0  0  0  0  0  0
    7.0051   -0.3532   -0.5928 H   0  0  0  0  0  0  0  0  0  0  0  0
   -4.9362    1.9044    1.8088 H   0  0  0  0  0  0  0  0  0  0  0  0
   -6.0343    3.7675    2.0370 H   0  0  0  0  0  0  0  0  0  0  0  0
   -7.7378    3.7885    2.5806 H   0  0  0  0  0  0  0  0  0  0  0  0
   -6.6918    2.3109    2.8261 H   0  0  0  0  0  0  0  0  0  0  0  0
   -9.9971    0.8416   -1.7155 H   0  0  0  0  0  0  0  0  0  0  0  0
   -9.3696    0.7468   -0.0465 H   0  0  0  0  0  0  0  0  0  0  0  0
   -8.8291   -0.4550   -1.3065 H   0  0  0  0  0  0  0  0  0  0  0  0
  1  2  1  0
  2  3  1  0
  3  4  2  0
  4  5  1  0
  5  6  1  0
  6  7  1  0
  7  8  2  0
  8  9  1  0
  9 10  2  0
 10 11  1  0
 11 12  2  0
 11 13  1  0
 13 14  1  0
 14 15  1  0
 14 16  2  0
 16 17  1  0
 17 18  1  0
 18 19  2  0
 19 20  1  0
 20 21  2  0
 21 22  1  0
 20 23  1  0
 23 24  2  0
 23 25  1  0
 25 26  1  0
 26 27  1  0
 27 28  1  0
 28 29  1  0
 28 30  1  0
 28 31  1  0
  5 32  2  0
 32 33  1  0
 33 34  1  0
 34 35  1  0
 33 36  2  0
 36 37  1  0
 37 38  1  0
 36  3  1  0
 12  7  1  0
 22 13  2  0
 31 25  1  0
 22 17  1  0
  1 39  1  0
  1 40  1  0
  1 41  1  0
  4 42  1  0
  6 43  1  0
  9 44  1  0
 10 45  1  0
 15 46  1  0
 15 47  1  0
 15 48  1  0
 18 49  1  0
 19 50  1  0
 21 51  1  0
 26 52  1  0
 26 53  1  0
 27 54  1  0
 27 55  1  0
 29 56  1  0
 29 57  1  0
 29 58  1  0
 30 59  1  0
 31 60  1  0
 31 61  1  0
 32 62  1  0
 35 63  1  0
 35 64  1  0
 35 65  1  0
 38 66  1  0
 38 67  1  0
 38 68  1  0
M  END
$$$$
[H]OC(=O)C1([H])C(N([H])[H])=NC(N([H])[H])=NC(=O)N1[H]
     RDKit          3D

 20 20  0  0  0  0  0  0  0  0999 V2000
   -2.8816   -0.3210    1.2759 N   0  0  0  0  0  0  0  0  0  0  0  0
   -1.8271   -0.3222    0.3278 C   0  0  0  0  0  0  0  0  0  0  0  0
   -1.6404   -1.4539   -0.2852 N   0  0  0  0  0  0  0  0  0  0  0  0
   -0.6347   -1.7026   -1.2870 C   0  0  0  0  0  0  0  0  0  0  0  0
   -0.8124   -2.6456   -2.0994 O   0  0  0  0  0  0  0  0  0  0  0  0
    0.5771   -0.9311   -1.4202 N   0  0  0  0  0  0  0  0  0  0  0  0
    1.1182    0.0926   -0.5510 C   0  0  0  0  0  0  0  0  0  0  0  0
    1.6537   -0.5541    0.6954 C   0  0  0  0  0  0  0  0  0  0  0  0
    2.2313    0.1797    1.7067 O   0  0  0  0  0  0  0  0  0  0  0  0
    1.5795   -1.8057    0.8347 O   0  0  0  0  0  0  0  0  0  0  0  0
    0.1186    1.1352   -0.2007 C   0  0  0  0  0  0  0  0  0  0  0  0
    0.5236    2.4885   -0.2646 N   0  0  0  0  0  0  0  0  0  0  0  0
   -1.1123    0.8946    0.1638 N   0  0  0  0  0  0  0  0  0  0  0  0
   -3.7866    0.1313    0.9499 H   0  0  0  0  0  0  0  0  0  0  0  0
   -2.8114   -0.7247    2.2321 H   0  0  0  0  0  0  0  0  0  0  0  0
    1.1337   -1.1599   -2.2770 H   0  0  0  0  0  0  0  0  0  0  0  0
    1.9756    0.5803   -1.0318 H   0  0  0  0  0  0  0  0  0  0  0  0
    3.2556    0.1740    1.8116 H   0  0  0  0  0  0  0  0  0  0  0  0
    0.3041    3.1252    0.5100 H   0  0  0  0  0  0  0  0  0  0  0  0
    1.0356    2.8194   -1.0908 H   0  0  0  0  0  0  0  0  0  0  0  0
  1  2  1  0
  2  3  2  0
  3  4  1  0
  4  5  2  0
  4  6  1  0
  6  7  1  0
  7  8  1  0
  8  9  1  0
  8 10  2  0
  7 11  1  0
 11 12  1  0
 11 13  2  0
 13  2  1  0
  1 14  1  0
  1 15  1  0
  6 16  1  0
  7 17  1  0
  9 18  1  0
 12 19  1  0
 12 20  1  0
M  END
$$$$
[H]OC([H])(C([H])([H])Oc1c([H])c(N([H])c2nc([H])c(Cl)c(N([H])c3c([H])c([H])c([H])c(N([H])C(=O)C([H])=C([H])[H])c3[H])n2)c([H])c(OC([H])([H])[H])c1OC([H])([H])[H])C([H])(C([H])([H])[H])C([H])([H])[H]
     RDKit          3D

 67 69  0  0  0  0  0  0  0  0999 V2000
   -1.3188   -1.0585    5.5925 C   0  0  0  0  0  0  0  0  0  0  0  0
   -2.4413   -1.3590    4.7989 O   0  0  0  0  0  0  0  0  0  0  0  0
   -2.3426   -1.1768    3.4225 C   0  0  0  0  0  0  0  0  0  0  0  0
   -1.1891   -0.7130    2.8620 C   0  0  0  0  0  0  0  0  0  0  0  0
   -1.0695   -0.5192    1.4687 C   0  0  0  0  0  0  0  0  0  0  0  0
    0.1622    0.0161    1.0031 N   0  0  0  0  0  0  0  0  0  0  0  0
    0.6390   -0.0992   -0.3079 C   0  0  0  0  0  0  0  0  0  0  0  0
    0.0481   -0.7159   -1.3240 N   0  0  0  0  0  0  0  0  0  0  0  0
    0.5282   -0.8047   -2.5646 C   0  0  0  0  0  0  0  0  0  0  0  0
    1.7414   -0.2244   -2.8735 C   0  0  0  0  0  0  0  0  0  0  0  0
    2.4352   -0.3050   -4.4669 Cl  0  0  0  0  0  0  0  0  0  0  0  0
    2.4058    0.4397   -1.8363 C   0  0  0  0  0  0  0  0  0  0  0  0
    3.6581    1.0026   -2.1418 N   0  0  0  0  0  0  0  0  0  0  0  0
    4.4124    1.7249   -1.2061 C   0  0  0  0  0  0  0  0  0  0  0  0
    3.8890    2.5302   -0.2112 C   0  0  0  0  0  0  0  0  0  0  0  0
    4.7069    3.1764    0.6770 C   0  0  0  0  0  0  0  0  0  0  0  0
    6.0897    3.0262    0.5822 C   0  0  0  0  0  0  0  0  0  0  0  0
    6.6426    2.2333   -0.3964 C   0  0  0  0  0  0  0  0  0  0  0  0
    8.0387    2.0459   -0.5661 N   0  0  0  0  0  0  0  0  0  0  0  0
    9.0674    2.9007   -0.1797 C   0  0  0  0  0  0  0  0  0  0  0  0
    8.8379    4.0097    0.3912 O   0  0  0  0  0  0  0  0  0  0  0  0
   10.4594    2.5714   -0.4054 C   0  0  0  0  0  0  0  0  0  0  0  0
   10.8630    1.4542   -0.9795 C   0  0  0  0  0  0  0  0  0  0  0  0
    5.7851    1.5902   -1.2815 C   0  0  0  0  0  0  0  0  0  0  0  0
    1.8509    0.4790   -0.6298 N   0  0  0  0  0  0  0  0  0  0  0  0
   -2.1541   -0.8136    0.7002 C   0  0  0  0  0  0  0  0  0  0  0  0
   -3.3825   -1.2997    1.2060 C   0  0  0  0  0  0  0  0  0  0  0  0
   -4.4246   -1.5854    0.4837 O   0  0  0  0  0  0  0  0  0  0  0  0
   -5.1424   -1.7232   -0.5974 C   0  0  0  0  0  0  0  0  0  0  0  0
   -5.4345   -0.5014   -1.4688 C   0  0  0  0  0  0  0  0  0  0  0  0
   -4.3208    0.0991   -1.9858 O   0  0  0  0  0  0  0  0  0  0  0  0
   -6.3718   -1.0026   -2.5543 C   0  0  0  0  0  0  0  0  0  0  0  0
   -6.7638    0.0705   -3.5299 C   0  0  0  0  0  0  0  0  0  0  0  0
   -7.6182   -1.6129   -1.9861 C   0  0  0  0  0  0  0  0  0  0  0  0
   -3.3992   -1.4588    2.6147 C   0  0  0  0  0  0  0  0  0  0  0  0
   -4.5851   -1.9339    3.1540 O   0  0  0  0  0  0  0  0  0  0  0  0
   -4.8550   -3.3034    3.3318 C   0  0  0  0  0  0  0  0  0  0  0  0
   -1.4679   -1.2917    6.6599 H   0  0  0  0  0  0  0  0  0  0  0  0
   -0.3832   -1.5285    5.2078 H   0  0  0  0  0  0  0  0  0  0  0  0
   -1.1528    0.0486    5.4837 H   0  0  0  0  0  0  0  0  0  0  0  0
   -0.3027   -0.4774    3.4674 H   0  0  0  0  0  0  0  0  0  0  0  0
    0.7793    0.5610    1.6944 H   0  0  0  0  0  0  0  0  0  0  0  0
    0.0337   -1.3095   -3.3832 H   0  0  0  0  0  0  0  0  0  0  0  0
    4.0792    0.9040   -3.1117 H   0  0  0  0  0  0  0  0  0  0  0  0
    2.8036    2.6774   -0.1263 H   0  0  0  0  0  0  0  0  0  0  0  0
    4.3513    3.8172    1.4720 H   0  0  0  0  0  0  0  0  0  0  0  0
    6.7343    3.5303    1.2993 H   0  0  0  0  0  0  0  0  0  0  0  0
    8.2974    1.1249   -1.0463 H   0  0  0  0  0  0  0  0  0  0  0  0
   11.2226    3.2691   -0.0899 H   0  0  0  0  0  0  0  0  0  0  0  0
   10.2273    0.6629   -1.3466 H   0  0  0  0  0  0  0  0  0  0  0  0
   11.9355    1.2728   -1.1171 H   0  0  0  0  0  0  0  0  0  0  0  0
    6.2210    0.9536   -2.0661 H   0  0  0  0  0  0  0  0  0  0  0  0
   -2.1349   -0.6807   -0.3703 H   0  0  0  0  0  0  0  0  0  0  0  0
   -4.7056   -2.5384   -1.2624 H   0  0  0  0  0  0  0  0  0  0  0  0
   -6.2059   -2.1177   -0.3848 H   0  0  0  0  0  0  0  0  0  0  0  0
   -5.9805    0.2161   -0.8173 H   0  0  0  0  0  0  0  0  0  0  0  0
   -4.6184    0.9226   -2.4498 H   0  0  0  0  0  0  0  0  0  0  0  0
   -5.8166   -1.7906   -3.0902 H   0  0  0  0  0  0  0  0  0  0  0  0
   -6.4985    1.0995   -3.2140 H   0  0  0  0  0  0  0  0  0  0  0  0
   -6.2269   -0.1216   -4.4890 H   0  0  0  0  0  0  0  0  0  0  0  0
   -7.8450    0.0090   -3.8067 H   0  0  0  0  0  0  0  0  0  0  0  0
   -7.5839   -2.7361   -2.0250 H   0  0  0  0  0  0  0  0  0  0  0  0
   -7.9146   -1.2415   -0.9994 H   0  0  0  0  0  0  0  0  0  0  0  0
   -8.4743   -1.3449   -2.6705 H   0  0  0  0  0  0  0  0  0  0  0  0
   -3.9353   -3.8920    3.5513 H   0  0  0  0  0  0  0  0  0  0  0  0
   -5.5577   -3.3697    4.1904 H   0  0  0  0  0  0  0  0  0  0  0  0
   -5.3284   -3.7884    2.4468 H   0  0  0  0  0  0  0  0  0  0  0  0
  1  2  1  0
  2  3  1  0
  3  4  2  0
  4  5  1  0
  5  6  1  0
  6  7  1  0
  7  8  2  0
  8  9  1  0
  9 10  2  0
 10 11  1  0
 10 12  1  0
 12 13  1  0
 13 14  1  0
 14 15  2  0
 15 16  1  0
 16 17  2  0
 17 18  1  0
 18 19  1  0
 19 20  1  0
 20 21  2  0
 20 22  1  0
 22 23  2  3
 18 24  2  0
 12 25  2  0
  5 26  2  0
 26 27  1  0
 27 28  1  0
 28 29  1  0
 29 30  1  0
 30 31  1  0
 30 32  1  0
 32 33  1  0
 32 34  1  0
 27 35  2  0
 35 36  1  0
 36 37  1  0
 35  3  1  0
 25  7  1  0
 24 14  1  0
  1 38  1  0
  1 39  1  0
  1 40  1  0
  4 41  1  0
  6 42  1  0
  9 43  1  0
 13 44  1  0
 15 45  1  0
 16 46  1  0
 17 47  1  0
 19 48  1  0
 22 49  1  0
 23 50  1  0
 23 51  1  0
 24 52  1  0
 26 53  1  0
 29 54  1  0
 29 55  1  0
 30 56  1  0
 31 57  1  0
 32 58  1  0
 33 59  1  0
 33 60  1  0
 33 61  1  0
 34 62  1  0
 34 63  1  0
 34 64  1  0
 37 65  1  0
 37 66  1  0
 37 67  1  0
M  END
$$$$
[H]OC(=O)C([H])(N([H])C(=O)c1c([H])c([H])c2c(C3([H])C([H])([H])C3([H])[H])c([H])n(C([H])([H])C([H])([H])C([H])([H])C([H])([H])[H])c2c1[H])C([H])([H])S(=O)(=O)N([H])[H]
     RDKit          3D

 53 55  0  0  0  0  0  0  0  0999 V2000
   -4.5025    3.6052    0.8060 C   0  0  0  0  0  0  0  0  0  0  0  0
   -3.0459    3.4641    1.2356 C   0  0  0  0  0  0  0  0  0  0  0  0
   -2.6986    1.9784    1.2391 C   0  0  0  0  0  0  0  0  0  0  0  0
   -2.9146    1.4727   -0.1659 C   0  0  0  0  0  0  0  0  0  0  0  0
   -2.6310    0.0645   -0.3297 N   0  0  0  0  0  0  0  0  0  0  0  0
   -3.5464   -0.9335   -0.1439 C   0  0  0  0  0  0  0  0  0  0  0  0
   -2.9579   -2.1560   -0.3866 C   0  0  0  0  0  0  0  0  0  0  0  0
   -3.5943   -3.5236   -0.3221 C   0  0  0  0  0  0  0  0  0  0  0  0
   -4.8545   -3.5896    0.4333 C   0  0  0  0  0  0  0  0  0  0  0  0
   -4.8826   -3.6719   -1.0687 C   0  0  0  0  0  0  0  0  0  0  0  0
   -1.6402   -1.8666   -0.7282 C   0  0  0  0  0  0  0  0  0  0  0  0
   -0.6324   -2.7413   -1.0496 C   0  0  0  0  0  0  0  0  0  0  0  0
    0.6038   -2.2122   -1.3385 C   0  0  0  0  0  0  0  0  0  0  0  0
    0.8480   -0.8501   -1.3138 C   0  0  0  0  0  0  0  0  0  0  0  0
   -0.1966    0.0097   -0.9849 C   0  0  0  0  0  0  0  0  0  0  0  0
   -1.4631   -0.4962   -0.6854 C   0  0  0  0  0  0  0  0  0  0  0  0
    2.1964   -0.4020   -1.6070 C   0  0  0  0  0  0  0  0  0  0  0  0
    2.4423    0.0991   -2.7168 O   0  0  0  0  0  0  0  0  0  0  0  0
    3.1715   -0.5592   -0.5995 N   0  0  0  0  0  0  0  0  0  0  0  0
    4.5595   -0.1106   -0.8644 C   0  0  0  0  0  0  0  0  0  0  0  0
    4.7603    1.0263    0.0692 C   0  0  0  0  0  0  0  0  0  0  0  0
    6.2862    1.8508    0.0606 S   0  0  0  0  0  0  0  0  0  0  0  0
    6.1575    3.1641    1.2382 N   0  0  0  0  0  0  0  0  0  0  0  0
    7.4320    1.0067    0.5831 O   0  0  0  0  0  0  0  0  0  0  0  0
    6.6712    2.4807   -1.2191 O   0  0  0  0  0  0  0  0  0  0  0  0
    5.4518   -1.2551   -0.7363 C   0  0  0  0  0  0  0  0  0  0  0  0
    6.8044   -1.2045   -0.9478 O   0  0  0  0  0  0  0  0  0  0  0  0
    4.9661   -2.3834   -0.4104 O   0  0  0  0  0  0  0  0  0  0  0  0
   -4.5423    3.7926   -0.2994 H   0  0  0  0  0  0  0  0  0  0  0  0
   -5.0958    2.7286    1.0391 H   0  0  0  0  0  0  0  0  0  0  0  0
   -4.9880    4.4969    1.2759 H   0  0  0  0  0  0  0  0  0  0  0  0
   -2.4116    3.9450    0.4941 H   0  0  0  0  0  0  0  0  0  0  0  0
   -2.9464    3.8620    2.2494 H   0  0  0  0  0  0  0  0  0  0  0  0
   -3.3828    1.4943    1.9599 H   0  0  0  0  0  0  0  0  0  0  0  0
   -1.6436    1.8326    1.5257 H   0  0  0  0  0  0  0  0  0  0  0  0
   -3.9781    1.7343   -0.4405 H   0  0  0  0  0  0  0  0  0  0  0  0
   -2.2746    2.0375   -0.8835 H   0  0  0  0  0  0  0  0  0  0  0  0
   -4.5689   -0.7951    0.1501 H   0  0  0  0  0  0  0  0  0  0  0  0
   -2.8497   -4.3349   -0.3304 H   0  0  0  0  0  0  0  0  0  0  0  0
   -5.0606   -4.5199    1.0335 H   0  0  0  0  0  0  0  0  0  0  0  0
   -5.2815   -2.6790    0.8950 H   0  0  0  0  0  0  0  0  0  0  0  0
   -5.0415   -4.6560   -1.5376 H   0  0  0  0  0  0  0  0  0  0  0  0
   -5.3554   -2.8151   -1.5864 H   0  0  0  0  0  0  0  0  0  0  0  0
   -0.7770   -3.8144   -1.0783 H   0  0  0  0  0  0  0  0  0  0  0  0
    1.4017   -2.9016   -1.5933 H   0  0  0  0  0  0  0  0  0  0  0  0
   -0.0269    1.0671   -0.9638 H   0  0  0  0  0  0  0  0  0  0  0  0
    2.9735   -0.9830    0.3335 H   0  0  0  0  0  0  0  0  0  0  0  0
    4.5359    0.2579   -1.9355 H   0  0  0  0  0  0  0  0  0  0  0  0
    4.5853    0.6398    1.1105 H   0  0  0  0  0  0  0  0  0  0  0  0
    3.9584    1.7872   -0.1652 H   0  0  0  0  0  0  0  0  0  0  0  0
    5.4694    3.8854    0.8791 H   0  0  0  0  0  0  0  0  0  0  0  0
    7.0782    3.6392    1.3529 H   0  0  0  0  0  0  0  0  0  0  0  0
    7.4321   -1.9674   -1.0608 H   0  0  0  0  0  0  0  0  0  0  0  0
  1  2  1  0
  2  3  1  0
  3  4  1  0
  4  5  1  0
  5  6  1  0
  6  7  2  0
  7  8  1  0
  8  9  1  0
  9 10  1  0
  7 11  1  0
 11 12  2  0
 12 13  1  0
 13 14  2  0
 14 15  1  0
 15 16  2  0
 14 17  1  0
 17 18  2  0
 17 19  1  0
 19 20  1  0
 20 21  1  0
 21 22  1  0
 22 23  1  0
 22 24  2  0
 22 25  2  0
 20 26  1  0
 26 27  1  0
 26 28  2  0
 16  5  1  0
 10  8  1  0
 16 11  1  0
  1 29  1  0
  1 30  1  0
  1 31  1  0
  2 32  1  0
  2 33  1  0
  3 34  1  0
  3 35  1  0
  4 36  1  0
  4 37  1  0
  6 38  1  0
  8 39  1  0
  9 40  1  0
  9 41  1  0
 10 42  1  0
 10 43  1  0
 12 44  1  0
 13 45  1  0
 15 46  1  0
 19 47  1  0
 20 48  1  0
 21 49  1  0
 21 50  1  0
 23 51  1  0
 23 52  1  0
 27 53  1  0
M  END
$$$$
[H]c1nc(Cl)c([H])c([H])c1-c1c(N([H])[H])nc([H])c(-c2c([H])c(S(=O)(=O)N([H])C([H])([H])C3([H])C([H])([H])C([H])([H])S(=O)(=O)C([H])([H])C3([H])[H])c([H])c([H])c2C#N)c1[H]
     RDKit          3D

 57 60  0  0  0  0  0  0  0  0999 V2000
  -10.4349    0.6587   -0.2676 Cl  0  0  0  0  0  0  0  0  0  0  0  0
   -8.7616    0.1793   -0.1144 C   0  0  0  0  0  0  0  0  0  0  0  0
   -8.3518   -0.6415    0.9094 C   0  0  0  0  0  0  0  0  0  0  0  0
   -7.0143   -0.9792    0.9682 C   0  0  0  0  0  0  0  0  0  0  0  0
   -6.0957   -0.5264    0.0481 C   0  0  0  0  0  0  0  0  0  0  0  0
   -6.5770    0.2964   -0.9562 C   0  0  0  0  0  0  0  0  0  0  0  0
   -7.8755    0.6255   -1.0149 N   0  0  0  0  0  0  0  0  0  0  0  0
   -4.7011   -0.9080    0.1411 C   0  0  0  0  0  0  0  0  0  0  0  0
   -3.7066    0.0661    0.0409 C   0  0  0  0  0  0  0  0  0  0  0  0
   -2.3662   -0.2245    0.1259 C   0  0  0  0  0  0  0  0  0  0  0  0
   -2.0592   -1.5731    0.3217 C   0  0  0  0  0  0  0  0  0  0  0  0
   -3.0229   -2.5009    0.4166 N   0  0  0  0  0  0  0  0  0  0  0  0
   -4.3439   -2.2222    0.3335 C   0  0  0  0  0  0  0  0  0  0  0  0
   -5.3195   -3.2727    0.4382 N   0  0  0  0  0  0  0  0  0  0  0  0
   -1.2871    0.7389    0.0198 C   0  0  0  0  0  0  0  0  0  0  0  0
   -0.2818    0.7809    0.9745 C   0  0  0  0  0  0  0  0  0  0  0  0
    0.7479    1.7117    0.8834 C   0  0  0  0  0  0  0  0  0  0  0  0
    0.7597    2.6011   -0.1758 C   0  0  0  0  0  0  0  0  0  0  0  0
   -0.2215    2.5667   -1.1160 C   0  0  0  0  0  0  0  0  0  0  0  0
   -1.2628    1.6284   -1.0280 C   0  0  0  0  0  0  0  0  0  0  0  0
   -2.2607    1.6347   -2.0591 C   0  0  0  0  0  0  0  0  0  0  0  0
   -3.0628    1.6375   -2.9218 N   0  0  0  0  0  0  0  0  0  0  0  0
    2.0238    1.7816    2.0753 S   0  0  0  0  0  0  0  0  0  0  0  0
    1.5035    1.3630    3.4189 O   0  0  0  0  0  0  0  0  0  0  0  0
    2.5060    3.2086    2.1989 O   0  0  0  0  0  0  0  0  0  0  0  0
    3.3225    0.7539    1.6006 N   0  0  0  0  0  0  0  0  0  0  0  0
    3.9091    1.1447    0.3565 C   0  0  0  0  0  0  0  0  0  0  0  0
    5.0379    0.1537    0.0617 C   0  0  0  0  0  0  0  0  0  0  0  0
    4.4938   -1.2519   -0.0368 C   0  0  0  0  0  0  0  0  0  0  0  0
    5.5678   -2.2843    0.2423 C   0  0  0  0  0  0  0  0  0  0  0  0
    7.0686   -1.7094   -0.5355 S   0  0  0  0  0  0  0  0  0  0  0  0
    7.9851   -1.0589    0.4579 O   0  0  0  0  0  0  0  0  0  0  0  0
    7.8134   -2.8216   -1.1947 O   0  0  0  0  0  0  0  0  0  0  0  0
    6.5759   -0.5320   -1.7905 C   0  0  0  0  0  0  0  0  0  0  0  0
    5.7411    0.5650   -1.2155 C   0  0  0  0  0  0  0  0  0  0  0  0
   -9.0900   -0.9817    1.6155 H   0  0  0  0  0  0  0  0  0  0  0  0
   -6.7369   -1.6276    1.7995 H   0  0  0  0  0  0  0  0  0  0  0  0
   -5.8887    0.6634   -1.6844 H   0  0  0  0  0  0  0  0  0  0  0  0
   -3.9933    1.0996   -0.1027 H   0  0  0  0  0  0  0  0  0  0  0  0
   -1.0032   -1.8287    0.3927 H   0  0  0  0  0  0  0  0  0  0  0  0
   -5.9538   -3.5569   -0.3324 H   0  0  0  0  0  0  0  0  0  0  0  0
   -5.3842   -3.7677    1.3396 H   0  0  0  0  0  0  0  0  0  0  0  0
   -0.2996    0.0870    1.7924 H   0  0  0  0  0  0  0  0  0  0  0  0
    1.5783    3.3163   -0.2182 H   0  0  0  0  0  0  0  0  0  0  0  0
   -0.1724    3.2820   -1.9283 H   0  0  0  0  0  0  0  0  0  0  0  0
    3.9887    0.5455    2.3485 H   0  0  0  0  0  0  0  0  0  0  0  0
    4.2712    2.1722    0.3073 H   0  0  0  0  0  0  0  0  0  0  0  0
    3.1773    1.0035   -0.4749 H   0  0  0  0  0  0  0  0  0  0  0  0
    5.7900    0.1705    0.8762 H   0  0  0  0  0  0  0  0  0  0  0  0
    3.5946   -1.4039    0.5867 H   0  0  0  0  0  0  0  0  0  0  0  0
    4.2077   -1.4011   -1.1153 H   0  0  0  0  0  0  0  0  0  0  0  0
    5.2734   -3.2366   -0.2815 H   0  0  0  0  0  0  0  0  0  0  0  0
    5.7152   -2.4730    1.3119 H   0  0  0  0  0  0  0  0  0  0  0  0
    7.4662   -0.1018   -2.2835 H   0  0  0  0  0  0  0  0  0  0  0  0
    6.0331   -1.1265   -2.5655 H   0  0  0  0  0  0  0  0  0  0  0  0
    6.3861    1.4395   -1.0074 H   0  0  0  0  0  0  0  0  0  0  0  0
    4.9909    0.8639   -1.9831 H   0  0  0  0  0  0  0  0  0  0  0  0
  1  2  1  0
  2  3  2  0
  3  4  1  0
  4  5  2  0
  5  6  1  0
  6  7  2  0
  5  8  1  0
  8  9  2  0
  9 10  1  0
 10 11  2  0
 11 12  1  0
 12 13  2  0
 13 14  1  0
 10 15  1  0
 15 16  2  0
 16 17  1  0
 17 18  2  0
 18 19  1  0
 19 20  2  0
 20 21  1  0
 21 22  3  0
 17 23  1  0
 23 24  2  0
 23 25  2  0
 23 26  1  0
 26 27  1  0
 27 28  1  0
 28 29  1  0
 29 30  1  0
 30 31  1  0
 31 32  2  0
 31 33  2  0
 31 34  1  0
 34 35  1  0
  7  2  1  0
 13  8  1  0
 20 15  1  0
 35 28  1  0
  3 36  1  0
  4 37  1  0
  6 38  1  0
  9 39  1  0
 11 40  1  0
 14 41  1  0
 14 42  1  0
 16 43  1  0
 18 44  1  0
 19 45  1  0
 26 46  1  0
 27 47  1  0
 27 48  1  0
 28 49  1  0
 29 50  1  0
 29 51  1  0
 30 52  1  0
 30 53  1  0
 34 54  1  0
 34 55  1  0
 35 56  1  0
 35 57  1  0
M  END
$$$$
[H]c1c([H])c(N([H])C(=O)c2c([H])c([H])c(C(F)(F)F)c(C(F)(F)F)c2[H])c(N2C([H])([H])C([H])([H])C([H])(C([H])([H])[H])C([H])([H])C2([H])[H])c([H])c1C(=O)N([H])[H]
     RDKit          3D

 54 56  0  0  0  0  0  0  0  0999 V2000
   -3.5610   -3.2947   -2.2838 C   0  0  0  0  0  0  0  0  0  0  0  0
   -3.1545   -2.0188   -1.5685 C   0  0  0  0  0  0  0  0  0  0  0  0
   -2.1052   -1.2795   -2.3733 C   0  0  0  0  0  0  0  0  0  0  0  0
   -1.0812   -0.6335   -1.4508 C   0  0  0  0  0  0  0  0  0  0  0  0
   -1.7065   -0.1800   -0.2226 N   0  0  0  0  0  0  0  0  0  0  0  0
   -2.3208   -1.1830    0.6278 C   0  0  0  0  0  0  0  0  0  0  0  0
   -2.6606   -2.3826   -0.1979 C   0  0  0  0  0  0  0  0  0  0  0  0
   -1.7436    1.1771    0.1709 C   0  0  0  0  0  0  0  0  0  0  0  0
   -2.9302    1.8893    0.1617 C   0  0  0  0  0  0  0  0  0  0  0  0
   -3.0388    3.2024    0.4980 C   0  0  0  0  0  0  0  0  0  0  0  0
   -1.8829    3.8491    0.8694 C   0  0  0  0  0  0  0  0  0  0  0  0
   -0.6440    3.1855    0.9015 C   0  0  0  0  0  0  0  0  0  0  0  0
   -0.5744    1.8607    0.5557 C   0  0  0  0  0  0  0  0  0  0  0  0
    0.6211    1.1159    0.6036 N   0  0  0  0  0  0  0  0  0  0  0  0
    1.9086    1.5967    0.8388 C   0  0  0  0  0  0  0  0  0  0  0  0
    2.1213    2.8154    1.0394 O   0  0  0  0  0  0  0  0  0  0  0  0
    3.0783    0.6676    0.8597 C   0  0  0  0  0  0  0  0  0  0  0  0
    4.2330    1.1002    1.4594 C   0  0  0  0  0  0  0  0  0  0  0  0
    5.3167    0.2656    1.4814 C   0  0  0  0  0  0  0  0  0  0  0  0
    5.3002   -1.0179    0.9161 C   0  0  0  0  0  0  0  0  0  0  0  0
    4.1445   -1.4658    0.3088 C   0  0  0  0  0  0  0  0  0  0  0  0
    3.0576   -0.5788    0.3085 C   0  0  0  0  0  0  0  0  0  0  0  0
    4.0045   -2.7694   -0.3198 C   0  0  0  0  0  0  0  0  0  0  0  0
    4.2213   -3.8554    0.5198 F   0  0  0  0  0  0  0  0  0  0  0  0
    2.6297   -2.9453   -0.6271 F   0  0  0  0  0  0  0  0  0  0  0  0
    4.5697   -2.9177   -1.5655 F   0  0  0  0  0  0  0  0  0  0  0  0
    6.4982   -1.8305    0.9999 C   0  0  0  0  0  0  0  0  0  0  0  0
    7.0275   -2.2328   -0.2260 F   0  0  0  0  0  0  0  0  0  0  0  0
    6.5039   -2.8301    1.9460 F   0  0  0  0  0  0  0  0  0  0  0  0
    7.5466   -1.0031    1.4777 F   0  0  0  0  0  0  0  0  0  0  0  0
   -4.3114    3.8960    0.4690 C   0  0  0  0  0  0  0  0  0  0  0  0
   -4.3660    5.2620    0.8252 N   0  0  0  0  0  0  0  0  0  0  0  0
   -5.3451    3.2979    0.1346 O   0  0  0  0  0  0  0  0  0  0  0  0
   -2.8120   -4.0818   -1.9871 H   0  0  0  0  0  0  0  0  0  0  0  0
   -3.5452   -3.1857   -3.3849 H   0  0  0  0  0  0  0  0  0  0  0  0
   -4.5415   -3.6260   -1.9136 H   0  0  0  0  0  0  0  0  0  0  0  0
   -4.0450   -1.3726   -1.4524 H   0  0  0  0  0  0  0  0  0  0  0  0
   -1.5532   -2.0088   -2.9993 H   0  0  0  0  0  0  0  0  0  0  0  0
   -2.5405   -0.4922   -3.0075 H   0  0  0  0  0  0  0  0  0  0  0  0
   -0.6700    0.2535   -1.9640 H   0  0  0  0  0  0  0  0  0  0  0  0
   -0.3236   -1.4099   -1.2134 H   0  0  0  0  0  0  0  0  0  0  0  0
   -3.2381   -0.7813    1.1023 H   0  0  0  0  0  0  0  0  0  0  0  0
   -1.5773   -1.4910    1.3936 H   0  0  0  0  0  0  0  0  0  0  0  0
   -1.8026   -3.0951   -0.2565 H   0  0  0  0  0  0  0  0  0  0  0  0
   -3.4847   -2.9237    0.3142 H   0  0  0  0  0  0  0  0  0  0  0  0
   -3.8266    1.3282   -0.1423 H   0  0  0  0  0  0  0  0  0  0  0  0
   -1.9389    4.8838    1.1389 H   0  0  0  0  0  0  0  0  0  0  0  0
    0.1749    3.7759    1.2070 H   0  0  0  0  0  0  0  0  0  0  0  0
    0.5247    0.0567    0.4627 H   0  0  0  0  0  0  0  0  0  0  0  0
    4.2789    2.0803    1.9030 H   0  0  0  0  0  0  0  0  0  0  0  0
    6.2122    0.6340    1.9611 H   0  0  0  0  0  0  0  0  0  0  0  0
    2.1187   -0.8987   -0.1729 H   0  0  0  0  0  0  0  0  0  0  0  0
   -4.5080    5.6059    1.8016 H   0  0  0  0  0  0  0  0  0  0  0  0
   -4.2586    5.9857    0.0721 H   0  0  0  0  0  0  0  0  0  0  0  0
  1  2  1  0
  2  3  1  0
  3  4  1  0
  4  5  1  0
  5  6  1  0
  6  7  1  0
  5  8  1  0
  8  9  2  0
  9 10  1  0
 10 11  2  0
 11 12  1  0
 12 13  2  0
 13 14  1  0
 14 15  1  0
 15 16  2  0
 15 17  1  0
 17 18  2  0
 18 19  1  0
 19 20  2  0
 20 21  1  0
 21 22  2  0
 21 23  1  0
 23 24  1  0
 23 25  1  0
 23 26  1  0
 20 27  1  0
 27 28  1  0
 27 29  1  0
 27 30  1  0
 10 31  1  0
 31 32  1  0
 31 33  2  0
  7  2  1  0
 13  8  1  0
 22 17  1  0
  1 34  1  0
  1 35  1  0
  1 36  1  0
  2 37  1  0
  3 38  1  0
  3 39  1  0
  4 40  1  0
  4 41  1  0
  6 42  1  0
  6 43  1  0
  7 44  1  0
  7 45  1  0
  9 46  1  0
 11 47  1  0
 12 48  1  0
 14 49  1  0
 18 50  1  0
 19 51  1  0
 22 52  1  0
 32 53  1  0
 32 54  1  0
M  END
$$$$
[H]Oc1c([H])c([H])c([H])c(C(F)(F)F)c1N([H])C(=O)c1c([H])c([H])c([H])c(C#Cc2c([H])n([H])c3c([H])c(C([H])([H])[H])c([H])c([H])c23)c1[H]
     RDKit          3D

 49 52  0  0  0  0  0  0  0  0999 V2000
    9.2186   -0.7945    0.8590 C   0  0  0  0  0  0  0  0  0  0  0  0
    7.8164   -0.3194    0.6472 C   0  0  0  0  0  0  0  0  0  0  0  0
    6.8633   -1.1587    0.1022 C   0  0  0  0  0  0  0  0  0  0  0  0
    5.5565   -0.7737   -0.1151 C   0  0  0  0  0  0  0  0  0  0  0  0
    5.1564    0.5092    0.2204 C   0  0  0  0  0  0  0  0  0  0  0  0
    3.9347    1.1476    0.1133 C   0  0  0  0  0  0  0  0  0  0  0  0
    4.1655    2.4261    0.6164 C   0  0  0  0  0  0  0  0  0  0  0  0
    5.4540    2.5151    0.9923 N   0  0  0  0  0  0  0  0  0  0  0  0
    6.1005    1.3568    0.7659 C   0  0  0  0  0  0  0  0  0  0  0  0
    7.4108    0.9575    0.9791 C   0  0  0  0  0  0  0  0  0  0  0  0
    2.6943    0.6274   -0.3985 C   0  0  0  0  0  0  0  0  0  0  0  0
    1.6442    0.1986   -0.8110 C   0  0  0  0  0  0  0  0  0  0  0  0
    0.3848   -0.2890   -1.2977 C   0  0  0  0  0  0  0  0  0  0  0  0
    0.3317   -1.1347   -2.3869 C   0  0  0  0  0  0  0  0  0  0  0  0
   -0.8770   -1.6173   -2.8730 C   0  0  0  0  0  0  0  0  0  0  0  0
   -2.0742   -1.2452   -2.2533 C   0  0  0  0  0  0  0  0  0  0  0  0
   -2.0356   -0.4012   -1.1647 C   0  0  0  0  0  0  0  0  0  0  0  0
   -0.8094    0.0622   -0.7054 C   0  0  0  0  0  0  0  0  0  0  0  0
   -3.2689    0.0068   -0.4945 C   0  0  0  0  0  0  0  0  0  0  0  0
   -3.1667    0.7838    0.5047 O   0  0  0  0  0  0  0  0  0  0  0  0
   -4.5606   -0.4018   -0.8802 N   0  0  0  0  0  0  0  0  0  0  0  0
   -5.7088    0.0216   -0.1894 C   0  0  0  0  0  0  0  0  0  0  0  0
   -6.2725   -0.7597    0.8208 C   0  0  0  0  0  0  0  0  0  0  0  0
   -7.3896   -0.2612    1.4590 C   0  0  0  0  0  0  0  0  0  0  0  0
   -7.9467    0.9391    1.1425 C   0  0  0  0  0  0  0  0  0  0  0  0
   -7.3684    1.6937    0.1366 C   0  0  0  0  0  0  0  0  0  0  0  0
   -6.2650    1.2396   -0.5190 C   0  0  0  0  0  0  0  0  0  0  0  0
   -5.6945    1.9997   -1.5218 O   0  0  0  0  0  0  0  0  0  0  0  0
   -5.7480   -2.0654    1.2127 C   0  0  0  0  0  0  0  0  0  0  0  0
   -4.4748   -2.1001    1.6739 F   0  0  0  0  0  0  0  0  0  0  0  0
   -5.7825   -2.8572    0.0554 F   0  0  0  0  0  0  0  0  0  0  0  0
   -6.5814   -2.6051    2.1814 F   0  0  0  0  0  0  0  0  0  0  0  0
    9.6770   -1.1540   -0.0910 H   0  0  0  0  0  0  0  0  0  0  0  0
    9.7847    0.0666    1.2950 H   0  0  0  0  0  0  0  0  0  0  0  0
    9.2701   -1.5975    1.6286 H   0  0  0  0  0  0  0  0  0  0  0  0
    7.1682   -2.1559   -0.1602 H   0  0  0  0  0  0  0  0  0  0  0  0
    4.8038   -1.4190   -0.5394 H   0  0  0  0  0  0  0  0  0  0  0  0
    3.3800    3.1789    0.6657 H   0  0  0  0  0  0  0  0  0  0  0  0
    5.9041    3.3517    1.4016 H   0  0  0  0  0  0  0  0  0  0  0  0
    8.1587    1.6140    1.4060 H   0  0  0  0  0  0  0  0  0  0  0  0
    1.2172   -1.4637   -2.9148 H   0  0  0  0  0  0  0  0  0  0  0  0
   -0.9624   -2.2768   -3.7173 H   0  0  0  0  0  0  0  0  0  0  0  0
   -3.0192   -1.6231   -2.6341 H   0  0  0  0  0  0  0  0  0  0  0  0
   -0.8234    0.7352    0.1678 H   0  0  0  0  0  0  0  0  0  0  0  0
   -4.6883   -1.0325   -1.6943 H   0  0  0  0  0  0  0  0  0  0  0  0
   -7.8777   -0.8220    2.2573 H   0  0  0  0  0  0  0  0  0  0  0  0
   -8.8243    1.3565    1.6267 H   0  0  0  0  0  0  0  0  0  0  0  0
   -7.7716    2.6542   -0.1541 H   0  0  0  0  0  0  0  0  0  0  0  0
   -6.1042    2.8867   -1.7577 H   0  0  0  0  0  0  0  0  0  0  0  0
  1  2  1  0
  2  3  2  0
  3  4  1  0
  4  5  2  0
  5  6  1  0
  6  7  2  0
  7  8  1  0
  8  9  1  0
  9 10  2  0
  6 11  1  0
 11 12  3  0
 12 13  1  0
 13 14  2  0
 14 15  1  0
 15 16  2  0
 16 17  1  0
 17 18  2  0
 17 19  1  0
 19 20  2  0
 19 21  1  0
 21 22  1  0
 22 23  2  0
 23 24  1  0
 24 25  2  0
 25 26  1  0
 26 27  2  0
 27 28  1  0
 23 29  1  0
 29 30  1  0
 29 31  1  0
 29 32  1  0
 10  2  1  0
 18 13  1  0
 27 22  1  0
  9  5  1  0
  1 33  1  0
  1 34  1  0
  1 35  1  0
  3 36  1  0
  4 37  1  0
  7 38  1  0
  8 39  1  0
 10 40  1  0
 14 41  1  0
 15 42  1  0
 16 43  1  0
 18 44  1  0
 21 45  1  0
 24 46  1  0
 25 47  1  0
 26 48  1  0
 28 49  1  0
M  END
$$$$
[H]OC([H])([H])c1c([H])c(-c2c([H])nc(N([H])[H])c(O[C@@]([H])(c3c([H])c(F)c([H])c([H])c3F)C([H])([H])[H])c2[H])c(F)c([H])c1N([H])C(=O)c1c([H])c([H])c([H])c(F)c1[H]
     RDKit          3D

 58 61  0  0  0  0  0  0  0  0999 V2000
   -5.0345   -1.7200    2.0060 C   0  0  0  0  0  0  0  0  0  0  0  0
   -4.5706   -0.5999    1.0479 C   0  0  1  0  0  0  0  0  0  0  0  0
   -4.4617   -1.1584   -0.2142 O   0  0  0  0  0  0  0  0  0  0  0  0
   -3.3692   -1.3810   -0.9931 C   0  0  0  0  0  0  0  0  0  0  0  0
   -2.1024   -1.0491   -0.5872 C   0  0  0  0  0  0  0  0  0  0  0  0
   -0.9711   -1.2643   -1.3587 C   0  0  0  0  0  0  0  0  0  0  0  0
   -1.1770   -1.8520   -2.6077 C   0  0  0  0  0  0  0  0  0  0  0  0
   -2.3938   -2.1727   -3.0020 N   0  0  0  0  0  0  0  0  0  0  0  0
   -3.4862   -1.9646   -2.2563 C   0  0  0  0  0  0  0  0  0  0  0  0
   -4.7444   -2.3544   -2.7897 N   0  0  0  0  0  0  0  0  0  0  0  0
    0.3732   -0.9076   -0.9251 C   0  0  0  0  0  0  0  0  0  0  0  0
    1.2115   -0.2704   -1.8035 C   0  0  0  0  0  0  0  0  0  0  0  0
    2.4940    0.0971   -1.4836 C   0  0  0  0  0  0  0  0  0  0  0  0
    3.3474    0.7799   -2.4811 C   0  0  0  0  0  0  0  0  0  0  0  0
    2.6846    0.9737   -3.6900 O   0  0  0  0  0  0  0  0  0  0  0  0
    3.0299   -0.1602   -0.2237 C   0  0  0  0  0  0  0  0  0  0  0  0
    4.3688    0.2373    0.0676 N   0  0  0  0  0  0  0  0  0  0  0  0
    5.1089    0.0670    1.2267 C   0  0  0  0  0  0  0  0  0  0  0  0
    4.6417   -0.5097    2.2428 O   0  0  0  0  0  0  0  0  0  0  0  0
    6.4880    0.5831    1.2531 C   0  0  0  0  0  0  0  0  0  0  0  0
    7.3298    0.0422    2.2279 C   0  0  0  0  0  0  0  0  0  0  0  0
    8.6273    0.5075    2.2827 C   0  0  0  0  0  0  0  0  0  0  0  0
    9.0824    1.4674    1.4144 C   0  0  0  0  0  0  0  0  0  0  0  0
    8.2496    1.9984    0.4547 C   0  0  0  0  0  0  0  0  0  0  0  0
    8.6889    2.9438   -0.4053 F   0  0  0  0  0  0  0  0  0  0  0  0
    6.9407    1.5401    0.3872 C   0  0  0  0  0  0  0  0  0  0  0  0
    2.1960   -0.8001    0.6682 C   0  0  0  0  0  0  0  0  0  0  0  0
    0.8893   -1.1660    0.3186 C   0  0  0  0  0  0  0  0  0  0  0  0
    0.1126   -1.8007    1.2572 F   0  0  0  0  0  0  0  0  0  0  0  0
   -5.6189    0.4581    1.1257 C   0  0  0  0  0  0  0  0  0  0  0  0
   -6.8171    0.2427    1.7482 C   0  0  0  0  0  0  0  0  0  0  0  0
   -7.7655    1.2239    1.7876 C   0  0  0  0  0  0  0  0  0  0  0  0
   -8.9775    1.0284    2.4074 F   0  0  0  0  0  0  0  0  0  0  0  0
   -7.5588    2.4551    1.2098 C   0  0  0  0  0  0  0  0  0  0  0  0
   -6.3339    2.6449    0.5850 C   0  0  0  0  0  0  0  0  0  0  0  0
   -5.3650    1.6733    0.5330 C   0  0  0  0  0  0  0  0  0  0  0  0
   -4.1711    1.9292   -0.1007 F   0  0  0  0  0  0  0  0  0  0  0  0
   -4.1698   -2.4163    2.1011 H   0  0  0  0  0  0  0  0  0  0  0  0
   -5.8535   -2.2673    1.5068 H   0  0  0  0  0  0  0  0  0  0  0  0
   -5.2855   -1.3134    2.9870 H   0  0  0  0  0  0  0  0  0  0  0  0
   -3.6000   -0.2392    1.3934 H   0  0  0  0  0  0  0  0  0  0  0  0
   -1.8913   -0.5866    0.3851 H   0  0  0  0  0  0  0  0  0  0  0  0
   -0.3045   -2.0359   -3.2421 H   0  0  0  0  0  0  0  0  0  0  0  0
   -5.2807   -1.6509   -3.3782 H   0  0  0  0  0  0  0  0  0  0  0  0
   -5.1557   -3.2853   -2.6300 H   0  0  0  0  0  0  0  0  0  0  0  0
    0.8525   -0.0431   -2.7981 H   0  0  0  0  0  0  0  0  0  0  0  0
    4.3132    0.2345   -2.6357 H   0  0  0  0  0  0  0  0  0  0  0  0
    3.6026    1.7869   -2.0963 H   0  0  0  0  0  0  0  0  0  0  0  0
    3.2709    1.0218   -4.4709 H   0  0  0  0  0  0  0  0  0  0  0  0
    4.8463    0.7375   -0.7543 H   0  0  0  0  0  0  0  0  0  0  0  0
    6.9744   -0.7167    2.9159 H   0  0  0  0  0  0  0  0  0  0  0  0
    9.2973    0.1036    3.0272 H   0  0  0  0  0  0  0  0  0  0  0  0
   10.1080    1.8282    1.4656 H   0  0  0  0  0  0  0  0  0  0  0  0
    6.3215    1.9823   -0.3717 H   0  0  0  0  0  0  0  0  0  0  0  0
    2.5430   -1.0303    1.6632 H   0  0  0  0  0  0  0  0  0  0  0  0
   -7.0532   -0.7024    2.2241 H   0  0  0  0  0  0  0  0  0  0  0  0
   -8.3278    3.2112    1.2573 H   0  0  0  0  0  0  0  0  0  0  0  0
   -6.1536    3.6193    0.1205 H   0  0  0  0  0  0  0  0  0  0  0  0
  1  2  1  0
  2  3  1  0
  3  4  1  0
  4  5  2  0
  5  6  1  0
  6  7  2  0
  7  8  1  0
  8  9  2  0
  9 10  1  0
  6 11  1  0
 11 12  2  0
 12 13  1  0
 13 14  1  0
 14 15  1  0
 13 16  2  0
 16 17  1  0
 17 18  1  0
 18 19  2  0
 18 20  1  0
 20 21  2  0
 21 22  1  0
 22 23  2  0
 23 24  1  0
 24 25  1  0
 24 26  2  0
 16 27  1  0
 27 28  2  0
 28 29  1  0
  2 30  1  0
 30 31  2  0
 31 32  1  0
 32 33  1  0
 32 34  2  0
 34 35  1  0
 35 36  2  0
 36 37  1  0
  9  4  1  0
 28 11  1  0
 36 30  1  0
 26 20  1  0
  1 38  1  0
  1 39  1  0
  1 40  1  0
  2 41  1  1
  5 42  1  0
  7 43  1  0
 10 44  1  0
 10 45  1  0
 12 46  1  0
 14 47  1  0
 14 48  1  0
 15 49  1  0
 17 50  1  0
 21 51  1  0
 22 52  1  0
 23 53  1  0
 26 54  1  0
 27 55  1  0
 31 56  1  0
 34 57  1  0
 35 58  1  0
M  END
$$$$
[H]OC([H])([H])[C@@]1([H])C([H])([H])N(C([H])([H])C([H])=C([H])[H])[C@]([H])(OC([H])([H])c2c([H])c([H])c([H])c([H])c2[H])[C@@]([H])(O[H])[C@@]([H])(O[H])[C@@]1([H])O[H]
     RDKit          3D

 48 49  0  0  0  0  0  0  0  0999 V2000
   -3.3015   -0.1158    1.3038 O   0  0  0  0  0  0  0  0  0  0  0  0
   -2.8535   -1.0821    0.4325 C   0  0  2  0  0  0  0  0  0  0  0  0
   -1.8063   -1.9785    1.0001 C   0  0  2  0  0  0  0  0  0  0  0  0
   -2.3832   -2.7936    1.9691 O   0  0  0  0  0  0  0  0  0  0  0  0
   -0.6398   -1.2346    1.5983 C   0  0  2  0  0  0  0  0  0  0  0  0
   -0.9960   -0.2329    2.4649 O   0  0  0  0  0  0  0  0  0  0  0  0
    0.3136   -0.7199    0.5541 C   0  0  1  0  0  0  0  0  0  0  0  0
    0.4917   -1.6649   -0.4464 O   0  0  0  0  0  0  0  0  0  0  0  0
    1.7676   -2.1559   -0.4904 C   0  0  0  0  0  0  0  0  0  0  0  0
    2.8320   -1.1673   -0.7469 C   0  0  0  0  0  0  0  0  0  0  0  0
    2.9389   -0.5436   -1.9948 C   0  0  0  0  0  0  0  0  0  0  0  0
    3.9243    0.3712   -2.2647 C   0  0  0  0  0  0  0  0  0  0  0  0
    4.8507    0.7089   -1.3045 C   0  0  0  0  0  0  0  0  0  0  0  0
    4.7722    0.1188   -0.0814 C   0  0  0  0  0  0  0  0  0  0  0  0
    3.7809   -0.7983    0.1827 C   0  0  0  0  0  0  0  0  0  0  0  0
   -0.0444    0.5299   -0.0143 N   0  0  0  0  0  0  0  0  0  0  0  0
    0.6253    1.6386    0.6308 C   0  0  0  0  0  0  0  0  0  0  0  0
    0.1478    2.8758   -0.0680 C   0  0  0  0  0  0  0  0  0  0  0  0
   -0.4798    3.8258    0.5811 C   0  0  0  0  0  0  0  0  0  0  0  0
   -1.4299    0.7721   -0.2384 C   0  0  0  0  0  0  0  0  0  0  0  0
   -2.2259   -0.3627   -0.7648 C   0  0  2  0  0  0  0  0  0  0  0  0
   -3.3783    0.1884   -1.6073 C   0  0  0  0  0  0  0  0  0  0  0  0
   -4.1497    1.0777   -0.8627 O   0  0  0  0  0  0  0  0  0  0  0  0
   -4.1738   -0.3257    1.7176 H   0  0  0  0  0  0  0  0  0  0  0  0
   -3.7069   -1.7055    0.1144 H   0  0  0  0  0  0  0  0  0  0  0  0
   -1.4084   -2.6154    0.1844 H   0  0  0  0  0  0  0  0  0  0  0  0
   -2.5955   -2.2113    2.7395 H   0  0  0  0  0  0  0  0  0  0  0  0
   -0.0688   -1.9949    2.1906 H   0  0  0  0  0  0  0  0  0  0  0  0
   -0.8455   -0.4524    3.4230 H   0  0  0  0  0  0  0  0  0  0  0  0
    1.2902   -0.6046    1.0650 H   0  0  0  0  0  0  0  0  0  0  0  0
    2.0077   -2.6690    0.4811 H   0  0  0  0  0  0  0  0  0  0  0  0
    1.7977   -2.9768   -1.2485 H   0  0  0  0  0  0  0  0  0  0  0  0
    2.1932   -0.8351   -2.7219 H   0  0  0  0  0  0  0  0  0  0  0  0
    3.9875    0.8373   -3.2285 H   0  0  0  0  0  0  0  0  0  0  0  0
    5.6134    1.4313   -1.5467 H   0  0  0  0  0  0  0  0  0  0  0  0
    5.5033    0.3898    0.6659 H   0  0  0  0  0  0  0  0  0  0  0  0
    3.7442   -1.2524    1.1687 H   0  0  0  0  0  0  0  0  0  0  0  0
    0.3071    1.6977    1.6702 H   0  0  0  0  0  0  0  0  0  0  0  0
    1.7041    1.5295    0.4896 H   0  0  0  0  0  0  0  0  0  0  0  0
    0.3407    2.9492   -1.1146 H   0  0  0  0  0  0  0  0  0  0  0  0
   -0.8157    4.7081    0.0618 H   0  0  0  0  0  0  0  0  0  0  0  0
   -0.6927    3.7840    1.6452 H   0  0  0  0  0  0  0  0  0  0  0  0
   -1.8892    1.2004    0.6717 H   0  0  0  0  0  0  0  0  0  0  0  0
   -1.4895    1.6017   -1.0057 H   0  0  0  0  0  0  0  0  0  0  0  0
   -1.7029   -1.0886   -1.3810 H   0  0  0  0  0  0  0  0  0  0  0  0
   -4.0000   -0.6424   -1.9537 H   0  0  0  0  0  0  0  0  0  0  0  0
   -2.9233    0.6868   -2.4925 H   0  0  0  0  0  0  0  0  0  0  0  0
   -4.9338    1.3015   -1.4284 H   0  0  0  0  0  0  0  0  0  0  0  0
  1  2  1  0
  2  3  1  0
  3  4  1  0
  3  5  1  0
  5  6  1  0
  5  7  1  0
  7  8  1  0
  8  9  1  0
  9 10  1  0
 10 11  2  0
 11 12  1  0
 12 13  2  0
 13 14  1  0
 14 15  2  0
  7 16  1  0
 16 17  1  0
 17 18  1  0
 18 19  2  3
 16 20  1  0
 20 21  1  0
 21 22  1  0
 22 23  1  0
 21  2  1  0
 15 10  1  0
  1 24  1  0
  2 25  1  6
  3 26  1  6
  4 27  1  0
  5 28  1  1
  6 29  1  0
  7 30  1  1
  9 31  1  0
  9 32  1  0
 11 33  1  0
 12 34  1  0
 13 35  1  0
 14 36  1  0
 15 37  1  0
 17 38  1  0
 17 39  1  0
 18 40  1  0
 19 41  1  0
 19 42  1  0
 20 43  1  0
 20 44  1  0
 21 45  1  6
 22 46  1  0
 22 47  1  0
 23 48  1  0
M  END
$$$$
[H]c1c([H])c([H])c(Oc2c([H])c(C([H])([H])[H])c3c(c2[H])C(C([H])([H])[H])(C([H])([H])[H])C([H])([H])C(=O)N3[H])c(C#N)c1[H]
     RDKit          3D

 41 43  0  0  0  0  0  0  0  0999 V2000
   -1.5621    2.0781    0.8482 C   0  0  0  0  0  0  0  0  0  0  0  0
   -2.0595    1.0693   -0.1936 C   0  0  0  0  0  0  0  0  0  0  0  0
   -1.8253    1.7020   -1.5491 C   0  0  0  0  0  0  0  0  0  0  0  0
   -3.5347    0.9286    0.0006 C   0  0  0  0  0  0  0  0  0  0  0  0
   -4.0721   -0.3979   -0.2761 C   0  0  0  0  0  0  0  0  0  0  0  0
   -5.2394   -0.5179   -0.6964 O   0  0  0  0  0  0  0  0  0  0  0  0
   -3.2912   -1.5661   -0.0766 N   0  0  0  0  0  0  0  0  0  0  0  0
   -1.8848   -1.4058    0.0645 C   0  0  0  0  0  0  0  0  0  0  0  0
   -1.0886   -2.5195    0.2605 C   0  0  0  0  0  0  0  0  0  0  0  0
   -1.6883   -3.8833    0.3254 C   0  0  0  0  0  0  0  0  0  0  0  0
    0.2738   -2.3742    0.3981 C   0  0  0  0  0  0  0  0  0  0  0  0
    0.9071   -1.1263    0.3482 C   0  0  0  0  0  0  0  0  0  0  0  0
    2.2538   -1.1136    0.4986 O   0  0  0  0  0  0  0  0  0  0  0  0
    3.1726   -0.1385    0.3888 C   0  0  0  0  0  0  0  0  0  0  0  0
    3.9147    0.2277    1.4902 C   0  0  0  0  0  0  0  0  0  0  0  0
    4.8776    1.2297    1.4263 C   0  0  0  0  0  0  0  0  0  0  0  0
    5.1081    1.8805    0.2465 C   0  0  0  0  0  0  0  0  0  0  0  0
    4.3717    1.5207   -0.8582 C   0  0  0  0  0  0  0  0  0  0  0  0
    3.4029    0.5128   -0.7960 C   0  0  0  0  0  0  0  0  0  0  0  0
    2.7148    0.2072   -2.0062 C   0  0  0  0  0  0  0  0  0  0  0  0
    2.1777   -0.0535   -2.9832 N   0  0  0  0  0  0  0  0  0  0  0  0
    0.0873   -0.0398    0.1524 C   0  0  0  0  0  0  0  0  0  0  0  0
   -1.3005   -0.1670    0.0101 C   0  0  0  0  0  0  0  0  0  0  0  0
   -0.6656    2.5506    0.4525 H   0  0  0  0  0  0  0  0  0  0  0  0
   -1.2973    1.4918    1.7543 H   0  0  0  0  0  0  0  0  0  0  0  0
   -2.3650    2.7868    1.1349 H   0  0  0  0  0  0  0  0  0  0  0  0
   -0.7972    2.0999   -1.6464 H   0  0  0  0  0  0  0  0  0  0  0  0
   -2.5014    2.5841   -1.6020 H   0  0  0  0  0  0  0  0  0  0  0  0
   -2.0984    1.0346   -2.3824 H   0  0  0  0  0  0  0  0  0  0  0  0
   -4.0776    1.6715   -0.6190 H   0  0  0  0  0  0  0  0  0  0  0  0
   -3.7970    1.1767    1.0709 H   0  0  0  0  0  0  0  0  0  0  0  0
   -3.7685   -2.4934   -0.0404 H   0  0  0  0  0  0  0  0  0  0  0  0
   -0.8999   -4.6169    0.1030 H   0  0  0  0  0  0  0  0  0  0  0  0
   -2.0900   -3.9937    1.3563 H   0  0  0  0  0  0  0  0  0  0  0  0
   -2.4736   -4.0164   -0.4449 H   0  0  0  0  0  0  0  0  0  0  0  0
    0.8719   -3.2541    0.5496 H   0  0  0  0  0  0  0  0  0  0  0  0
    3.7922   -0.2388    2.4590 H   0  0  0  0  0  0  0  0  0  0  0  0
    5.4463    1.4987    2.3034 H   0  0  0  0  0  0  0  0  0  0  0  0
    5.8695    2.6757    0.1888 H   0  0  0  0  0  0  0  0  0  0  0  0
    4.5766    2.0537   -1.7781 H   0  0  0  0  0  0  0  0  0  0  0  0
    0.5593    0.9360    0.1172 H   0  0  0  0  0  0  0  0  0  0  0  0
  1  2  1  0
  2  3  1  0
  2  4  1  0
  4  5  1  0
  5  6  2  0
  5  7  1  0
  7  8  1  0
  8  9  2  0
  9 10  1  0
  9 11  1  0
 11 12  2  0
 12 13  1  0
 13 14  1  0
 14 15  2  0
 15 16  1  0
 16 17  2  0
 17 18  1  0
 18 19  2  0
 19 20  1  0
 20 21  3  0
 12 22  1  0
 22 23  2  0
 23  2  1  0
 23  8  1  0
 19 14  1  0
  1 24  1  0
  1 25  1  0
  1 26  1  0
  3 27  1  0
  3 28  1  0
  3 29  1  0
  4 30  1  0
  4 31  1  0
  7 32  1  0
 10 33  1  0
 10 34  1  0
 10 35  1  0
 11 36  1  0
 15 37  1  0
 16 38  1  0
 17 39  1  0
 18 40  1  0
 22 41  1  0
M  END
$$$$
[H]O[C@@]1([H])C([H])([H])C([H])([H])[C@]2(C([H])([H])[H])[C@@]3([H])C([H])([H])C([H])([H])[C@]4(C([H])([H])[H])[C@@]([H])(O[H])C([H])([H])C([H])([H])[C@@]4([H])[C@]3([H])C([H])([H])[C@]2([H])C1([H])[H]
     RDKit          3D

 50 53  0  0  0  0  0  0  0  0999 V2000
    2.7285   -0.0962    1.4644 C   0  0  0  0  0  0  0  0  0  0  0  0
    2.5392    0.5596    0.1266 C   0  0  2  0  0  0  0  0  0  0  0  0
    1.8536    1.8779    0.1866 C   0  0  0  0  0  0  0  0  0  0  0  0
    0.4466    1.7165    0.7279 C   0  0  0  0  0  0  0  0  0  0  0  0
   -0.2927    0.7559   -0.1015 C   0  0  1  0  0  0  0  0  0  0  0  0
    0.4481   -0.5922   -0.0727 C   0  0  1  0  0  0  0  0  0  0  0  0
   -0.5423   -1.4698   -0.7387 C   0  0  0  0  0  0  0  0  0  0  0  0
   -1.8581   -1.0044   -0.0985 C   0  0  2  0  0  0  0  0  0  0  0  0
   -2.9284   -1.2662   -1.1153 C   0  0  0  0  0  0  0  0  0  0  0  0
   -4.2281   -0.6863   -0.6078 C   0  0  1  0  0  0  0  0  0  0  0  0
   -4.5098   -1.2608    0.6250 O   0  0  0  0  0  0  0  0  0  0  0  0
   -4.0535    0.8075   -0.5241 C   0  0  0  0  0  0  0  0  0  0  0  0
   -2.6340    1.2562   -0.6337 C   0  0  0  0  0  0  0  0  0  0  0  0
   -1.6801    0.4505    0.2270 C   0  0  2  0  0  0  0  0  0  0  0  0
   -2.0810    0.6618    1.6604 C   0  0  0  0  0  0  0  0  0  0  0  0
    1.7045   -0.3353   -0.8061 C   0  0  2  0  0  0  0  0  0  0  0  0
    2.5810   -1.4759   -1.0883 C   0  0  0  0  0  0  0  0  0  0  0  0
    3.9891   -0.9337   -0.9300 C   0  0  0  0  0  0  0  0  0  0  0  0
    3.8346    0.5535   -0.6002 C   0  0  2  0  0  0  0  0  0  0  0  0
    4.8884    0.9018    0.2346 O   0  0  0  0  0  0  0  0  0  0  0  0
    2.1560    0.3405    2.2784 H   0  0  0  0  0  0  0  0  0  0  0  0
    2.5727   -1.1925    1.3262 H   0  0  0  0  0  0  0  0  0  0  0  0
    3.8131   -0.0021    1.7546 H   0  0  0  0  0  0  0  0  0  0  0  0
    1.8480    2.3159   -0.8253 H   0  0  0  0  0  0  0  0  0  0  0  0
    2.4407    2.5274    0.8954 H   0  0  0  0  0  0  0  0  0  0  0  0
    0.5346    1.4755    1.7893 H   0  0  0  0  0  0  0  0  0  0  0  0
   -0.0344    2.7304    0.6061 H   0  0  0  0  0  0  0  0  0  0  0  0
   -0.2253    1.0847   -1.1703 H   0  0  0  0  0  0  0  0  0  0  0  0
    0.5847   -0.8901    0.9839 H   0  0  0  0  0  0  0  0  0  0  0  0
   -0.5684   -1.2948   -1.8304 H   0  0  0  0  0  0  0  0  0  0  0  0
   -0.4174   -2.5210   -0.4595 H   0  0  0  0  0  0  0  0  0  0  0  0
   -2.0345   -1.6066    0.8197 H   0  0  0  0  0  0  0  0  0  0  0  0
   -3.0125   -2.3641   -1.2340 H   0  0  0  0  0  0  0  0  0  0  0  0
   -2.6224   -0.8451   -2.0842 H   0  0  0  0  0  0  0  0  0  0  0  0
   -5.0248   -0.9979   -1.3011 H   0  0  0  0  0  0  0  0  0  0  0  0
   -4.1157   -2.1717    0.6372 H   0  0  0  0  0  0  0  0  0  0  0  0
   -4.5965    1.2308   -1.4203 H   0  0  0  0  0  0  0  0  0  0  0  0
   -4.5957    1.2232    0.3511 H   0  0  0  0  0  0  0  0  0  0  0  0
   -2.5940    2.3327   -0.3965 H   0  0  0  0  0  0  0  0  0  0  0  0
   -2.3477    1.1784   -1.7182 H   0  0  0  0  0  0  0  0  0  0  0  0
   -1.4570    1.3594    2.2129 H   0  0  0  0  0  0  0  0  0  0  0  0
   -2.0747   -0.3107    2.2344 H   0  0  0  0  0  0  0  0  0  0  0  0
   -3.1380    1.0262    1.7640 H   0  0  0  0  0  0  0  0  0  0  0  0
    1.5043    0.2989   -1.6993 H   0  0  0  0  0  0  0  0  0  0  0  0
    2.4771   -1.7478   -2.1777 H   0  0  0  0  0  0  0  0  0  0  0  0
    2.4037   -2.3850   -0.4971 H   0  0  0  0  0  0  0  0  0  0  0  0
    4.4136   -1.4232   -0.0165 H   0  0  0  0  0  0  0  0  0  0  0  0
    4.6052   -1.0899   -1.8225 H   0  0  0  0  0  0  0  0  0  0  0  0
    3.8224    1.1524   -1.5394 H   0  0  0  0  0  0  0  0  0  0  0  0
    5.4773    0.1455    0.4670 H   0  0  0  0  0  0  0  0  0  0  0  0
  2  1  1  1
  2  3  1  0
  3  4  1  0
  4  5  1  0
  5  6  1  0
  6  7  1  0
  7  8  1  0
  8  9  1  0
  9 10  1  0
 10 11  1  0
 10 12  1  0
 12 13  1  0
 13 14  1  0
 14 15  1  1
  6 16  1  0
 16 17  1  0
 17 18  1  0
 18 19  1  0
 19 20  1  0
 16  2  1  0
 19  2  1  0
 14  5  1  0
 14  8  1  0
  1 21  1  0
  1 22  1  0
  1 23  1  0
  3 24  1  0
  3 25  1  0
  4 26  1  0
  4 27  1  0
  5 28  1  6
  6 29  1  1
  7 30  1  0
  7 31  1  0
  8 32  1  1
  9 33  1  0
  9 34  1  0
 10 35  1  6
 11 36  1  0
 12 37  1  0
 12 38  1  0
 13 39  1  0
 13 40  1  0
 15 41  1  0
 15 42  1  0
 15 43  1  0
 16 44  1  6
 17 45  1  0
 17 46  1  0
 18 47  1  0
 18 48  1  0
 19 49  1  6
 20 50  1  0
M  END
$$$$
[H]c1nc2c([H])c([H])c(C(=NN([H])C(=O)N([H])[H])C([H])([H])[H])nn2c1-c1c([H])c([H])c(C#N)c([H])c1[H]
     RDKit          3D

 37 39  0  0  0  0  0  0  0  0999 V2000
   -1.4998    1.4563    1.7812 C   0  0  0  0  0  0  0  0  0  0  0  0
   -2.1806    0.1713    1.2952 C   0  0  0  0  0  0  0  0  0  0  0  0
   -3.3591   -0.0227    1.6963 N   0  0  0  0  0  0  0  0  0  0  0  0
   -4.2984   -0.9801    1.5247 N   0  0  0  0  0  0  0  0  0  0  0  0
   -5.4807   -0.7725    0.7258 C   0  0  0  0  0  0  0  0  0  0  0  0
   -6.4594   -1.7873    0.5541 N   0  0  0  0  0  0  0  0  0  0  0  0
   -5.6093    0.3513    0.1846 O   0  0  0  0  0  0  0  0  0  0  0  0
   -1.3713   -0.6682    0.4250 C   0  0  0  0  0  0  0  0  0  0  0  0
   -1.8032   -1.8435   -0.1001 C   0  0  0  0  0  0  0  0  0  0  0  0
   -0.9047   -2.5388   -0.9228 C   0  0  0  0  0  0  0  0  0  0  0  0
    0.3401   -2.0664   -1.1871 C   0  0  0  0  0  0  0  0  0  0  0  0
    1.3325   -2.5730   -1.9363 N   0  0  0  0  0  0  0  0  0  0  0  0
    2.3796   -1.7481   -1.8979 C   0  0  0  0  0  0  0  0  0  0  0  0
    1.9920   -0.6831   -1.0765 C   0  0  0  0  0  0  0  0  0  0  0  0
    2.8449    0.4444   -0.7674 C   0  0  0  0  0  0  0  0  0  0  0  0
    2.4608    1.4816    0.0337 C   0  0  0  0  0  0  0  0  0  0  0  0
    3.3190    2.5557    0.3083 C   0  0  0  0  0  0  0  0  0  0  0  0
    4.5765    2.5537   -0.2486 C   0  0  0  0  0  0  0  0  0  0  0  0
    5.0125    1.5291   -1.0650 C   0  0  0  0  0  0  0  0  0  0  0  0
    4.1347    0.5032   -1.3016 C   0  0  0  0  0  0  0  0  0  0  0  0
    5.4779    3.6617    0.0276 C   0  0  0  0  0  0  0  0  0  0  0  0
    6.1899    4.5487    0.2409 N   0  0  0  0  0  0  0  0  0  0  0  0
    0.7384   -0.8837   -0.6426 N   0  0  0  0  0  0  0  0  0  0  0  0
   -0.1175   -0.2474    0.1253 N   0  0  0  0  0  0  0  0  0  0  0  0
   -0.4262    1.2761    1.8958 H   0  0  0  0  0  0  0  0  0  0  0  0
   -1.7624    2.2056    1.0098 H   0  0  0  0  0  0  0  0  0  0  0  0
   -1.9548    1.7575    2.7279 H   0  0  0  0  0  0  0  0  0  0  0  0
   -4.2282   -1.9485    1.9683 H   0  0  0  0  0  0  0  0  0  0  0  0
   -6.5137   -2.5281    1.2758 H   0  0  0  0  0  0  0  0  0  0  0  0
   -7.0815   -1.7503   -0.2836 H   0  0  0  0  0  0  0  0  0  0  0  0
   -2.7657   -2.2252    0.0944 H   0  0  0  0  0  0  0  0  0  0  0  0
   -1.2788   -3.4882   -1.3357 H   0  0  0  0  0  0  0  0  0  0  0  0
    3.3365   -1.8943   -2.4116 H   0  0  0  0  0  0  0  0  0  0  0  0
    1.5015    1.5481    0.4978 H   0  0  0  0  0  0  0  0  0  0  0  0
    3.0050    3.3767    0.9469 H   0  0  0  0  0  0  0  0  0  0  0  0
    6.0105    1.5345   -1.5028 H   0  0  0  0  0  0  0  0  0  0  0  0
    4.4431   -0.3057   -1.9303 H   0  0  0  0  0  0  0  0  0  0  0  0
  1  2  1  0
  2  3  2  3
  3  4  1  0
  4  5  1  0
  5  6  1  0
  5  7  2  0
  2  8  1  0
  8  9  1  0
  9 10  2  0
 10 11  1  0
 11 12  2  0
 12 13  1  0
 13 14  2  0
 14 15  1  0
 15 16  2  0
 16 17  1  0
 17 18  2  0
 18 19  1  0
 19 20  2  0
 18 21  1  0
 21 22  3  0
 14 23  1  0
 23 24  1  0
 24  8  2  0
 23 11  1  0
 20 15  1  0
  1 25  1  0
  1 26  1  0
  1 27  1  0
  4 28  1  0
  6 29  1  0
  6 30  1  0
  9 31  1  0
 10 32  1  0
 13 33  1  0
 16 34  1  0
 17 35  1  0
 19 36  1  0
 20 37  1  0
M  END
$$$$
[H]c1c([H])c([H])c(-c2c([H])c([H])c([H])c([H])c2C([H])([H])N([H])C(=O)c2c([H])c([H])c([H])c([H])c2[N+](=O)[O-])c([H])c1[H]
     RDKit          3D

 41 43  0  0  0  0  0  0  0  0999 V2000
    4.8981   -1.7391   -2.3513 O   0  0  0  0  0  0  0  0  0  0  0  0
    3.9001   -1.4143   -1.4268 N   0  0  0  0  0  0  0  0  0  0  0  0
    2.9134   -2.1158   -1.2736 O   0  0  0  0  0  0  0  0  0  0  0  0
    4.1415   -0.2269   -0.6652 C   0  0  0  0  0  0  0  0  0  0  0  0
    5.4819    0.0670   -0.3509 C   0  0  0  0  0  0  0  0  0  0  0  0
    5.8428    1.1670    0.3596 C   0  0  0  0  0  0  0  0  0  0  0  0
    4.8823    2.0430    0.8008 C   0  0  0  0  0  0  0  0  0  0  0  0
    3.5746    1.7640    0.4985 C   0  0  0  0  0  0  0  0  0  0  0  0
    3.1843    0.6356   -0.2330 C   0  0  0  0  0  0  0  0  0  0  0  0
    1.7699    0.4866   -0.4950 C   0  0  0  0  0  0  0  0  0  0  0  0
    1.2665    0.0764   -1.5574 O   0  0  0  0  0  0  0  0  0  0  0  0
    0.8556    0.8460    0.5568 N   0  0  0  0  0  0  0  0  0  0  0  0
   -0.5614    0.7368    0.3776 C   0  0  0  0  0  0  0  0  0  0  0  0
   -0.9947   -0.6762    0.3274 C   0  0  0  0  0  0  0  0  0  0  0  0
   -0.1458   -1.7103    0.5549 C   0  0  0  0  0  0  0  0  0  0  0  0
   -0.5229   -3.0541    0.5407 C   0  0  0  0  0  0  0  0  0  0  0  0
   -1.8327   -3.3777    0.2832 C   0  0  0  0  0  0  0  0  0  0  0  0
   -2.6995   -2.3298    0.0525 C   0  0  0  0  0  0  0  0  0  0  0  0
   -2.3257   -1.0073    0.0670 C   0  0  0  0  0  0  0  0  0  0  0  0
   -3.3194    0.0116   -0.1662 C   0  0  0  0  0  0  0  0  0  0  0  0
   -3.9822    0.0766   -1.3939 C   0  0  0  0  0  0  0  0  0  0  0  0
   -4.9425    1.0187   -1.6069 C   0  0  0  0  0  0  0  0  0  0  0  0
   -5.3083    1.9451   -0.6401 C   0  0  0  0  0  0  0  0  0  0  0  0
   -4.6394    1.8574    0.5595 C   0  0  0  0  0  0  0  0  0  0  0  0
   -3.6646    0.9124    0.7980 C   0  0  0  0  0  0  0  0  0  0  0  0
    6.2289   -0.6247   -0.7002 H   0  0  0  0  0  0  0  0  0  0  0  0
    6.8991    1.3877    0.6004 H   0  0  0  0  0  0  0  0  0  0  0  0
    5.1336    2.9215    1.3648 H   0  0  0  0  0  0  0  0  0  0  0  0
    2.7925    2.4502    0.8408 H   0  0  0  0  0  0  0  0  0  0  0  0
    1.2772    1.1861    1.4472 H   0  0  0  0  0  0  0  0  0  0  0  0
   -0.8998    1.2118   -0.5864 H   0  0  0  0  0  0  0  0  0  0  0  0
   -1.0158    1.2935    1.2345 H   0  0  0  0  0  0  0  0  0  0  0  0
    0.9162   -1.5365    0.7899 H   0  0  0  0  0  0  0  0  0  0  0  0
    0.1710   -3.8559    0.7234 H   0  0  0  0  0  0  0  0  0  0  0  0
   -2.1705   -4.4067    0.2625 H   0  0  0  0  0  0  0  0  0  0  0  0
   -3.7314   -2.6208   -0.1482 H   0  0  0  0  0  0  0  0  0  0  0  0
   -3.7175   -0.6367   -2.1726 H   0  0  0  0  0  0  0  0  0  0  0  0
   -5.4747    1.0943   -2.5518 H   0  0  0  0  0  0  0  0  0  0  0  0
   -6.0826    2.6895   -0.8403 H   0  0  0  0  0  0  0  0  0  0  0  0
   -4.9001    2.5621    1.3295 H   0  0  0  0  0  0  0  0  0  0  0  0
   -3.1979    0.8922    1.7721 H   0  0  0  0  0  0  0  0  0  0  0  0
  1  2  1  0
  2  3  2  0
  2  4  1  0
  4  5  2  0
  5  6  1  0
  6  7  2  0
  7  8  1  0
  8  9  2  0
  9 10  1  0
 10 11  2  0
 10 12  1  0
 12 13  1  0
 13 14  1  0
 14 15  2  0
 15 16  1  0
 16 17  2  0
 17 18  1  0
 18 19  2  0
 19 20  1  0
 20 21  2  0
 21 22  1  0
 22 23  2  0
 23 24  1  0
 24 25  2  0
  9  4  1  0
 19 14  1  0
 25 20  1  0
  5 26  1  0
  6 27  1  0
  7 28  1  0
  8 29  1  0
 12 30  1  0
 13 31  1  0
 13 32  1  0
 15 33  1  0
 16 34  1  0
 17 35  1  0
 18 36  1  0
 21 37  1  0
 22 38  1  0
 23 39  1  0
 24 40  1  0
 25 41  1  0
M  CHG  2   1  -1   2   1
M  END
$$$$
[H]c1c([H])c(OC([H])([H])C([H])([H])N2C([H])([H])C([H])([H])C([H])([H])C2([H])[H])c([H])c([H])c1Oc1c([H])c([H])c(-c2nc3c(Cl)c([H])c([H])c([H])c3o2)c([H])c1[H]
     RDKit          3D

 54 58  0  0  0  0  0  0  0  0999 V2000
    9.3376   -0.9430    1.6250 Cl  0  0  0  0  0  0  0  0  0  0  0  0
    8.8770    0.2574    0.4372 C   0  0  0  0  0  0  0  0  0  0  0  0
    9.8010    1.2055    0.0703 C   0  0  0  0  0  0  0  0  0  0  0  0
    9.4032    2.1393   -0.8716 C   0  0  0  0  0  0  0  0  0  0  0  0
    8.1328    2.1071   -1.4091 C   0  0  0  0  0  0  0  0  0  0  0  0
    7.2117    1.1526   -1.0356 C   0  0  0  0  0  0  0  0  0  0  0  0
    5.9621    0.8842   -1.3703 O   0  0  0  0  0  0  0  0  0  0  0  0
    5.5180   -0.1580   -0.7134 C   0  0  0  0  0  0  0  0  0  0  0  0
    6.5212   -0.5762    0.0747 N   0  0  0  0  0  0  0  0  0  0  0  0
    7.6025    0.2082   -0.0882 C   0  0  0  0  0  0  0  0  0  0  0  0
    4.1658   -0.7553   -0.8240 C   0  0  0  0  0  0  0  0  0  0  0  0
    3.2330   -0.2095   -1.6848 C   0  0  0  0  0  0  0  0  0  0  0  0
    1.9592   -0.7833   -1.7805 C   0  0  0  0  0  0  0  0  0  0  0  0
    1.6268   -1.8838   -1.0272 C   0  0  0  0  0  0  0  0  0  0  0  0
    0.3799   -2.4721   -1.0991 O   0  0  0  0  0  0  0  0  0  0  0  0
   -0.5983   -1.9895   -0.2167 C   0  0  0  0  0  0  0  0  0  0  0  0
   -0.7659   -2.5382    1.0333 C   0  0  0  0  0  0  0  0  0  0  0  0
   -1.7283   -2.0514    1.8790 C   0  0  0  0  0  0  0  0  0  0  0  0
   -2.5887   -0.9888    1.5427 C   0  0  0  0  0  0  0  0  0  0  0  0
   -3.5033   -0.5906    2.4695 O   0  0  0  0  0  0  0  0  0  0  0  0
   -4.4557    0.3960    2.3118 C   0  0  0  0  0  0  0  0  0  0  0  0
   -5.4794    0.0311    1.2923 C   0  0  0  0  0  0  0  0  0  0  0  0
   -6.4806    1.0717    1.1073 N   0  0  0  0  0  0  0  0  0  0  0  0
   -7.4018    0.5578    0.0969 C   0  0  0  0  0  0  0  0  0  0  0  0
   -6.9007    1.1705   -1.1936 C   0  0  0  0  0  0  0  0  0  0  0  0
   -6.5725    2.5826   -0.7295 C   0  0  0  0  0  0  0  0  0  0  0  0
   -5.9541    2.3057    0.6206 C   0  0  0  0  0  0  0  0  0  0  0  0
   -2.4047   -0.4537    0.2911 C   0  0  0  0  0  0  0  0  0  0  0  0
   -1.4210   -0.9495   -0.5780 C   0  0  0  0  0  0  0  0  0  0  0  0
    2.5750   -2.4038   -0.1806 C   0  0  0  0  0  0  0  0  0  0  0  0
    3.8225   -1.8515   -0.0791 C   0  0  0  0  0  0  0  0  0  0  0  0
   10.8059    1.2738    0.4604 H   0  0  0  0  0  0  0  0  0  0  0  0
   10.1235    2.9021   -1.1770 H   0  0  0  0  0  0  0  0  0  0  0  0
    7.8637    2.8532   -2.1400 H   0  0  0  0  0  0  0  0  0  0  0  0
    3.4852    0.6472   -2.2740 H   0  0  0  0  0  0  0  0  0  0  0  0
    1.2250   -0.3646   -2.4492 H   0  0  0  0  0  0  0  0  0  0  0  0
   -0.1164   -3.3661    1.3318 H   0  0  0  0  0  0  0  0  0  0  0  0
   -1.8685   -2.4790    2.8699 H   0  0  0  0  0  0  0  0  0  0  0  0
   -4.9129    0.7107    3.2821 H   0  0  0  0  0  0  0  0  0  0  0  0
   -3.8933    1.3177    1.9508 H   0  0  0  0  0  0  0  0  0  0  0  0
   -5.0842   -0.2320    0.3140 H   0  0  0  0  0  0  0  0  0  0  0  0
   -6.0908   -0.8409    1.7181 H   0  0  0  0  0  0  0  0  0  0  0  0
   -7.3470   -0.5505    0.0190 H   0  0  0  0  0  0  0  0  0  0  0  0
   -8.4364    0.8858    0.2626 H   0  0  0  0  0  0  0  0  0  0  0  0
   -7.7161    1.1605   -1.9230 H   0  0  0  0  0  0  0  0  0  0  0  0
   -5.9958    0.6280   -1.4926 H   0  0  0  0  0  0  0  0  0  0  0  0
   -7.5006    3.1489   -0.5816 H   0  0  0  0  0  0  0  0  0  0  0  0
   -5.8513    3.0480   -1.4114 H   0  0  0  0  0  0  0  0  0  0  0  0
   -6.2394    3.1031    1.3638 H   0  0  0  0  0  0  0  0  0  0  0  0
   -4.8732    2.3591    0.5049 H   0  0  0  0  0  0  0  0  0  0  0  0
   -2.9983    0.3842   -0.0401 H   0  0  0  0  0  0  0  0  0  0  0  0
   -1.3114   -0.4931   -1.5650 H   0  0  0  0  0  0  0  0  0  0  0  0
    2.3127   -3.2767    0.4175 H   0  0  0  0  0  0  0  0  0  0  0  0
    4.5454   -2.2762    0.5892 H   0  0  0  0  0  0  0  0  0  0  0  0
  1  2  1  0
  2  3  2  0
  3  4  1  0
  4  5  2  0
  5  6  1  0
  6  7  1  0
  7  8  1  0
  8  9  2  0
  9 10  1  0
  8 11  1  0
 11 12  2  0
 12 13  1  0
 13 14  2  0
 14 15  1  0
 15 16  1  0
 16 17  2  0
 17 18  1  0
 18 19  2  0
 19 20  1  0
 20 21  1  0
 21 22  1  0
 22 23  1  0
 23 24  1  0
 24 25  1  0
 25 26  1  0
 26 27  1  0
 19 28  1  0
 28 29  2  0
 14 30  1  0
 30 31  2  0
 10  2  1  0
 31 11  1  0
 10  6  2  0
 29 16  1  0
 27 23  1  0
  3 32  1  0
  4 33  1  0
  5 34  1  0
 12 35  1  0
 13 36  1  0
 17 37  1  0
 18 38  1  0
 21 39  1  0
 21 40  1  0
 22 41  1  0
 22 42  1  0
 24 43  1  0
 24 44  1  0
 25 45  1  0
 25 46  1  0
 26 47  1  0
 26 48  1  0
 27 49  1  0
 27 50  1  0
 28 51  1  0
 29 52  1  0
 30 53  1  0
 31 54  1  0
M  END
$$$$
