[H]OC([H])([H])[C@@]1(O[H])C([H])([H])[C@@]2([H])O[C@]1(C([H])([H])[H])n1c3c([H])c([H])c([H])c([H])c3c3c4c(c5c6c([H])c([H])c([H])c([H])c6n2c5c31)C(=O)N([H])C4([H])[H]
     RDKit          3D

 54 61  0  0  0  0  0  0  0  0999 V2000
    3.1800    0.8838    1.3878 C   0  0  0  0  0  0  0  0  0  0  0  0
    2.1176    0.2237    0.5774 C   0  0  2  0  0  0  0  0  0  0  0  0
    1.6968   -0.7870    1.4854 O   0  0  0  0  0  0  0  0  0  0  0  0
    1.2511   -1.8639    0.7986 C   0  0  2  0  0  0  0  0  0  0  0  0
    2.0328   -1.9517   -0.4419 C   0  0  0  0  0  0  0  0  0  0  0  0
    2.6347   -0.5714   -0.5849 C   0  0  1  0  0  0  0  0  0  0  0  0
    2.2138   -0.0799   -1.8115 O   0  0  0  0  0  0  0  0  0  0  0  0
    4.1191   -0.7109   -0.6110 C   0  0  0  0  0  0  0  0  0  0  0  0
    4.4589   -1.5975   -1.6334 O   0  0  0  0  0  0  0  0  0  0  0  0
   -0.2014   -1.7853    0.5955 N   0  0  0  0  0  0  0  0  0  0  0  0
   -1.1044   -2.7499    0.6347 C   0  0  0  0  0  0  0  0  0  0  0  0
   -0.9179   -4.0868    0.8734 C   0  0  0  0  0  0  0  0  0  0  0  0
   -2.0299   -4.9199    0.8648 C   0  0  0  0  0  0  0  0  0  0  0  0
   -3.2823   -4.4161    0.6235 C   0  0  0  0  0  0  0  0  0  0  0  0
   -3.4758   -3.0511    0.3794 C   0  0  0  0  0  0  0  0  0  0  0  0
   -2.3768   -2.2421    0.3902 C   0  0  0  0  0  0  0  0  0  0  0  0
   -2.2053   -0.8905    0.1945 C   0  0  0  0  0  0  0  0  0  0  0  0
   -3.0670    0.1511   -0.0975 C   0  0  0  0  0  0  0  0  0  0  0  0
   -4.5001    0.2660   -0.2996 C   0  0  0  0  0  0  0  0  0  0  0  0
   -5.3884   -0.5871   -0.2658 O   0  0  0  0  0  0  0  0  0  0  0  0
   -4.7851    1.6416   -0.5724 N   0  0  0  0  0  0  0  0  0  0  0  0
   -3.5735    2.4248   -0.5610 C   0  0  0  0  0  0  0  0  0  0  0  0
   -2.5314    1.4168   -0.2472 C   0  0  0  0  0  0  0  0  0  0  0  0
   -1.1701    1.6669   -0.1133 C   0  0  0  0  0  0  0  0  0  0  0  0
   -0.3770    2.7657   -0.2198 C   0  0  0  0  0  0  0  0  0  0  0  0
   -0.7006    4.0705   -0.5126 C   0  0  0  0  0  0  0  0  0  0  0  0
    0.3203    5.0230   -0.5829 C   0  0  0  0  0  0  0  0  0  0  0  0
    1.6233    4.6180   -0.3553 C   0  0  0  0  0  0  0  0  0  0  0  0
    1.9232    3.2989   -0.0625 C   0  0  0  0  0  0  0  0  0  0  0  0
    0.9354    2.3466    0.0129 C   0  0  0  0  0  0  0  0  0  0  0  0
    0.9590    1.0103    0.2643 N   0  0  0  0  0  0  0  0  0  0  0  0
   -0.3578    0.6223    0.1746 C   0  0  0  0  0  0  0  0  0  0  0  0
   -0.8544   -0.6533    0.3299 C   0  0  0  0  0  0  0  0  0  0  0  0
    4.0624    1.2462    0.8471 H   0  0  0  0  0  0  0  0  0  0  0  0
    3.5596    0.1949    2.1815 H   0  0  0  0  0  0  0  0  0  0  0  0
    2.7312    1.7230    1.9466 H   0  0  0  0  0  0  0  0  0  0  0  0
    1.4219   -2.7643    1.4120 H   0  0  0  0  0  0  0  0  0  0  0  0
    1.4720   -2.2700   -1.3403 H   0  0  0  0  0  0  0  0  0  0  0  0
    2.8377   -2.7359   -0.3258 H   0  0  0  0  0  0  0  0  0  0  0  0
    2.8799   -0.3390   -2.4928 H   0  0  0  0  0  0  0  0  0  0  0  0
    4.5238   -1.1579    0.3296 H   0  0  0  0  0  0  0  0  0  0  0  0
    4.6358    0.2581   -0.8438 H   0  0  0  0  0  0  0  0  0  0  0  0
    4.7979   -2.4633   -1.2908 H   0  0  0  0  0  0  0  0  0  0  0  0
    0.0592   -4.4684    1.0598 H   0  0  0  0  0  0  0  0  0  0  0  0
   -1.8569   -5.9719    1.0560 H   0  0  0  0  0  0  0  0  0  0  0  0
   -4.1224   -5.0759    0.6219 H   0  0  0  0  0  0  0  0  0  0  0  0
   -4.4721   -2.7398    0.2018 H   0  0  0  0  0  0  0  0  0  0  0  0
   -5.7336    2.0654   -0.7610 H   0  0  0  0  0  0  0  0  0  0  0  0
   -3.6366    3.2333    0.1993 H   0  0  0  0  0  0  0  0  0  0  0  0
   -3.3846    2.8954   -1.5673 H   0  0  0  0  0  0  0  0  0  0  0  0
   -1.7294    4.3700   -0.6881 H   0  0  0  0  0  0  0  0  0  0  0  0
    0.0587    6.0490   -0.8135 H   0  0  0  0  0  0  0  0  0  0  0  0
    2.3774    5.3965   -0.4223 H   0  0  0  0  0  0  0  0  0  0  0  0
    2.9510    3.0689    0.0761 H   0  0  0  0  0  0  0  0  0  0  0  0
  2  1  1  1
  2  3  1  0
  3  4  1  0
  4  5  1  0
  5  6  1  0
  6  7  1  6
  6  8  1  0
  8  9  1  0
  4 10  1  0
 10 11  1  0
 11 12  2  0
 12 13  1  0
 13 14  2  0
 14 15  1  0
 15 16  2  0
 16 17  1  0
 17 18  2  0
 18 19  1  0
 19 20  2  0
 19 21  1  0
 21 22  1  0
 22 23  1  0
 23 24  2  0
 24 25  1  0
 25 26  2  0
 26 27  1  0
 27 28  2  0
 28 29  1  0
 29 30  2  0
 30 31  1  0
 31 32  1  0
 32 33  2  0
  6  2  1  0
 33 10  1  0
 31  2  1  0
 16 11  1  0
 33 17  1  0
 23 18  1  0
 32 24  1  0
 30 25  1  0
  1 34  1  0
  1 35  1  0
  1 36  1  0
  4 37  1  1
  5 38  1  0
  5 39  1  0
  7 40  1  0
  8 41  1  0
  8 42  1  0
  9 43  1  0
 12 44  1  0
 13 45  1  0
 14 46  1  0
 15 47  1  0
 21 48  1  0
 22 49  1  0
 22 50  1  0
 26 51  1  0
 27 52  1  0
 28 53  1  0
 29 54  1  0
M  END
$$$$
[H]c1nc(N([H])c2c([H])c([H])c(N3C([H])([H])C([H])([H])C([H])(N4C([H])([H])C([H])([H])N(C([H])([H])[H])C([H])([H])C4([H])[H])C([H])([H])C3([H])[H])c([H])c2OC([H])([H])[H])nc(N([H])c2c([H])c([H])c([H])c([H])c2S(=O)(=O)C([H])(C([H])([H])[H])C([H])([H])[H])c1Cl
     RDKit          3D

 82 86  0  0  0  0  0  0  0  0999 V2000
   -0.1870    3.7228   -1.2569 C   0  0  0  0  0  0  0  0  0  0  0  0
    0.4390    2.5297   -0.8437 O   0  0  0  0  0  0  0  0  0  0  0  0
   -0.3483    1.4775   -0.4024 C   0  0  0  0  0  0  0  0  0  0  0  0
   -1.7220    1.6350   -0.3827 C   0  0  0  0  0  0  0  0  0  0  0  0
   -2.5624    0.6308    0.0436 C   0  0  0  0  0  0  0  0  0  0  0  0
   -1.9599   -0.5357    0.4478 C   0  0  0  0  0  0  0  0  0  0  0  0
   -0.5748   -0.7280    0.4408 C   0  0  0  0  0  0  0  0  0  0  0  0
    0.2576    0.2764    0.0150 C   0  0  0  0  0  0  0  0  0  0  0  0
    1.6540    0.2011   -0.0367 N   0  0  0  0  0  0  0  0  0  0  0  0
    2.4984   -0.8842    0.3177 C   0  0  0  0  0  0  0  0  0  0  0  0
    2.1033   -2.0726    0.7812 N   0  0  0  0  0  0  0  0  0  0  0  0
    2.9559   -3.0558    1.0957 C   0  0  0  0  0  0  0  0  0  0  0  0
    4.3092   -2.8632    0.9451 C   0  0  0  0  0  0  0  0  0  0  0  0
    5.4455   -4.1449    1.3534 Cl  0  0  0  0  0  0  0  0  0  0  0  0
    4.7527   -1.6166    0.4572 C   0  0  0  0  0  0  0  0  0  0  0  0
    6.1380   -1.4466    0.3110 N   0  0  0  0  0  0  0  0  0  0  0  0
    6.9009   -0.3576   -0.1368 C   0  0  0  0  0  0  0  0  0  0  0  0
    6.2766    0.8084   -0.5266 C   0  0  0  0  0  0  0  0  0  0  0  0
    7.0240    1.9039   -0.9778 C   0  0  0  0  0  0  0  0  0  0  0  0
    8.3820    1.8034   -1.0274 C   0  0  0  0  0  0  0  0  0  0  0  0
    9.0024    0.6381   -0.6374 C   0  0  0  0  0  0  0  0  0  0  0  0
    8.2961   -0.4485   -0.1920 C   0  0  0  0  0  0  0  0  0  0  0  0
    9.0842   -1.8926    0.2913 S   0  0  0  0  0  0  0  0  0  0  0  0
    8.6633   -3.0312   -0.6035 O   0  0  0  0  0  0  0  0  0  0  0  0
    8.8235   -2.3045    1.7132 O   0  0  0  0  0  0  0  0  0  0  0  0
   10.8572   -1.7881    0.1370 C   0  0  0  0  0  0  0  0  0  0  0  0
   11.2609   -1.6791   -1.2975 C   0  0  0  0  0  0  0  0  0  0  0  0
   11.4760   -0.7869    1.0544 C   0  0  0  0  0  0  0  0  0  0  0  0
    3.8248   -0.7008    0.1721 N   0  0  0  0  0  0  0  0  0  0  0  0
   -3.9818    0.8060    0.0512 N   0  0  0  0  0  0  0  0  0  0  0  0
   -4.5241    1.9609   -0.5784 C   0  0  0  0  0  0  0  0  0  0  0  0
   -6.0011    1.9283   -0.8544 C   0  0  0  0  0  0  0  0  0  0  0  0
   -6.8245    1.3726    0.2584 C   0  0  0  0  0  0  0  0  0  0  0  0
   -6.0036    0.6088    1.2781 C   0  0  0  0  0  0  0  0  0  0  0  0
   -4.8657   -0.1463    0.6796 C   0  0  0  0  0  0  0  0  0  0  0  0
   -7.9560    0.6086   -0.0875 N   0  0  0  0  0  0  0  0  0  0  0  0
   -7.7905   -0.5856   -0.8057 C   0  0  0  0  0  0  0  0  0  0  0  0
   -9.1362   -1.0235   -1.3907 C   0  0  0  0  0  0  0  0  0  0  0  0
  -10.1390   -0.8718   -0.3544 N   0  0  0  0  0  0  0  0  0  0  0  0
  -10.0361   -1.8235    0.7053 C   0  0  0  0  0  0  0  0  0  0  0  0
  -10.3349    0.4834    0.0484 C   0  0  0  0  0  0  0  0  0  0  0  0
   -9.1475    1.3193   -0.4248 C   0  0  0  0  0  0  0  0  0  0  0  0
    0.5375    4.4499   -1.6799 H   0  0  0  0  0  0  0  0  0  0  0  0
   -0.9481    3.5330   -2.0530 H   0  0  0  0  0  0  0  0  0  0  0  0
   -0.6880    4.2523   -0.4156 H   0  0  0  0  0  0  0  0  0  0  0  0
   -2.1476    2.5764   -0.7105 H   0  0  0  0  0  0  0  0  0  0  0  0
   -2.6020   -1.3517    0.7883 H   0  0  0  0  0  0  0  0  0  0  0  0
   -0.2121   -1.6859    0.7807 H   0  0  0  0  0  0  0  0  0  0  0  0
    2.1500    1.0935   -0.3956 H   0  0  0  0  0  0  0  0  0  0  0  0
    2.6174   -4.0222    1.4737 H   0  0  0  0  0  0  0  0  0  0  0  0
    6.7215   -2.3022    0.5911 H   0  0  0  0  0  0  0  0  0  0  0  0
    5.2202    0.9989   -0.5296 H   0  0  0  0  0  0  0  0  0  0  0  0
    6.5603    2.8305   -1.2896 H   0  0  0  0  0  0  0  0  0  0  0  0
    9.0220    2.6252   -1.3712 H   0  0  0  0  0  0  0  0  0  0  0  0
   10.0936    0.6299   -0.7052 H   0  0  0  0  0  0  0  0  0  0  0  0
   11.2252   -2.8031    0.4806 H   0  0  0  0  0  0  0  0  0  0  0  0
   11.9033   -0.7785   -1.4926 H   0  0  0  0  0  0  0  0  0  0  0  0
   10.3307   -1.5514   -1.9199 H   0  0  0  0  0  0  0  0  0  0  0  0
   11.7765   -2.5763   -1.6995 H   0  0  0  0  0  0  0  0  0  0  0  0
   12.0225   -1.2557    1.8769 H   0  0  0  0  0  0  0  0  0  0  0  0
   12.1781   -0.1622    0.4319 H   0  0  0  0  0  0  0  0  0  0  0  0
   10.7434   -0.0899    1.5079 H   0  0  0  0  0  0  0  0  0  0  0  0
   -4.2803    2.8410    0.0525 H   0  0  0  0  0  0  0  0  0  0  0  0
   -3.9354    2.1199   -1.5269 H   0  0  0  0  0  0  0  0  0  0  0  0
   -6.3084    2.9635   -1.1164 H   0  0  0  0  0  0  0  0  0  0  0  0
   -6.1470    1.3325   -1.7818 H   0  0  0  0  0  0  0  0  0  0  0  0
   -7.2139    2.2642    0.8421 H   0  0  0  0  0  0  0  0  0  0  0  0
   -6.6586   -0.1075    1.8153 H   0  0  0  0  0  0  0  0  0  0  0  0
   -5.5929    1.2907    2.0626 H   0  0  0  0  0  0  0  0  0  0  0  0
   -5.1731   -0.8869   -0.0780 H   0  0  0  0  0  0  0  0  0  0  0  0
   -4.3121   -0.6097    1.5260 H   0  0  0  0  0  0  0  0  0  0  0  0
   -7.5080   -1.4012   -0.0997 H   0  0  0  0  0  0  0  0  0  0  0  0
   -7.0082   -0.5774   -1.5870 H   0  0  0  0  0  0  0  0  0  0  0  0
   -9.4445   -0.3742   -2.2343 H   0  0  0  0  0  0  0  0  0  0  0  0
   -9.0261   -2.0597   -1.7202 H   0  0  0  0  0  0  0  0  0  0  0  0
   -9.1822   -2.5377    0.5321 H   0  0  0  0  0  0  0  0  0  0  0  0
   -9.9814   -1.3564    1.7041 H   0  0  0  0  0  0  0  0  0  0  0  0
  -10.9456   -2.4645    0.6802 H   0  0  0  0  0  0  0  0  0  0  0  0
  -11.2261    0.8855   -0.4545 H   0  0  0  0  0  0  0  0  0  0  0  0
  -10.4517    0.5517    1.1515 H   0  0  0  0  0  0  0  0  0  0  0  0
   -9.2778    1.5186   -1.4917 H   0  0  0  0  0  0  0  0  0  0  0  0
   -9.1611    2.2698    0.1783 H   0  0  0  0  0  0  0  0  0  0  0  0
  1  2  1  0
  2  3  1  0
  3  4  2  0
  4  5  1  0
  5  6  2  0
  6  7  1  0
  7  8  2  0
  8  9  1  0
  9 10  1  0
 10 11  2  0
 11 12  1  0
 12 13  2  0
 13 14  1  0
 13 15  1  0
 15 16  1  0
 16 17  1  0
 17 18  2  0
 18 19  1  0
 19 20  2  0
 20 21  1  0
 21 22  2  0
 22 23  1  0
 23 24  2  0
 23 25  2  0
 23 26  1  0
 26 27  1  0
 26 28  1  0
 15 29  2  0
  5 30  1  0
 30 31  1  0
 31 32  1  0
 32 33  1  0
 33 34  1  0
 34 35  1  0
 33 36  1  0
 36 37  1  0
 37 38  1  0
 38 39  1  0
 39 40  1  0
 39 41  1  0
 41 42  1  0
  8  3  1  0
 29 10  1  0
 35 30  1  0
 42 36  1  0
 22 17  1  0
  1 43  1  0
  1 44  1  0
  1 45  1  0
  4 46  1  0
  6 47  1  0
  7 48  1  0
  9 49  1  0
 12 50  1  0
 16 51  1  0
 18 52  1  0
 19 53  1  0
 20 54  1  0
 21 55  1  0
 26 56  1  0
 27 57  1  0
 27 58  1  0
 27 59  1  0
 28 60  1  0
 28 61  1  0
 28 62  1  0
 31 63  1  0
 31 64  1  0
 32 65  1  0
 32 66  1  0
 33 67  1  0
 34 68  1  0
 34 69  1  0
 35 70  1  0
 35 71  1  0
 37 72  1  0
 37 73  1  0
 38 74  1  0
 38 75  1  0
 40 76  1  0
 40 77  1  0
 40 78  1  0
 41 79  1  0
 41 80  1  0
 42 81  1  0
 42 82  1  0
M  END
$$$$
[H]c1c([H])c([H])c(/C(=C2/C(=O)N([H])c3c([H])c(C(=O)OC([H])([H])[H])c([H])c([H])c32)N([H])c2c([H])c([H])c(N(C(=O)C([H])([H])N3C([H])([H])C([H])([H])N(C([H])([H])[H])C([H])([H])C3([H])[H])C([H])([H])[H])c([H])c2[H])c([H])c1[H]
     RDKit          3D

 73 77  0  0  0  0  0  0  0  0999 V2000
   -9.6259    2.7362   -3.1505 C   0  0  0  0  0  0  0  0  0  0  0  0
   -8.5822    2.1423   -2.4234 O   0  0  0  0  0  0  0  0  0  0  0  0
   -7.8814    1.0256   -2.8716 C   0  0  0  0  0  0  0  0  0  0  0  0
   -8.1814    0.5157   -3.9683 O   0  0  0  0  0  0  0  0  0  0  0  0
   -6.8215    0.5153   -2.0123 C   0  0  0  0  0  0  0  0  0  0  0  0
   -6.4947    1.0717   -0.8140 C   0  0  0  0  0  0  0  0  0  0  0  0
   -5.4728    0.5613   -0.0049 C   0  0  0  0  0  0  0  0  0  0  0  0
   -4.7972   -0.5386   -0.4611 C   0  0  0  0  0  0  0  0  0  0  0  0
   -3.6924   -1.2784    0.1218 C   0  0  0  0  0  0  0  0  0  0  0  0
   -3.1406   -1.1461    1.2984 C   0  0  0  0  0  0  0  0  0  0  0  0
   -2.0489   -2.0001    1.6122 N   0  0  0  0  0  0  0  0  0  0  0  0
   -0.6955   -1.7404    1.2757 C   0  0  0  0  0  0  0  0  0  0  0  0
   -0.3049   -0.6232    0.5755 C   0  0  0  0  0  0  0  0  0  0  0  0
    1.0409   -0.3967    0.2619 C   0  0  0  0  0  0  0  0  0  0  0  0
    1.9996   -1.2983    0.6546 C   0  0  0  0  0  0  0  0  0  0  0  0
    1.6109   -2.4148    1.3542 C   0  0  0  0  0  0  0  0  0  0  0  0
    0.2717   -2.6400    1.6660 C   0  0  0  0  0  0  0  0  0  0  0  0
    3.3997   -1.0553    0.3267 N   0  0  0  0  0  0  0  0  0  0  0  0
    4.2743   -1.0443    1.4779 C   0  0  0  0  0  0  0  0  0  0  0  0
    3.8217   -0.9048   -0.9850 C   0  0  0  0  0  0  0  0  0  0  0  0
    2.8737   -1.1517   -1.8665 O   0  0  0  0  0  0  0  0  0  0  0  0
    5.0990   -0.5334   -1.5790 C   0  0  0  0  0  0  0  0  0  0  0  0
    6.1819   -0.1535   -0.7808 N   0  0  0  0  0  0  0  0  0  0  0  0
    6.1479    1.1188   -0.1443 C   0  0  0  0  0  0  0  0  0  0  0  0
    7.0593    2.1225   -0.8152 C   0  0  0  0  0  0  0  0  0  0  0  0
    8.4000    1.6684   -0.9414 N   0  0  0  0  0  0  0  0  0  0  0  0
    9.2089    2.3796   -1.8600 C   0  0  0  0  0  0  0  0  0  0  0  0
    8.6125    0.2731   -0.8355 C   0  0  0  0  0  0  0  0  0  0  0  0
    7.4754   -0.6243   -1.1164 C   0  0  0  0  0  0  0  0  0  0  0  0
   -3.6419   -0.3131    2.3473 C   0  0  0  0  0  0  0  0  0  0  0  0
   -3.0180    0.7830    2.8957 C   0  0  0  0  0  0  0  0  0  0  0  0
   -3.5184    1.4571    3.9801 C   0  0  0  0  0  0  0  0  0  0  0  0
   -4.6869    1.0413    4.5595 C   0  0  0  0  0  0  0  0  0  0  0  0
   -5.3502   -0.0483    4.0505 C   0  0  0  0  0  0  0  0  0  0  0  0
   -4.8397   -0.7104    2.9694 C   0  0  0  0  0  0  0  0  0  0  0  0
   -3.3759   -2.3505   -0.8690 C   0  0  0  0  0  0  0  0  0  0  0  0
   -2.4929   -3.2072   -0.7677 O   0  0  0  0  0  0  0  0  0  0  0  0
   -4.2699   -2.2220   -1.9626 N   0  0  0  0  0  0  0  0  0  0  0  0
   -5.1182   -1.1186   -1.6868 C   0  0  0  0  0  0  0  0  0  0  0  0
   -6.1305   -0.5894   -2.4585 C   0  0  0  0  0  0  0  0  0  0  0  0
   -9.4840    3.8397   -3.1260 H   0  0  0  0  0  0  0  0  0  0  0  0
  -10.6287    2.4400   -2.7994 H   0  0  0  0  0  0  0  0  0  0  0  0
   -9.5092    2.4513   -4.2231 H   0  0  0  0  0  0  0  0  0  0  0  0
   -7.0554    1.9338   -0.4979 H   0  0  0  0  0  0  0  0  0  0  0  0
   -5.2980    1.1170    0.8877 H   0  0  0  0  0  0  0  0  0  0  0  0
   -2.3225   -2.8839    2.1371 H   0  0  0  0  0  0  0  0  0  0  0  0
   -1.0852    0.0650    0.2820 H   0  0  0  0  0  0  0  0  0  0  0  0
    1.2956    0.4918   -0.2875 H   0  0  0  0  0  0  0  0  0  0  0  0
    2.3988   -3.1019    1.6458 H   0  0  0  0  0  0  0  0  0  0  0  0
   -0.0090   -3.5256    2.2172 H   0  0  0  0  0  0  0  0  0  0  0  0
    4.3098   -0.0784    2.0033 H   0  0  0  0  0  0  0  0  0  0  0  0
    5.2439   -1.4894    1.2146 H   0  0  0  0  0  0  0  0  0  0  0  0
    3.8678   -1.7578    2.2758 H   0  0  0  0  0  0  0  0  0  0  0  0
    4.9292    0.2743   -2.3603 H   0  0  0  0  0  0  0  0  0  0  0  0
    5.4335   -1.4380   -2.1821 H   0  0  0  0  0  0  0  0  0  0  0  0
    6.5430    1.0192    0.8973 H   0  0  0  0  0  0  0  0  0  0  0  0
    5.1051    1.4958   -0.1442 H   0  0  0  0  0  0  0  0  0  0  0  0
    7.0209    3.0816   -0.2641 H   0  0  0  0  0  0  0  0  0  0  0  0
    6.6418    2.3090   -1.8254 H   0  0  0  0  0  0  0  0  0  0  0  0
    9.5515    1.7468   -2.6801 H   0  0  0  0  0  0  0  0  0  0  0  0
    8.6875    3.2979   -2.1848 H   0  0  0  0  0  0  0  0  0  0  0  0
   10.1414    2.7025   -1.3095 H   0  0  0  0  0  0  0  0  0  0  0  0
    9.4640   -0.0087   -1.5031 H   0  0  0  0  0  0  0  0  0  0  0  0
    8.9967    0.0613    0.2048 H   0  0  0  0  0  0  0  0  0  0  0  0
    7.6214   -1.6038   -0.5691 H   0  0  0  0  0  0  0  0  0  0  0  0
    7.4535   -0.9472   -2.2000 H   0  0  0  0  0  0  0  0  0  0  0  0
   -2.1060    1.1196    2.4536 H   0  0  0  0  0  0  0  0  0  0  0  0
   -3.0267    2.3165    4.4077 H   0  0  0  0  0  0  0  0  0  0  0  0
   -5.1025    1.5578    5.4176 H   0  0  0  0  0  0  0  0  0  0  0  0
   -6.2843   -0.3557    4.5382 H   0  0  0  0  0  0  0  0  0  0  0  0
   -5.4043   -1.5664    2.6063 H   0  0  0  0  0  0  0  0  0  0  0  0
   -4.3057   -2.8330   -2.8311 H   0  0  0  0  0  0  0  0  0  0  0  0
   -6.3795   -1.0398   -3.4080 H   0  0  0  0  0  0  0  0  0  0  0  0
  1  2  1  0
  2  3  1  0
  3  4  2  0
  3  5  1  0
  5  6  2  0
  6  7  1  0
  7  8  2  0
  8  9  1  0
  9 10  2  0
 10 11  1  0
 11 12  1  0
 12 13  2  0
 13 14  1  0
 14 15  2  0
 15 16  1  0
 16 17  2  0
 15 18  1  0
 18 19  1  0
 18 20  1  0
 20 21  2  0
 20 22  1  0
 22 23  1  0
 23 24  1  0
 24 25  1  0
 25 26  1  0
 26 27  1  0
 26 28  1  0
 28 29  1  0
 10 30  1  0
 30 31  2  0
 31 32  1  0
 32 33  2  0
 33 34  1  0
 34 35  2  0
  9 36  1  0
 36 37  2  0
 36 38  1  0
 38 39  1  0
 39 40  2  0
 40  5  1  0
 39  8  1  0
 17 12  1  0
 29 23  1  0
 35 30  1  0
  1 41  1  0
  1 42  1  0
  1 43  1  0
  6 44  1  0
  7 45  1  0
 11 46  1  0
 13 47  1  0
 14 48  1  0
 16 49  1  0
 17 50  1  0
 19 51  1  0
 19 52  1  0
 19 53  1  0
 22 54  1  0
 22 55  1  0
 24 56  1  0
 24 57  1  0
 25 58  1  0
 25 59  1  0
 27 60  1  0
 27 61  1  0
 27 62  1  0
 28 63  1  0
 28 64  1  0
 29 65  1  0
 29 66  1  0
 31 67  1  0
 32 68  1  0
 33 69  1  0
 34 70  1  0
 35 71  1  0
 38 72  1  0
 40 73  1  0
M  END
$$$$
[H]C1=C([H])C([H])(F)C([H])([H])C([H])=C1N([H])C(=O)C1(C(=O)N([H])c2c([H])c([H])c(Oc3c([H])c([H])nc4c([H])c(OC([H])([H])C([H])([H])C([H])([H])N5C([H])([H])C([H])([H])OC([H])([H])C5([H])[H])c(OC([H])([H])[H])c([H])c34)c(F)c2[H])C([H])([H])C1([H])[H]
     RDKit          3D

 82 87  0  0  0  0  0  0  0  0999 V2000
    3.9666    3.0495   -1.7322 C   0  0  0  0  0  0  0  0  0  0  0  0
    4.8184    1.9472   -1.5191 O   0  0  0  0  0  0  0  0  0  0  0  0
    4.2779    0.7150   -1.2054 C   0  0  0  0  0  0  0  0  0  0  0  0
    2.9355    0.4830   -1.0834 C   0  0  0  0  0  0  0  0  0  0  0  0
    2.5057   -0.7878   -0.7673 C   0  0  0  0  0  0  0  0  0  0  0  0
    1.1302   -1.0757   -0.6337 C   0  0  0  0  0  0  0  0  0  0  0  0
    0.2693   -0.0306   -0.8259 O   0  0  0  0  0  0  0  0  0  0  0  0
   -1.0898   -0.1642   -0.6451 C   0  0  0  0  0  0  0  0  0  0  0  0
   -1.9847   -0.0120   -1.6950 C   0  0  0  0  0  0  0  0  0  0  0  0
   -3.3381   -0.1282   -1.5809 C   0  0  0  0  0  0  0  0  0  0  0  0
   -3.8905   -0.4214   -0.3289 C   0  0  0  0  0  0  0  0  0  0  0  0
   -5.3238   -0.4986   -0.2135 N   0  0  0  0  0  0  0  0  0  0  0  0
   -5.9613   -1.3830    0.6262 C   0  0  0  0  0  0  0  0  0  0  0  0
   -5.1921   -2.1849    1.2964 O   0  0  0  0  0  0  0  0  0  0  0  0
   -7.4011   -1.5958    0.9101 C   0  0  0  0  0  0  0  0  0  0  0  0
   -7.6820   -2.4618    2.1265 C   0  0  0  0  0  0  0  0  0  0  0  0
   -7.8126   -3.1190    0.8294 C   0  0  0  0  0  0  0  0  0  0  0  0
   -8.4706   -0.6963    0.4763 C   0  0  0  0  0  0  0  0  0  0  0  0
   -9.6747   -1.1656    0.7176 O   0  0  0  0  0  0  0  0  0  0  0  0
   -8.4814    0.5528   -0.1324 N   0  0  0  0  0  0  0  0  0  0  0  0
   -9.7446    1.2195   -0.4499 C   0  0  0  0  0  0  0  0  0  0  0  0
   -9.9496    2.4040    0.0799 C   0  0  0  0  0  0  0  0  0  0  0  0
  -11.1350    3.2347   -0.1097 C   0  0  0  0  0  0  0  0  0  0  0  0
  -12.2008    2.6387   -0.9439 C   0  0  0  0  0  0  0  0  0  0  0  0
  -12.4721    3.4850   -2.0494 F   0  0  0  0  0  0  0  0  0  0  0  0
  -11.8730    1.3187   -1.4859 C   0  0  0  0  0  0  0  0  0  0  0  0
  -10.7586    0.6480   -1.2759 C   0  0  0  0  0  0  0  0  0  0  0  0
   -3.0432   -0.5784    0.7341 C   0  0  0  0  0  0  0  0  0  0  0  0
   -1.6522   -0.4525    0.5863 C   0  0  0  0  0  0  0  0  0  0  0  0
   -0.8827   -0.5957    1.6903 F   0  0  0  0  0  0  0  0  0  0  0  0
    0.7223   -2.3515   -0.3227 C   0  0  0  0  0  0  0  0  0  0  0  0
    1.6378   -3.3635   -0.1352 C   0  0  0  0  0  0  0  0  0  0  0  0
    2.9451   -3.0865   -0.2619 N   0  0  0  0  0  0  0  0  0  0  0  0
    3.3732   -1.8309   -0.5703 C   0  0  0  0  0  0  0  0  0  0  0  0
    4.7330   -1.5901   -0.6954 C   0  0  0  0  0  0  0  0  0  0  0  0
    5.1920   -0.3333   -1.0085 C   0  0  0  0  0  0  0  0  0  0  0  0
    6.5206   -0.0853   -1.1253 O   0  0  0  0  0  0  0  0  0  0  0  0
    7.5310   -0.9938   -0.8772 C   0  0  0  0  0  0  0  0  0  0  0  0
    7.6262   -1.3701    0.5948 C   0  0  0  0  0  0  0  0  0  0  0  0
    7.9359   -0.0985    1.3961 C   0  0  0  0  0  0  0  0  0  0  0  0
    9.1945    0.4265    0.9288 N   0  0  0  0  0  0  0  0  0  0  0  0
    9.4053    1.7864    1.4776 C   0  0  0  0  0  0  0  0  0  0  0  0
   10.8161    2.1639    1.0165 C   0  0  0  0  0  0  0  0  0  0  0  0
   11.2632    1.3549   -0.0281 O   0  0  0  0  0  0  0  0  0  0  0  0
   11.4615    0.0232    0.3872 C   0  0  0  0  0  0  0  0  0  0  0  0
   10.3466   -0.3576    1.3702 C   0  0  0  0  0  0  0  0  0  0  0  0
    4.5770    3.9509   -1.9692 H   0  0  0  0  0  0  0  0  0  0  0  0
    3.3066    3.2216   -0.8582 H   0  0  0  0  0  0  0  0  0  0  0  0
    3.3086    2.7911   -2.5987 H   0  0  0  0  0  0  0  0  0  0  0  0
    2.2243    1.2761   -1.2311 H   0  0  0  0  0  0  0  0  0  0  0  0
   -1.5528    0.2161   -2.6750 H   0  0  0  0  0  0  0  0  0  0  0  0
   -4.0246   -0.0039   -2.4200 H   0  0  0  0  0  0  0  0  0  0  0  0
   -5.8260    0.1518   -0.8369 H   0  0  0  0  0  0  0  0  0  0  0  0
   -6.8106   -2.7138    2.7607 H   0  0  0  0  0  0  0  0  0  0  0  0
   -8.5985   -2.2800    2.7131 H   0  0  0  0  0  0  0  0  0  0  0  0
   -7.0275   -3.7752    0.4011 H   0  0  0  0  0  0  0  0  0  0  0  0
   -8.7992   -3.3162    0.3639 H   0  0  0  0  0  0  0  0  0  0  0  0
   -7.6334    1.0911   -0.3743 H   0  0  0  0  0  0  0  0  0  0  0  0
   -9.1652    2.8388    0.7401 H   0  0  0  0  0  0  0  0  0  0  0  0
  -11.5358    3.5321    0.9159 H   0  0  0  0  0  0  0  0  0  0  0  0
  -10.8538    4.2484   -0.5572 H   0  0  0  0  0  0  0  0  0  0  0  0
  -13.1586    2.5647   -0.3407 H   0  0  0  0  0  0  0  0  0  0  0  0
  -12.6648    0.8691   -2.1323 H   0  0  0  0  0  0  0  0  0  0  0  0
  -10.6018   -0.3227   -1.7168 H   0  0  0  0  0  0  0  0  0  0  0  0
   -3.4037   -0.7893    1.7394 H   0  0  0  0  0  0  0  0  0  0  0  0
   -0.3200   -2.5956   -0.2356 H   0  0  0  0  0  0  0  0  0  0  0  0
    1.2680   -4.3480    0.1079 H   0  0  0  0  0  0  0  0  0  0  0  0
    5.3620   -2.4538   -0.5623 H   0  0  0  0  0  0  0  0  0  0  0  0
    7.4424   -1.9223   -1.5038 H   0  0  0  0  0  0  0  0  0  0  0  0
    8.4920   -0.5348   -1.2249 H   0  0  0  0  0  0  0  0  0  0  0  0
    6.7751   -1.8921    1.0071 H   0  0  0  0  0  0  0  0  0  0  0  0
    8.4922   -2.0400    0.6815 H   0  0  0  0  0  0  0  0  0  0  0  0
    7.1233    0.6400    1.3255 H   0  0  0  0  0  0  0  0  0  0  0  0
    8.0487   -0.4301    2.4644 H   0  0  0  0  0  0  0  0  0  0  0  0
    9.4079    1.7624    2.5778 H   0  0  0  0  0  0  0  0  0  0  0  0
    8.6320    2.4413    1.0296 H   0  0  0  0  0  0  0  0  0  0  0  0
   11.5508    2.0414    1.8480 H   0  0  0  0  0  0  0  0  0  0  0  0
   10.8264    3.2054    0.6080 H   0  0  0  0  0  0  0  0  0  0  0  0
   11.3001   -0.6008   -0.5146 H   0  0  0  0  0  0  0  0  0  0  0  0
   12.4569   -0.1361    0.8078 H   0  0  0  0  0  0  0  0  0  0  0  0
   10.1090   -1.3943    1.4038 H   0  0  0  0  0  0  0  0  0  0  0  0
   10.6797    0.0679    2.3647 H   0  0  0  0  0  0  0  0  0  0  0  0
  1  2  1  0
  2  3  1  0
  3  4  2  0
  4  5  1  0
  5  6  2  0
  6  7  1  0
  7  8  1  0
  8  9  2  0
  9 10  1  0
 10 11  2  0
 11 12  1  0
 12 13  1  0
 13 14  2  0
 13 15  1  0
 15 16  1  0
 16 17  1  0
 15 18  1  0
 18 19  2  0
 18 20  1  0
 20 21  1  0
 21 22  2  0
 22 23  1  0
 23 24  1  0
 24 25  1  0
 24 26  1  0
 26 27  2  0
 11 28  1  0
 28 29  2  0
 29 30  1  0
  6 31  1  0
 31 32  2  0
 32 33  1  0
 33 34  2  0
 34 35  1  0
 35 36  2  0
 36 37  1  0
 37 38  1  0
 38 39  1  0
 39 40  1  0
 40 41  1  0
 41 42  1  0
 42 43  1  0
 43 44  1  0
 44 45  1  0
 45 46  1  0
 36  3  1  0
 46 41  1  0
 34  5  1  0
 29  8  1  0
 17 15  1  0
 27 21  1  0
  1 47  1  0
  1 48  1  0
  1 49  1  0
  4 50  1  0
  9 51  1  0
 10 52  1  0
 12 53  1  0
 16 54  1  0
 16 55  1  0
 17 56  1  0
 17 57  1  0
 20 58  1  0
 22 59  1  0
 23 60  1  0
 23 61  1  0
 24 62  1  0
 26 63  1  0
 27 64  1  0
 28 65  1  0
 31 66  1  0
 32 67  1  0
 35 68  1  0
 38 69  1  0
 38 70  1  0
 39 71  1  0
 39 72  1  0
 40 73  1  0
 40 74  1  0
 42 75  1  0
 42 76  1  0
 43 77  1  0
 43 78  1  0
 45 79  1  0
 45 80  1  0
 46 81  1  0
 46 82  1  0
M  END
$$$$
[H]/C(=C1/C(=O)N([H])c2c([H])c([H])c(F)c([H])c21)c1c(C([H])([H])[H])c(C(=O)N([H])C([H])([H])C([H])([H])N(C([H])([H])C([H])([H])[H])C([H])([H])C([H])([H])[H])c(C([H])([H])[H])n1[H]
     RDKit          3D

 56 58  0  0  0  0  0  0  0  0999 V2000
   -5.0714    1.8670   -1.0108 C   0  0  0  0  0  0  0  0  0  0  0  0
   -5.3461    0.3881   -0.8275 C   0  0  0  0  0  0  0  0  0  0  0  0
   -4.6170   -0.1646    0.3206 N   0  0  0  0  0  0  0  0  0  0  0  0
   -5.1790    0.4151    1.5016 C   0  0  0  0  0  0  0  0  0  0  0  0
   -4.5345   -0.0334    2.7742 C   0  0  0  0  0  0  0  0  0  0  0  0
   -4.6501   -1.5699    0.2637 C   0  0  0  0  0  0  0  0  0  0  0  0
   -3.7757   -2.2111   -0.7540 C   0  0  0  0  0  0  0  0  0  0  0  0
   -2.3731   -2.1323   -0.6218 N   0  0  0  0  0  0  0  0  0  0  0  0
   -1.4740   -1.0577   -0.5954 C   0  0  0  0  0  0  0  0  0  0  0  0
   -1.9007    0.1569   -0.6986 O   0  0  0  0  0  0  0  0  0  0  0  0
   -0.0260   -1.1673   -0.4518 C   0  0  0  0  0  0  0  0  0  0  0  0
    0.8308   -2.2047   -0.6599 C   0  0  0  0  0  0  0  0  0  0  0  0
    0.5183   -3.5624   -1.1880 C   0  0  0  0  0  0  0  0  0  0  0  0
    2.1148   -1.8439   -0.3380 N   0  0  0  0  0  0  0  0  0  0  0  0
    2.0987   -0.5939    0.0716 C   0  0  0  0  0  0  0  0  0  0  0  0
    3.1774    0.2565    0.5004 C   0  0  0  0  0  0  0  0  0  0  0  0
    4.2152    0.5258   -0.2368 C   0  0  0  0  0  0  0  0  0  0  0  0
    4.5400    0.0878   -1.5770 C   0  0  0  0  0  0  0  0  0  0  0  0
    3.8503   -0.6552   -2.3249 O   0  0  0  0  0  0  0  0  0  0  0  0
    5.8118    0.6670   -1.9034 N   0  0  0  0  0  0  0  0  0  0  0  0
    6.2838    1.4437   -0.8228 C   0  0  0  0  0  0  0  0  0  0  0  0
    7.4169    2.1967   -0.6129 C   0  0  0  0  0  0  0  0  0  0  0  0
    7.6451    2.8791    0.5618 C   0  0  0  0  0  0  0  0  0  0  0  0
    6.7134    2.8201    1.5851 C   0  0  0  0  0  0  0  0  0  0  0  0
    6.8926    3.4732    2.7576 F   0  0  0  0  0  0  0  0  0  0  0  0
    5.5872    2.0654    1.3625 C   0  0  0  0  0  0  0  0  0  0  0  0
    5.3509    1.3770    0.1845 C   0  0  0  0  0  0  0  0  0  0  0  0
    0.7763   -0.1375    0.0139 C   0  0  0  0  0  0  0  0  0  0  0  0
    0.3086    1.2202    0.3933 C   0  0  0  0  0  0  0  0  0  0  0  0
   -5.8586    2.4508   -0.5357 H   0  0  0  0  0  0  0  0  0  0  0  0
   -4.0666    2.1489   -0.6432 H   0  0  0  0  0  0  0  0  0  0  0  0
   -5.0551    2.0620   -2.1045 H   0  0  0  0  0  0  0  0  0  0  0  0
   -5.1075   -0.2012   -1.6994 H   0  0  0  0  0  0  0  0  0  0  0  0
   -6.4302    0.2709   -0.5364 H   0  0  0  0  0  0  0  0  0  0  0  0
   -6.2797    0.2912    1.5323 H   0  0  0  0  0  0  0  0  0  0  0  0
   -5.0076    1.5283    1.4040 H   0  0  0  0  0  0  0  0  0  0  0  0
   -5.0445   -0.8560    3.2889 H   0  0  0  0  0  0  0  0  0  0  0  0
   -3.4622   -0.2647    2.6232 H   0  0  0  0  0  0  0  0  0  0  0  0
   -4.5485    0.8322    3.4886 H   0  0  0  0  0  0  0  0  0  0  0  0
   -4.4903   -2.0463    1.2893 H   0  0  0  0  0  0  0  0  0  0  0  0
   -5.7090   -1.9542    0.0302 H   0  0  0  0  0  0  0  0  0  0  0  0
   -4.1207   -3.3053   -0.7880 H   0  0  0  0  0  0  0  0  0  0  0  0
   -4.0214   -1.8378   -1.7910 H   0  0  0  0  0  0  0  0  0  0  0  0
   -1.9069   -3.1170   -0.4939 H   0  0  0  0  0  0  0  0  0  0  0  0
    1.4454   -4.0202   -1.6271 H   0  0  0  0  0  0  0  0  0  0  0  0
   -0.1980   -3.5119   -2.0293 H   0  0  0  0  0  0  0  0  0  0  0  0
    0.1816   -4.2087   -0.3617 H   0  0  0  0  0  0  0  0  0  0  0  0
    2.9340   -2.4990   -0.4118 H   0  0  0  0  0  0  0  0  0  0  0  0
    3.1447    0.7200    1.5125 H   0  0  0  0  0  0  0  0  0  0  0  0
    6.3151    0.5384   -2.8011 H   0  0  0  0  0  0  0  0  0  0  0  0
    8.1416    2.2410   -1.4148 H   0  0  0  0  0  0  0  0  0  0  0  0
    8.5539    3.4777    0.7183 H   0  0  0  0  0  0  0  0  0  0  0  0
    4.8413    2.0008    2.1446 H   0  0  0  0  0  0  0  0  0  0  0  0
    1.1157    1.7992    0.8832 H   0  0  0  0  0  0  0  0  0  0  0  0
   -0.5276    1.1531    1.1483 H   0  0  0  0  0  0  0  0  0  0  0  0
   -0.0237    1.8018   -0.4924 H   0  0  0  0  0  0  0  0  0  0  0  0
  1  2  1  0
  2  3  1  0
  3  4  1  0
  4  5  1  0
  3  6  1  0
  6  7  1  0
  7  8  1  0
  8  9  1  0
  9 10  2  0
  9 11  1  0
 11 12  2  0
 12 13  1  0
 12 14  1  0
 14 15  1  0
 15 16  1  0
 16 17  2  0
 17 18  1  0
 18 19  2  0
 18 20  1  0
 20 21  1  0
 21 22  2  0
 22 23  1  0
 23 24  2  0
 24 25  1  0
 24 26  1  0
 26 27  2  0
 15 28  2  0
 28 29  1  0
 28 11  1  0
 27 17  1  0
 27 21  1  0
  1 30  1  0
  1 31  1  0
  1 32  1  0
  2 33  1  0
  2 34  1  0
  4 35  1  0
  4 36  1  0
  5 37  1  0
  5 38  1  0
  5 39  1  0
  6 40  1  0
  6 41  1  0
  7 42  1  0
  7 43  1  0
  8 44  1  0
 13 45  1  0
 13 46  1  0
 13 47  1  0
 14 48  1  0
 16 49  1  0
 20 50  1  0
 22 51  1  0
 23 52  1  0
 26 53  1  0
 29 54  1  0
 29 55  1  0
 29 56  1  0
M  END
$$$$
[H]c1nc(N([H])c2c([H])c([H])c(C(=O)N([H])C3([H])C([H])([H])C([H])([H])N(C([H])([H])[H])C([H])([H])C3([H])[H])c([H])c2OC([H])([H])[H])nc2c1N(C([H])([H])[H])C(=O)[C@@]([H])(C([H])([H])C([H])([H])[H])N2C1([H])C([H])([H])C([H])([H])C([H])([H])C1([H])[H]
     RDKit          3D

 77 81  0  0  0  0  0  0  0  0999 V2000
   -5.8388    2.6577   -0.5266 C   0  0  0  0  0  0  0  0  0  0  0  0
   -6.9164    1.6287   -0.2316 C   0  0  0  0  0  0  0  0  0  0  0  0
   -6.5830    0.5643    0.6917 C   0  0  1  0  0  0  0  0  0  0  0  0
   -5.5161   -0.3570    0.4652 N   0  0  0  0  0  0  0  0  0  0  0  0
   -5.5093   -1.6020   -0.1918 C   0  0  0  0  0  0  0  0  0  0  0  0
   -6.5863   -2.5694   -0.0163 C   0  0  0  0  0  0  0  0  0  0  0  0
   -7.4601   -2.4837   -1.3005 C   0  0  0  0  0  0  0  0  0  0  0  0
   -6.3198   -2.5344   -2.2934 C   0  0  0  0  0  0  0  0  0  0  0  0
   -5.3521   -1.4873   -1.6902 C   0  0  0  0  0  0  0  0  0  0  0  0
   -4.2443    0.0886    0.9473 C   0  0  0  0  0  0  0  0  0  0  0  0
   -3.0847   -0.3319    0.4817 N   0  0  0  0  0  0  0  0  0  0  0  0
   -1.8275    0.0506    0.8628 C   0  0  0  0  0  0  0  0  0  0  0  0
   -0.7270   -0.5474    0.1711 N   0  0  0  0  0  0  0  0  0  0  0  0
    0.6336   -0.3021    0.3671 C   0  0  0  0  0  0  0  0  0  0  0  0
    1.1312    0.5833    1.2997 C   0  0  0  0  0  0  0  0  0  0  0  0
    2.5074    0.7818    1.3852 C   0  0  0  0  0  0  0  0  0  0  0  0
    3.4107    0.1333    0.5784 C   0  0  0  0  0  0  0  0  0  0  0  0
    2.8791   -0.7411   -0.3336 C   0  0  0  0  0  0  0  0  0  0  0  0
    1.5471   -0.9823   -0.4710 C   0  0  0  0  0  0  0  0  0  0  0  0
    1.0422   -1.8735   -1.4046 O   0  0  0  0  0  0  0  0  0  0  0  0
    1.8437   -2.6008   -2.2867 C   0  0  0  0  0  0  0  0  0  0  0  0
    4.8115    0.4131    0.6777 C   0  0  0  0  0  0  0  0  0  0  0  0
    5.2304    1.1806    1.5789 O   0  0  0  0  0  0  0  0  0  0  0  0
    5.7425   -0.1473   -0.2144 N   0  0  0  0  0  0  0  0  0  0  0  0
    7.1685    0.1254   -0.1609 C   0  0  0  0  0  0  0  0  0  0  0  0
    8.0099   -1.0857    0.0628 C   0  0  0  0  0  0  0  0  0  0  0  0
    9.4355   -0.6142    0.2532 C   0  0  0  0  0  0  0  0  0  0  0  0
    9.7580    0.5095   -0.5586 N   0  0  0  0  0  0  0  0  0  0  0  0
    9.7599    1.7779    0.1304 C   0  0  0  0  0  0  0  0  0  0  0  0
    9.0023    0.6264   -1.7741 C   0  0  0  0  0  0  0  0  0  0  0  0
    7.5289    0.7556   -1.4861 C   0  0  0  0  0  0  0  0  0  0  0  0
   -1.7774    0.9519    1.8165 N   0  0  0  0  0  0  0  0  0  0  0  0
   -2.8737    1.4631    2.3768 C   0  0  0  0  0  0  0  0  0  0  0  0
   -4.1238    1.0525    1.9655 C   0  0  0  0  0  0  0  0  0  0  0  0
   -5.2700    1.6244    2.5541 N   0  0  0  0  0  0  0  0  0  0  0  0
   -5.2146    2.6270    3.6207 C   0  0  0  0  0  0  0  0  0  0  0  0
   -6.5040    1.1567    2.0400 C   0  0  0  0  0  0  0  0  0  0  0  0
   -7.4995    1.2921    2.8342 O   0  0  0  0  0  0  0  0  0  0  0  0
   -5.7018    3.3992    0.2558 H   0  0  0  0  0  0  0  0  0  0  0  0
   -6.1373    3.2577   -1.4473 H   0  0  0  0  0  0  0  0  0  0  0  0
   -4.9082    2.1461   -0.8398 H   0  0  0  0  0  0  0  0  0  0  0  0
   -7.6960    2.2621    0.2949 H   0  0  0  0  0  0  0  0  0  0  0  0
   -7.4889    1.3583   -1.1473 H   0  0  0  0  0  0  0  0  0  0  0  0
   -7.5197   -0.0949    0.7381 H   0  0  0  0  0  0  0  0  0  0  0  0
   -4.5592   -2.1512    0.1349 H   0  0  0  0  0  0  0  0  0  0  0  0
   -7.1708   -2.5947    0.8855 H   0  0  0  0  0  0  0  0  0  0  0  0
   -6.1564   -3.5967   -0.1173 H   0  0  0  0  0  0  0  0  0  0  0  0
   -7.9008   -1.4800   -1.2879 H   0  0  0  0  0  0  0  0  0  0  0  0
   -8.1472   -3.3227   -1.3321 H   0  0  0  0  0  0  0  0  0  0  0  0
   -5.8950   -3.5591   -2.2029 H   0  0  0  0  0  0  0  0  0  0  0  0
   -6.5810   -2.3264   -3.3297 H   0  0  0  0  0  0  0  0  0  0  0  0
   -4.3607   -1.8349   -2.0525 H   0  0  0  0  0  0  0  0  0  0  0  0
   -5.6877   -0.5295   -2.1213 H   0  0  0  0  0  0  0  0  0  0  0  0
   -0.9669   -1.2780   -0.5898 H   0  0  0  0  0  0  0  0  0  0  0  0
    0.5073    1.1380    1.9840 H   0  0  0  0  0  0  0  0  0  0  0  0
    2.8459    1.4912    2.1409 H   0  0  0  0  0  0  0  0  0  0  0  0
    3.5242   -1.3077   -1.0208 H   0  0  0  0  0  0  0  0  0  0  0  0
    2.3771   -3.3997   -1.7382 H   0  0  0  0  0  0  0  0  0  0  0  0
    1.1667   -3.0798   -3.0539 H   0  0  0  0  0  0  0  0  0  0  0  0
    2.5643   -2.0025   -2.8568 H   0  0  0  0  0  0  0  0  0  0  0  0
    5.4288   -0.7968   -0.9641 H   0  0  0  0  0  0  0  0  0  0  0  0
    7.3146    0.8317    0.6848 H   0  0  0  0  0  0  0  0  0  0  0  0
    7.6659   -1.5964    1.0007 H   0  0  0  0  0  0  0  0  0  0  0  0
    7.9412   -1.8343   -0.7414 H   0  0  0  0  0  0  0  0  0  0  0  0
   10.1589   -1.4584    0.1167 H   0  0  0  0  0  0  0  0  0  0  0  0
    9.5345   -0.3048    1.3267 H   0  0  0  0  0  0  0  0  0  0  0  0
   10.7121    2.3437   -0.0546 H   0  0  0  0  0  0  0  0  0  0  0  0
    9.5679    1.6511    1.2088 H   0  0  0  0  0  0  0  0  0  0  0  0
    8.9148    2.4206   -0.2523 H   0  0  0  0  0  0  0  0  0  0  0  0
    9.3644    1.5461   -2.3059 H   0  0  0  0  0  0  0  0  0  0  0  0
    9.2176   -0.2061   -2.4903 H   0  0  0  0  0  0  0  0  0  0  0  0
    7.2651    1.8420   -1.4642 H   0  0  0  0  0  0  0  0  0  0  0  0
    6.9950    0.2757   -2.3372 H   0  0  0  0  0  0  0  0  0  0  0  0
   -2.8004    2.2191    3.1749 H   0  0  0  0  0  0  0  0  0  0  0  0
   -4.7710    2.2484    4.5427 H   0  0  0  0  0  0  0  0  0  0  0  0
   -6.2393    3.0298    3.7404 H   0  0  0  0  0  0  0  0  0  0  0  0
   -4.5923    3.5093    3.2892 H   0  0  0  0  0  0  0  0  0  0  0  0
  1  2  1  0
  2  3  1  0
  3  4  1  0
  4  5  1  0
  5  6  1  0
  6  7  1  0
  7  8  1  0
  8  9  1  0
  4 10  1  0
 10 11  2  0
 11 12  1  0
 12 13  1  0
 13 14  1  0
 14 15  2  0
 15 16  1  0
 16 17  2  0
 17 18  1  0
 18 19  2  0
 19 20  1  0
 20 21  1  0
 17 22  1  0
 22 23  2  0
 22 24  1  0
 24 25  1  0
 25 26  1  0
 26 27  1  0
 27 28  1  0
 28 29  1  0
 28 30  1  0
 30 31  1  0
 12 32  2  0
 32 33  1  0
 33 34  2  0
 34 35  1  0
 35 36  1  0
 35 37  1  0
 37 38  2  0
 37  3  1  0
  9  5  1  0
 34 10  1  0
 19 14  1  0
 31 25  1  0
  1 39  1  0
  1 40  1  0
  1 41  1  0
  2 42  1  0
  2 43  1  0
  3 44  1  1
  5 45  1  0
  6 46  1  0
  6 47  1  0
  7 48  1  0
  7 49  1  0
  8 50  1  0
  8 51  1  0
  9 52  1  0
  9 53  1  0
 13 54  1  0
 15 55  1  0
 16 56  1  0
 18 57  1  0
 21 58  1  0
 21 59  1  0
 21 60  1  0
 24 61  1  0
 25 62  1  0
 26 63  1  0
 26 64  1  0
 27 65  1  0
 27 66  1  0
 29 67  1  0
 29 68  1  0
 29 69  1  0
 30 70  1  0
 30 71  1  0
 31 72  1  0
 31 73  1  0
 33 74  1  0
 36 75  1  0
 36 76  1  0
 36 77  1  0
M  END
$$$$
[H]c1nc(N([H])c2c([H])c(OC([H])([H])[H])c(OC([H])([H])[H])c(OC([H])([H])[H])c2[H])nc(N([H])c2nc3c(c([H])c2[H])OC(C([H])([H])[H])(C([H])([H])[H])C(=O)N3[H])c1F
     RDKit          3D

 57 60  0  0  0  0  0  0  0  0999 V2000
   -5.6364    2.1181   -1.8630 C   0  0  0  0  0  0  0  0  0  0  0  0
   -5.8443    0.7587   -1.5880 O   0  0  0  0  0  0  0  0  0  0  0  0
   -4.8072    0.0010   -1.0783 C   0  0  0  0  0  0  0  0  0  0  0  0
   -3.5618    0.6012   -0.8432 C   0  0  0  0  0  0  0  0  0  0  0  0
   -2.5031   -0.0703   -0.3477 C   0  0  0  0  0  0  0  0  0  0  0  0
   -1.2316    0.4626   -0.0655 N   0  0  0  0  0  0  0  0  0  0  0  0
   -0.9067    1.8244    0.0656 C   0  0  0  0  0  0  0  0  0  0  0  0
   -1.7494    2.8585   -0.0431 N   0  0  0  0  0  0  0  0  0  0  0  0
   -1.4116    4.1432    0.0863 C   0  0  0  0  0  0  0  0  0  0  0  0
   -0.1125    4.4539    0.3502 C   0  0  0  0  0  0  0  0  0  0  0  0
    0.3587    5.6995    0.5032 F   0  0  0  0  0  0  0  0  0  0  0  0
    0.8217    3.4140    0.4762 C   0  0  0  0  0  0  0  0  0  0  0  0
    2.1801    3.7060    0.7505 N   0  0  0  0  0  0  0  0  0  0  0  0
    3.1050    2.6399    0.8733 C   0  0  0  0  0  0  0  0  0  0  0  0
    4.4571    2.8965    1.1446 C   0  0  0  0  0  0  0  0  0  0  0  0
    5.3443    1.8517    1.2613 C   0  0  0  0  0  0  0  0  0  0  0  0
    4.9285    0.5481    1.1161 C   0  0  0  0  0  0  0  0  0  0  0  0
    5.7961   -0.5293    1.2273 O   0  0  0  0  0  0  0  0  0  0  0  0
    5.5066   -1.7939    0.6515 C   0  0  0  0  0  0  0  0  0  0  0  0
    6.2846   -2.8749    1.3459 C   0  0  0  0  0  0  0  0  0  0  0  0
    5.8127   -1.7705   -0.8228 C   0  0  0  0  0  0  0  0  0  0  0  0
    4.0556   -2.1122    0.8177 C   0  0  0  0  0  0  0  0  0  0  0  0
    3.6763   -3.3008    1.0572 O   0  0  0  0  0  0  0  0  0  0  0  0
    3.1427   -1.0383    0.6962 N   0  0  0  0  0  0  0  0  0  0  0  0
    3.5828    0.3027    0.8467 C   0  0  0  0  0  0  0  0  0  0  0  0
    2.7547    1.3550    0.7416 N   0  0  0  0  0  0  0  0  0  0  0  0
    0.3826    2.1601    0.3289 N   0  0  0  0  0  0  0  0  0  0  0  0
   -2.7045   -1.4372   -0.0691 C   0  0  0  0  0  0  0  0  0  0  0  0
   -3.9082   -2.0549   -0.2874 C   0  0  0  0  0  0  0  0  0  0  0  0
   -4.0666   -3.3859   -0.0045 O   0  0  0  0  0  0  0  0  0  0  0  0
   -2.9762   -4.1177    0.5153 C   0  0  0  0  0  0  0  0  0  0  0  0
   -4.9761   -1.3425   -0.7952 C   0  0  0  0  0  0  0  0  0  0  0  0
   -6.2188   -1.9257   -1.0338 O   0  0  0  0  0  0  0  0  0  0  0  0
   -7.1743   -1.9137    0.0186 C   0  0  0  0  0  0  0  0  0  0  0  0
   -4.7813    2.3111   -2.5387 H   0  0  0  0  0  0  0  0  0  0  0  0
   -5.4850    2.7232   -0.9417 H   0  0  0  0  0  0  0  0  0  0  0  0
   -6.5386    2.5082   -2.4098 H   0  0  0  0  0  0  0  0  0  0  0  0
   -3.4970    1.6360   -1.0973 H   0  0  0  0  0  0  0  0  0  0  0  0
   -0.4103   -0.2136    0.0641 H   0  0  0  0  0  0  0  0  0  0  0  0
   -2.1604    4.9024   -0.0184 H   0  0  0  0  0  0  0  0  0  0  0  0
    2.4712    4.6872    0.8556 H   0  0  0  0  0  0  0  0  0  0  0  0
    4.7318    3.9285    1.2492 H   0  0  0  0  0  0  0  0  0  0  0  0
    6.3943    2.0780    1.4734 H   0  0  0  0  0  0  0  0  0  0  0  0
    5.7812   -3.1588    2.2953 H   0  0  0  0  0  0  0  0  0  0  0  0
    7.3278   -2.5920    1.5737 H   0  0  0  0  0  0  0  0  0  0  0  0
    6.3119   -3.7970    0.7168 H   0  0  0  0  0  0  0  0  0  0  0  0
    5.5475   -2.7321   -1.2838 H   0  0  0  0  0  0  0  0  0  0  0  0
    5.2428   -0.9509   -1.3072 H   0  0  0  0  0  0  0  0  0  0  0  0
    6.8942   -1.5474   -0.9277 H   0  0  0  0  0  0  0  0  0  0  0  0
    2.1474   -1.2464    0.4955 H   0  0  0  0  0  0  0  0  0  0  0  0
   -1.8577   -2.0119    0.3366 H   0  0  0  0  0  0  0  0  0  0  0  0
   -2.2185   -4.1935   -0.2936 H   0  0  0  0  0  0  0  0  0  0  0  0
   -3.3828   -5.1246    0.7905 H   0  0  0  0  0  0  0  0  0  0  0  0
   -2.5554   -3.6060    1.4036 H   0  0  0  0  0  0  0  0  0  0  0  0
   -7.4919   -2.9486    0.2973 H   0  0  0  0  0  0  0  0  0  0  0  0
   -8.0902   -1.3564   -0.3279 H   0  0  0  0  0  0  0  0  0  0  0  0
   -6.7818   -1.4227    0.9319 H   0  0  0  0  0  0  0  0  0  0  0  0
  1  2  1  0
  2  3  1  0
  3  4  2  0
  4  5  1  0
  5  6  1  0
  6  7  1  0
  7  8  2  0
  8  9  1  0
  9 10  2  0
 10 11  1  0
 10 12  1  0
 12 13  1  0
 13 14  1  0
 14 15  2  0
 15 16  1  0
 16 17  2  0
 17 18  1  0
 18 19  1  0
 19 20  1  0
 19 21  1  0
 19 22  1  0
 22 23  2  0
 22 24  1  0
 24 25  1  0
 25 26  2  0
 12 27  2  0
  5 28  2  0
 28 29  1  0
 29 30  1  0
 30 31  1  0
 29 32  2  0
 32 33  1  0
 33 34  1  0
 32  3  1  0
 27  7  1  0
 26 14  1  0
 25 17  1  0
  1 35  1  0
  1 36  1  0
  1 37  1  0
  4 38  1  0
  6 39  1  0
  9 40  1  0
 13 41  1  0
 15 42  1  0
 16 43  1  0
 20 44  1  0
 20 45  1  0
 20 46  1  0
 21 47  1  0
 21 48  1  0
 21 49  1  0
 24 50  1  0
 28 51  1  0
 31 52  1  0
 31 53  1  0
 31 54  1  0
 34 55  1  0
 34 56  1  0
 34 57  1  0
M  END
$$$$
[H]c1nc(N([H])c2c([H])c([H])c(N3C([H])([H])C([H])([H])C([H])(N(C([H])([H])[H])C([H])([H])[H])C([H])([H])C3([H])[H])c([H])c2OC([H])([H])[H])nc(N([H])c2c([H])c([H])c([H])c([H])c2S(=O)(=O)C([H])(C([H])([H])[H])C([H])([H])[H])c1Cl
     RDKit          3D

 73 76  0  0  0  0  0  0  0  0999 V2000
   -1.4887   -3.5880    1.2680 C   0  0  0  0  0  0  0  0  0  0  0  0
   -0.7608   -2.5452    0.6863 O   0  0  0  0  0  0  0  0  0  0  0  0
   -1.4161   -1.4468    0.1649 C   0  0  0  0  0  0  0  0  0  0  0  0
   -2.7697   -1.3138    0.1835 C   0  0  0  0  0  0  0  0  0  0  0  0
   -3.4310   -0.2298   -0.3300 C   0  0  0  0  0  0  0  0  0  0  0  0
   -2.6699    0.7643   -0.8887 C   0  0  0  0  0  0  0  0  0  0  0  0
   -1.2837    0.6857   -0.9374 C   0  0  0  0  0  0  0  0  0  0  0  0
   -0.6456   -0.4090   -0.4169 C   0  0  0  0  0  0  0  0  0  0  0  0
    0.7306   -0.5530   -0.4331 N   0  0  0  0  0  0  0  0  0  0  0  0
    1.7028    0.3458   -0.9492 C   0  0  0  0  0  0  0  0  0  0  0  0
    1.4800    1.5214   -1.5269 N   0  0  0  0  0  0  0  0  0  0  0  0
    2.4593    2.3096   -1.9876 C   0  0  0  0  0  0  0  0  0  0  0  0
    3.7698    1.9304   -1.8818 C   0  0  0  0  0  0  0  0  0  0  0  0
    5.0878    2.9156   -2.4745 Cl  0  0  0  0  0  0  0  0  0  0  0  0
    4.0678    0.6884   -1.2753 C   0  0  0  0  0  0  0  0  0  0  0  0
    5.4172    0.3014   -1.1217 N   0  0  0  0  0  0  0  0  0  0  0  0
    5.8705   -0.9049   -0.5954 C   0  0  0  0  0  0  0  0  0  0  0  0
    5.0906   -2.0601   -0.5353 C   0  0  0  0  0  0  0  0  0  0  0  0
    5.6105   -3.2759   -0.1172 C   0  0  0  0  0  0  0  0  0  0  0  0
    6.9209   -3.3878    0.2545 C   0  0  0  0  0  0  0  0  0  0  0  0
    7.6858   -2.2549    0.1966 C   0  0  0  0  0  0  0  0  0  0  0  0
    7.2100   -1.0030   -0.2158 C   0  0  0  0  0  0  0  0  0  0  0  0
    8.2797    0.3289   -0.1092 S   0  0  0  0  0  0  0  0  0  0  0  0
    9.7039   -0.2341    0.1061 O   0  0  0  0  0  0  0  0  0  0  0  0
    8.4312    1.1263   -1.3815 O   0  0  0  0  0  0  0  0  0  0  0  0
    8.0255    1.4139    1.2573 C   0  0  0  0  0  0  0  0  0  0  0  0
    9.1794    2.4149    1.3719 C   0  0  0  0  0  0  0  0  0  0  0  0
    6.7769    2.1937    1.2396 C   0  0  0  0  0  0  0  0  0  0  0  0
    3.0226    0.0056   -0.8635 N   0  0  0  0  0  0  0  0  0  0  0  0
   -4.8624   -0.0923   -0.3072 N   0  0  0  0  0  0  0  0  0  0  0  0
   -5.5849   -1.1673    0.3276 C   0  0  0  0  0  0  0  0  0  0  0  0
   -7.0407   -0.9434    0.5155 C   0  0  0  0  0  0  0  0  0  0  0  0
   -7.4356    0.4949    0.3818 C   0  0  0  0  0  0  0  0  0  0  0  0
   -6.9640    0.9951   -0.9680 C   0  0  0  0  0  0  0  0  0  0  0  0
   -5.4597    1.0612   -0.8960 C   0  0  0  0  0  0  0  0  0  0  0  0
   -8.8564    0.6589    0.5708 N   0  0  0  0  0  0  0  0  0  0  0  0
   -9.2782    2.0230    0.4605 C   0  0  0  0  0  0  0  0  0  0  0  0
   -9.6390   -0.2430   -0.2416 C   0  0  0  0  0  0  0  0  0  0  0  0
   -0.7931   -4.1921    1.9054 H   0  0  0  0  0  0  0  0  0  0  0  0
   -1.9544   -4.2113    0.4616 H   0  0  0  0  0  0  0  0  0  0  0  0
   -2.2604   -3.2007    1.9817 H   0  0  0  0  0  0  0  0  0  0  0  0
   -3.3514   -2.1246    0.6360 H   0  0  0  0  0  0  0  0  0  0  0  0
   -3.1295    1.6488   -1.3125 H   0  0  0  0  0  0  0  0  0  0  0  0
   -0.7832    1.5103   -1.3929 H   0  0  0  0  0  0  0  0  0  0  0  0
    1.1068   -1.4691    0.0044 H   0  0  0  0  0  0  0  0  0  0  0  0
    2.2213    3.2667   -2.4541 H   0  0  0  0  0  0  0  0  0  0  0  0
    6.1140    0.9939   -1.4647 H   0  0  0  0  0  0  0  0  0  0  0  0
    4.0603   -2.0188   -0.8381 H   0  0  0  0  0  0  0  0  0  0  0  0
    4.9515   -4.1295   -0.0940 H   0  0  0  0  0  0  0  0  0  0  0  0
    7.3564   -4.3431    0.5885 H   0  0  0  0  0  0  0  0  0  0  0  0
    8.7315   -2.3610    0.4975 H   0  0  0  0  0  0  0  0  0  0  0  0
    8.1309    0.7711    2.1790 H   0  0  0  0  0  0  0  0  0  0  0  0
    9.2341    2.9999    0.4280 H   0  0  0  0  0  0  0  0  0  0  0  0
    8.8903    3.1190    2.1704 H   0  0  0  0  0  0  0  0  0  0  0  0
   10.1385    1.9091    1.5465 H   0  0  0  0  0  0  0  0  0  0  0  0
    6.6586    2.6546    0.2401 H   0  0  0  0  0  0  0  0  0  0  0  0
    5.9200    1.5461    1.5414 H   0  0  0  0  0  0  0  0  0  0  0  0
    6.8570    3.0425    1.9945 H   0  0  0  0  0  0  0  0  0  0  0  0
   -5.4057   -2.0834   -0.2985 H   0  0  0  0  0  0  0  0  0  0  0  0
   -5.1129   -1.3839    1.3330 H   0  0  0  0  0  0  0  0  0  0  0  0
   -7.3369   -1.2598    1.5530 H   0  0  0  0  0  0  0  0  0  0  0  0
   -7.5857   -1.5404   -0.2484 H   0  0  0  0  0  0  0  0  0  0  0  0
   -6.9204    1.0822    1.1579 H   0  0  0  0  0  0  0  0  0  0  0  0
   -7.3716    2.0047   -1.1693 H   0  0  0  0  0  0  0  0  0  0  0  0
   -7.2424    0.3151   -1.7855 H   0  0  0  0  0  0  0  0  0  0  0  0
   -5.0229    1.2094   -1.9181 H   0  0  0  0  0  0  0  0  0  0  0  0
   -5.2243    1.9555   -0.2465 H   0  0  0  0  0  0  0  0  0  0  0  0
   -9.3583    2.3936   -0.5797 H   0  0  0  0  0  0  0  0  0  0  0  0
   -8.5425    2.6556    1.0032 H   0  0  0  0  0  0  0  0  0  0  0  0
  -10.3018    2.1167    0.9062 H   0  0  0  0  0  0  0  0  0  0  0  0
  -10.5738    0.3178   -0.5167 H   0  0  0  0  0  0  0  0  0  0  0  0
   -9.1485   -0.5590   -1.1630 H   0  0  0  0  0  0  0  0  0  0  0  0
   -9.8879   -1.1629    0.3397 H   0  0  0  0  0  0  0  0  0  0  0  0
  1  2  1  0
  2  3  1  0
  3  4  2  0
  4  5  1  0
  5  6  2  0
  6  7  1  0
  7  8  2  0
  8  9  1  0
  9 10  1  0
 10 11  2  0
 11 12  1  0
 12 13  2  0
 13 14  1  0
 13 15  1  0
 15 16  1  0
 16 17  1  0
 17 18  2  0
 18 19  1  0
 19 20  2  0
 20 21  1  0
 21 22  2  0
 22 23  1  0
 23 24  2  0
 23 25  2  0
 23 26  1  0
 26 27  1  0
 26 28  1  0
 15 29  2  0
  5 30  1  0
 30 31  1  0
 31 32  1  0
 32 33  1  0
 33 34  1  0
 34 35  1  0
 33 36  1  0
 36 37  1  0
 36 38  1  0
  8  3  1  0
 29 10  1  0
 35 30  1  0
 22 17  1  0
  1 39  1  0
  1 40  1  0
  1 41  1  0
  4 42  1  0
  6 43  1  0
  7 44  1  0
  9 45  1  0
 12 46  1  0
 16 47  1  0
 18 48  1  0
 19 49  1  0
 20 50  1  0
 21 51  1  0
 26 52  1  0
 27 53  1  0
 27 54  1  0
 27 55  1  0
 28 56  1  0
 28 57  1  0
 28 58  1  0
 31 59  1  0
 31 60  1  0
 32 61  1  0
 32 62  1  0
 33 63  1  0
 34 64  1  0
 34 65  1  0
 35 66  1  0
 35 67  1  0
 37 68  1  0
 37 69  1  0
 37 70  1  0
 38 71  1  0
 38 72  1  0
 38 73  1  0
M  END
$$$$
[H]c1nc(N([H])c2c([H])c([H])c(C(=O)N([H])C3([H])C([H])([H])C([H])([H])N(C([H])([H])[H])C([H])([H])C3([H])[H])c([H])c2[H])nc2c1N(C([H])([H])[H])C(=O)[C@@]([H])(C([H])([H])C([H])([H])[H])N2C1([H])C([H])([H])C([H])([H])C([H])([H])C1([H])[H]
     RDKit          3D

 73 77  0  0  0  0  0  0  0  0999 V2000
   -8.3914   -1.0553   -1.2035 C   0  0  0  0  0  0  0  0  0  0  0  0
   -7.5079    0.1677   -0.8871 C   0  0  0  0  0  0  0  0  0  0  0  0
   -6.1562   -0.3447   -0.6627 C   0  0  1  0  0  0  0  0  0  0  0  0
   -5.0860    0.5257   -0.3566 N   0  0  0  0  0  0  0  0  0  0  0  0
   -5.0465    1.9618   -0.3499 C   0  0  0  0  0  0  0  0  0  0  0  0
   -5.8979    2.6429    0.6630 C   0  0  0  0  0  0  0  0  0  0  0  0
   -6.6629    3.7228   -0.0407 C   0  0  0  0  0  0  0  0  0  0  0  0
   -6.3095    3.6777   -1.4880 C   0  0  0  0  0  0  0  0  0  0  0  0
   -5.3447    2.5584   -1.7101 C   0  0  0  0  0  0  0  0  0  0  0  0
   -3.8524   -0.1523    0.0063 C   0  0  0  0  0  0  0  0  0  0  0  0
   -2.6571    0.4316   -0.2008 N   0  0  0  0  0  0  0  0  0  0  0  0
   -1.4848   -0.1902    0.1381 C   0  0  0  0  0  0  0  0  0  0  0  0
   -0.2527    0.4447   -0.1210 N   0  0  0  0  0  0  0  0  0  0  0  0
    1.0311   -0.0127    0.1636 C   0  0  0  0  0  0  0  0  0  0  0  0
    2.0979    0.4608   -0.6064 C   0  0  0  0  0  0  0  0  0  0  0  0
    3.3917    0.0745   -0.3739 C   0  0  0  0  0  0  0  0  0  0  0  0
    3.7071   -0.8064    0.6386 C   0  0  0  0  0  0  0  0  0  0  0  0
    2.6720   -1.2795    1.4036 C   0  0  0  0  0  0  0  0  0  0  0  0
    1.3427   -0.8838    1.1663 C   0  0  0  0  0  0  0  0  0  0  0  0
    5.0684   -1.2492    0.9268 C   0  0  0  0  0  0  0  0  0  0  0  0
    5.2412   -2.0904    1.8440 O   0  0  0  0  0  0  0  0  0  0  0  0
    6.1861   -0.7711    0.2187 N   0  0  0  0  0  0  0  0  0  0  0  0
    7.5131   -1.2523    0.5530 C   0  0  0  0  0  0  0  0  0  0  0  0
    8.2724   -0.0548    1.1151 C   0  0  0  0  0  0  0  0  0  0  0  0
    9.7346   -0.2611    0.7785 C   0  0  0  0  0  0  0  0  0  0  0  0
    9.8656    0.0476   -0.6413 N   0  0  0  0  0  0  0  0  0  0  0  0
    9.6392    1.4711   -0.8369 C   0  0  0  0  0  0  0  0  0  0  0  0
    8.9656   -0.7373   -1.4289 C   0  0  0  0  0  0  0  0  0  0  0  0
    8.2339   -1.7962   -0.6397 C   0  0  0  0  0  0  0  0  0  0  0  0
   -1.5306   -1.3998    0.6843 N   0  0  0  0  0  0  0  0  0  0  0  0
   -2.6754   -2.0475    0.9230 C   0  0  0  0  0  0  0  0  0  0  0  0
   -3.8418   -1.4079    0.5768 C   0  0  0  0  0  0  0  0  0  0  0  0
   -5.0802   -2.0630    0.8203 N   0  0  0  0  0  0  0  0  0  0  0  0
   -5.1454   -3.3881    1.4200 C   0  0  0  0  0  0  0  0  0  0  0  0
   -6.2609   -1.3648    0.4527 C   0  0  0  0  0  0  0  0  0  0  0  0
   -7.3370   -1.6095    1.0524 O   0  0  0  0  0  0  0  0  0  0  0  0
   -8.8670   -0.9051   -2.2141 H   0  0  0  0  0  0  0  0  0  0  0  0
   -9.2022   -1.1778   -0.4864 H   0  0  0  0  0  0  0  0  0  0  0  0
   -7.7842   -1.9753   -1.3332 H   0  0  0  0  0  0  0  0  0  0  0  0
   -7.6824    0.8833   -1.6766 H   0  0  0  0  0  0  0  0  0  0  0  0
   -7.9241    0.5714    0.0813 H   0  0  0  0  0  0  0  0  0  0  0  0
   -5.8543   -0.9412   -1.5871 H   0  0  0  0  0  0  0  0  0  0  0  0
   -3.9921    2.3214   -0.1292 H   0  0  0  0  0  0  0  0  0  0  0  0
   -6.5142    1.9794    1.3027 H   0  0  0  0  0  0  0  0  0  0  0  0
   -5.2745    3.1985    1.4394 H   0  0  0  0  0  0  0  0  0  0  0  0
   -6.3929    4.7644    0.3102 H   0  0  0  0  0  0  0  0  0  0  0  0
   -7.7707    3.6643    0.1597 H   0  0  0  0  0  0  0  0  0  0  0  0
   -7.2512    3.4183   -2.0557 H   0  0  0  0  0  0  0  0  0  0  0  0
   -5.9801    4.6532   -1.9099 H   0  0  0  0  0  0  0  0  0  0  0  0
   -4.4280    3.0461   -2.1599 H   0  0  0  0  0  0  0  0  0  0  0  0
   -5.6384    1.8208   -2.4679 H   0  0  0  0  0  0  0  0  0  0  0  0
   -0.2970    1.4157   -0.6005 H   0  0  0  0  0  0  0  0  0  0  0  0
    1.8886    1.1596   -1.4172 H   0  0  0  0  0  0  0  0  0  0  0  0
    4.2240    0.4441   -0.9773 H   0  0  0  0  0  0  0  0  0  0  0  0
    2.8309   -1.9738    2.2180 H   0  0  0  0  0  0  0  0  0  0  0  0
    0.5721   -1.2733    1.8119 H   0  0  0  0  0  0  0  0  0  0  0  0
    6.1291   -0.0658   -0.5629 H   0  0  0  0  0  0  0  0  0  0  0  0
    7.4528   -1.9997    1.3616 H   0  0  0  0  0  0  0  0  0  0  0  0
    8.1093   -0.0202    2.2143 H   0  0  0  0  0  0  0  0  0  0  0  0
    7.8902    0.8859    0.6721 H   0  0  0  0  0  0  0  0  0  0  0  0
   10.0350   -1.3131    0.9169 H   0  0  0  0  0  0  0  0  0  0  0  0
   10.3902    0.4231    1.3556 H   0  0  0  0  0  0  0  0  0  0  0  0
   10.3857    1.8483   -1.5752 H   0  0  0  0  0  0  0  0  0  0  0  0
    9.8179    1.9897    0.1133 H   0  0  0  0  0  0  0  0  0  0  0  0
    8.5972    1.6690   -1.1688 H   0  0  0  0  0  0  0  0  0  0  0  0
    9.5810   -1.2757   -2.1956 H   0  0  0  0  0  0  0  0  0  0  0  0
    8.2371   -0.1003   -2.0030 H   0  0  0  0  0  0  0  0  0  0  0  0
    7.5307   -2.2976   -1.3485 H   0  0  0  0  0  0  0  0  0  0  0  0
    8.9979   -2.5513   -0.3190 H   0  0  0  0  0  0  0  0  0  0  0  0
   -2.7216   -3.0244    1.3643 H   0  0  0  0  0  0  0  0  0  0  0  0
   -6.2135   -3.6353    1.5874 H   0  0  0  0  0  0  0  0  0  0  0  0
   -4.6303   -3.4386    2.3869 H   0  0  0  0  0  0  0  0  0  0  0  0
   -4.6926   -4.1570    0.7407 H   0  0  0  0  0  0  0  0  0  0  0  0
  1  2  1  0
  2  3  1  0
  3  4  1  0
  4  5  1  0
  5  6  1  0
  6  7  1  0
  7  8  1  0
  8  9  1  0
  4 10  1  0
 10 11  2  0
 11 12  1  0
 12 13  1  0
 13 14  1  0
 14 15  2  0
 15 16  1  0
 16 17  2  0
 17 18  1  0
 18 19  2  0
 17 20  1  0
 20 21  2  0
 20 22  1  0
 22 23  1  0
 23 24  1  0
 24 25  1  0
 25 26  1  0
 26 27  1  0
 26 28  1  0
 28 29  1  0
 12 30  2  0
 30 31  1  0
 31 32  2  0
 32 33  1  0
 33 34  1  0
 33 35  1  0
 35 36  2  0
 35  3  1  0
  9  5  1  0
 32 10  1  0
 19 14  1  0
 29 23  1  0
  1 37  1  0
  1 38  1  0
  1 39  1  0
  2 40  1  0
  2 41  1  0
  3 42  1  6
  5 43  1  0
  6 44  1  0
  6 45  1  0
  7 46  1  0
  7 47  1  0
  8 48  1  0
  8 49  1  0
  9 50  1  0
  9 51  1  0
 13 52  1  0
 15 53  1  0
 16 54  1  0
 18 55  1  0
 19 56  1  0
 22 57  1  0
 23 58  1  0
 24 59  1  0
 24 60  1  0
 25 61  1  0
 25 62  1  0
 27 63  1  0
 27 64  1  0
 27 65  1  0
 28 66  1  0
 28 67  1  0
 29 68  1  0
 29 69  1  0
 31 70  1  0
 34 71  1  0
 34 72  1  0
 34 73  1  0
M  END
$$$$
[H]O[C@@]([H])(C([H])([H])N([H])C(=O)c1c(C([H])([H])[H])c(/C([H])=C2\C(=O)N([H])c3c([H])c([H])c(F)c([H])c32)n([H])c1C([H])([H])[H])C([H])([H])N1C([H])([H])C([H])([H])OC([H])([H])C1([H])[H]
     RDKit          3D

 59 62  0  0  0  0  0  0  0  0999 V2000
    0.5434    1.8709   -1.4311 C   0  0  0  0  0  0  0  0  0  0  0  0
   -0.4427    0.9570   -0.7965 C   0  0  0  0  0  0  0  0  0  0  0  0
   -1.7020    1.3372   -0.3875 N   0  0  0  0  0  0  0  0  0  0  0  0
   -2.3133    0.3080    0.1594 C   0  0  0  0  0  0  0  0  0  0  0  0
   -3.6480    0.2411    0.7055 C   0  0  0  0  0  0  0  0  0  0  0  0
   -4.7607    0.5357    0.0615 C   0  0  0  0  0  0  0  0  0  0  0  0
   -4.8813    0.9776   -1.3199 C   0  0  0  0  0  0  0  0  0  0  0  0
   -3.9652    1.1413   -2.1757 O   0  0  0  0  0  0  0  0  0  0  0  0
   -6.2822    1.1939   -1.5277 N   0  0  0  0  0  0  0  0  0  0  0  0
   -7.0185    0.9059   -0.3463 C   0  0  0  0  0  0  0  0  0  0  0  0
   -8.3804    0.9570   -0.0375 C   0  0  0  0  0  0  0  0  0  0  0  0
   -8.8185    0.6128    1.2203 C   0  0  0  0  0  0  0  0  0  0  0  0
   -7.9450    0.2111    2.2067 C   0  0  0  0  0  0  0  0  0  0  0  0
   -8.3926   -0.1282    3.4510 F   0  0  0  0  0  0  0  0  0  0  0  0
   -6.6088    0.1700    1.8745 C   0  0  0  0  0  0  0  0  0  0  0  0
   -6.1273    0.5074    0.6247 C   0  0  0  0  0  0  0  0  0  0  0  0
   -1.4539   -0.7490    0.1101 C   0  0  0  0  0  0  0  0  0  0  0  0
   -1.7160   -2.1333    0.6175 C   0  0  0  0  0  0  0  0  0  0  0  0
   -0.2276   -0.3619   -0.5071 C   0  0  0  0  0  0  0  0  0  0  0  0
    0.8684   -1.2679   -0.7407 C   0  0  0  0  0  0  0  0  0  0  0  0
    0.8415   -2.3820   -0.1194 O   0  0  0  0  0  0  0  0  0  0  0  0
    1.9546   -1.0550   -1.5785 N   0  0  0  0  0  0  0  0  0  0  0  0
    3.0570   -1.9381   -1.8104 C   0  0  0  0  0  0  0  0  0  0  0  0
    3.9689   -2.3180   -0.7358 C   0  0  2  0  0  0  0  0  0  0  0  0
    3.4757   -2.9311    0.3958 O   0  0  0  0  0  0  0  0  0  0  0  0
    5.1734   -1.5126   -0.4315 C   0  0  0  0  0  0  0  0  0  0  0  0
    5.0802   -0.4764    0.5535 N   0  0  0  0  0  0  0  0  0  0  0  0
    6.4545   -0.0090    0.7838 C   0  0  0  0  0  0  0  0  0  0  0  0
    6.5092    1.1618    1.6985 C   0  0  0  0  0  0  0  0  0  0  0  0
    5.2437    1.7672    1.8516 O   0  0  0  0  0  0  0  0  0  0  0  0
    4.7890    1.9593    0.5478 C   0  0  0  0  0  0  0  0  0  0  0  0
    4.2723    0.6120    0.0523 C   0  0  0  0  0  0  0  0  0  0  0  0
    0.6208    1.7579   -2.5114 H   0  0  0  0  0  0  0  0  0  0  0  0
    1.5339    1.8130   -0.9175 H   0  0  0  0  0  0  0  0  0  0  0  0
    0.1820    2.9283   -1.2325 H   0  0  0  0  0  0  0  0  0  0  0  0
   -2.0481    2.3309   -0.5171 H   0  0  0  0  0  0  0  0  0  0  0  0
   -3.8121   -0.0819    1.7595 H   0  0  0  0  0  0  0  0  0  0  0  0
   -6.6783    1.5177   -2.4309 H   0  0  0  0  0  0  0  0  0  0  0  0
   -9.0579    1.2661   -0.7945 H   0  0  0  0  0  0  0  0  0  0  0  0
   -9.8799    0.6411    1.4979 H   0  0  0  0  0  0  0  0  0  0  0  0
   -5.8716   -0.1358    2.5994 H   0  0  0  0  0  0  0  0  0  0  0  0
   -2.7998   -2.2109    0.8768 H   0  0  0  0  0  0  0  0  0  0  0  0
   -1.5684   -2.9046   -0.1895 H   0  0  0  0  0  0  0  0  0  0  0  0
   -1.1456   -2.3493    1.5271 H   0  0  0  0  0  0  0  0  0  0  0  0
    1.9329   -0.1227   -2.1140 H   0  0  0  0  0  0  0  0  0  0  0  0
    3.7030   -1.4496   -2.6197 H   0  0  0  0  0  0  0  0  0  0  0  0
    2.6802   -2.8543   -2.3936 H   0  0  0  0  0  0  0  0  0  0  0  0
    4.4993   -3.2973   -1.2347 H   0  0  0  0  0  0  0  0  0  0  0  0
    3.5028   -2.2677    1.1293 H   0  0  0  0  0  0  0  0  0  0  0  0
    5.5638   -1.0571   -1.4030 H   0  0  0  0  0  0  0  0  0  0  0  0
    6.0509   -2.1641   -0.1280 H   0  0  0  0  0  0  0  0  0  0  0  0
    6.9472    0.1397   -0.1746 H   0  0  0  0  0  0  0  0  0  0  0  0
    6.9517   -0.8720    1.2990 H   0  0  0  0  0  0  0  0  0  0  0  0
    6.9905    0.9784    2.6724 H   0  0  0  0  0  0  0  0  0  0  0  0
    7.1373    1.9603    1.2073 H   0  0  0  0  0  0  0  0  0  0  0  0
    5.5465    2.3883   -0.1148 H   0  0  0  0  0  0  0  0  0  0  0  0
    3.9366    2.6683    0.5646 H   0  0  0  0  0  0  0  0  0  0  0  0
    3.2700    0.5184    0.5051 H   0  0  0  0  0  0  0  0  0  0  0  0
    4.2644    0.6939   -1.0422 H   0  0  0  0  0  0  0  0  0  0  0  0
  1  2  1  0
  2  3  1  0
  3  4  1  0
  4  5  1  0
  5  6  2  0
  6  7  1  0
  7  8  2  0
  7  9  1  0
  9 10  1  0
 10 11  2  0
 11 12  1  0
 12 13  2  0
 13 14  1  0
 13 15  1  0
 15 16  2  0
  4 17  2  0
 17 18  1  0
 17 19  1  0
 19 20  1  0
 20 21  2  0
 20 22  1  0
 22 23  1  0
 23 24  1  0
 24 25  1  0
 24 26  1  0
 26 27  1  0
 27 28  1  0
 28 29  1  0
 29 30  1  0
 30 31  1  0
 31 32  1  0
 19  2  2  0
 32 27  1  0
 16  6  1  0
 16 10  1  0
  1 33  1  0
  1 34  1  0
  1 35  1  0
  3 36  1  0
  5 37  1  0
  9 38  1  0
 11 39  1  0
 12 40  1  0
 15 41  1  0
 18 42  1  0
 18 43  1  0
 18 44  1  0
 22 45  1  0
 23 46  1  0
 23 47  1  0
 24 48  1  6
 25 49  1  0
 26 50  1  0
 26 51  1  0
 28 52  1  0
 28 53  1  0
 29 54  1  0
 29 55  1  0
 31 56  1  0
 31 57  1  0
 32 58  1  0
 32 59  1  0
M  END
$$$$
[H]C1=C([H])C([H])(F)C([H])([H])C([H])=C1N([H])C(=O)C1(C(=O)N([H])c2c([H])c([H])c(Oc3c([H])c([H])nc4c([H])c(OC([H])([H])C([H])([H])C([H])([H])N5C([H])([H])C([H])([H])C([H])([H])C5([H])[H])c(OC([H])([H])[H])c([H])c34)c(F)c2[H])C([H])([H])C1([H])[H]
     RDKit          3D

 81 86  0  0  0  0  0  0  0  0999 V2000
   -3.5877    0.0230   -2.5605 C   0  0  0  0  0  0  0  0  0  0  0  0
   -4.4433   -0.0435   -1.4508 O   0  0  0  0  0  0  0  0  0  0  0  0
   -3.9880   -0.2494   -0.1491 C   0  0  0  0  0  0  0  0  0  0  0  0
   -2.6478   -0.3994    0.1096 C   0  0  0  0  0  0  0  0  0  0  0  0
   -2.1587   -0.6042    1.3755 C   0  0  0  0  0  0  0  0  0  0  0  0
   -0.7923   -0.7567    1.6112 C   0  0  0  0  0  0  0  0  0  0  0  0
    0.0250   -0.6916    0.5279 O   0  0  0  0  0  0  0  0  0  0  0  0
    1.3913   -0.8525    0.4754 C   0  0  0  0  0  0  0  0  0  0  0  0
    2.2342    0.1729    0.0692 C   0  0  0  0  0  0  0  0  0  0  0  0
    3.5918   -0.0103    0.0220 C   0  0  0  0  0  0  0  0  0  0  0  0
    4.2120   -1.2204    0.3732 C   0  0  0  0  0  0  0  0  0  0  0  0
    5.6358   -1.3113    0.3171 N   0  0  0  0  0  0  0  0  0  0  0  0
    6.4056   -2.4553    0.1478 C   0  0  0  0  0  0  0  0  0  0  0  0
    5.7718   -3.5663    0.0427 O   0  0  0  0  0  0  0  0  0  0  0  0
    7.8601   -2.5227    0.0895 C   0  0  0  0  0  0  0  0  0  0  0  0
    8.4588   -3.8753   -0.2867 C   0  0  0  0  0  0  0  0  0  0  0  0
    8.4428   -3.4847    1.1392 C   0  0  0  0  0  0  0  0  0  0  0  0
    8.7035   -1.3424   -0.2300 C   0  0  0  0  0  0  0  0  0  0  0  0
    9.9255   -1.4864    0.1717 O   0  0  0  0  0  0  0  0  0  0  0  0
    8.2626   -0.2155   -0.8859 N   0  0  0  0  0  0  0  0  0  0  0  0
    8.9663    0.9916   -1.2279 C   0  0  0  0  0  0  0  0  0  0  0  0
   10.2261    1.1961   -0.9431 C   0  0  0  0  0  0  0  0  0  0  0  0
   10.9546    2.4310   -1.2907 C   0  0  0  0  0  0  0  0  0  0  0  0
   10.1946    3.4846   -1.9837 C   0  0  0  0  0  0  0  0  0  0  0  0
   10.2335    4.6437   -1.1848 F   0  0  0  0  0  0  0  0  0  0  0  0
    8.8021    3.1813   -2.2644 C   0  0  0  0  0  0  0  0  0  0  0  0
    8.2359    2.0634   -1.9301 C   0  0  0  0  0  0  0  0  0  0  0  0
    3.3805   -2.2291    0.7736 C   0  0  0  0  0  0  0  0  0  0  0  0
    1.9865   -2.0377    0.8203 C   0  0  0  0  0  0  0  0  0  0  0  0
    1.2365   -3.0982    1.2142 F   0  0  0  0  0  0  0  0  0  0  0  0
   -0.4287   -0.9581    2.9201 C   0  0  0  0  0  0  0  0  0  0  0  0
   -1.3521   -1.0070    3.9339 C   0  0  0  0  0  0  0  0  0  0  0  0
   -2.6377   -0.8567    3.6575 N   0  0  0  0  0  0  0  0  0  0  0  0
   -3.0892   -0.6527    2.3915 C   0  0  0  0  0  0  0  0  0  0  0  0
   -4.4416   -0.5052    2.1646 C   0  0  0  0  0  0  0  0  0  0  0  0
   -4.8811   -0.3029    0.8827 C   0  0  0  0  0  0  0  0  0  0  0  0
   -6.2490   -0.1596    0.6965 O   0  0  0  0  0  0  0  0  0  0  0  0
   -7.1921   -0.2052    1.7204 C   0  0  0  0  0  0  0  0  0  0  0  0
   -8.5663   -0.0150    1.1322 C   0  0  0  0  0  0  0  0  0  0  0  0
   -8.6955    1.3020    0.4220 C   0  0  0  0  0  0  0  0  0  0  0  0
  -10.0037    1.4621   -0.1281 N   0  0  0  0  0  0  0  0  0  0  0  0
  -10.2287    2.6808   -0.8350 C   0  0  0  0  0  0  0  0  0  0  0  0
  -11.1566    2.3511   -2.0081 C   0  0  0  0  0  0  0  0  0  0  0  0
  -11.7165    1.0092   -1.5741 C   0  0  0  0  0  0  0  0  0  0  0  0
  -10.4689    0.3786   -0.9383 C   0  0  0  0  0  0  0  0  0  0  0  0
   -4.1462    0.4826   -3.4058 H   0  0  0  0  0  0  0  0  0  0  0  0
   -2.7486    0.7305   -2.3481 H   0  0  0  0  0  0  0  0  0  0  0  0
   -3.2042   -0.9751   -2.8684 H   0  0  0  0  0  0  0  0  0  0  0  0
   -1.9172   -0.3599   -0.6920 H   0  0  0  0  0  0  0  0  0  0  0  0
    1.7492    1.1006   -0.1989 H   0  0  0  0  0  0  0  0  0  0  0  0
    4.2444    0.7990   -0.2985 H   0  0  0  0  0  0  0  0  0  0  0  0
    6.1068   -0.3582    0.4880 H   0  0  0  0  0  0  0  0  0  0  0  0
    7.7266   -4.6220   -0.6534 H   0  0  0  0  0  0  0  0  0  0  0  0
    9.4183   -3.8918   -0.8472 H   0  0  0  0  0  0  0  0  0  0  0  0
    9.4104   -3.1476    1.6028 H   0  0  0  0  0  0  0  0  0  0  0  0
    7.7630   -3.9592    1.8454 H   0  0  0  0  0  0  0  0  0  0  0  0
    7.2650   -0.2466   -1.2614 H   0  0  0  0  0  0  0  0  0  0  0  0
   10.8241    0.4296   -0.4110 H   0  0  0  0  0  0  0  0  0  0  0  0
   11.8456    2.1794   -1.9484 H   0  0  0  0  0  0  0  0  0  0  0  0
   11.3908    2.8108   -0.3161 H   0  0  0  0  0  0  0  0  0  0  0  0
   10.6645    3.7949   -2.9610 H   0  0  0  0  0  0  0  0  0  0  0  0
    8.2315    3.9729   -2.7929 H   0  0  0  0  0  0  0  0  0  0  0  0
    7.1670    1.8981   -2.1758 H   0  0  0  0  0  0  0  0  0  0  0  0
    3.7856   -3.1876    1.0764 H   0  0  0  0  0  0  0  0  0  0  0  0
    0.6075   -1.0712    3.1537 H   0  0  0  0  0  0  0  0  0  0  0  0
   -1.0717   -1.1659    4.9745 H   0  0  0  0  0  0  0  0  0  0  0  0
   -5.1120   -0.5552    3.0169 H   0  0  0  0  0  0  0  0  0  0  0  0
   -7.1820   -1.2490    2.1462 H   0  0  0  0  0  0  0  0  0  0  0  0
   -6.9796    0.4646    2.5680 H   0  0  0  0  0  0  0  0  0  0  0  0
   -9.3685   -0.0413    1.9143 H   0  0  0  0  0  0  0  0  0  0  0  0
   -8.7385   -0.8568    0.4359 H   0  0  0  0  0  0  0  0  0  0  0  0
   -8.5595    2.1075    1.1881 H   0  0  0  0  0  0  0  0  0  0  0  0
   -7.8715    1.4342   -0.3151 H   0  0  0  0  0  0  0  0  0  0  0  0
  -10.7856    3.4045   -0.1999 H   0  0  0  0  0  0  0  0  0  0  0  0
   -9.3011    3.1863   -1.1756 H   0  0  0  0  0  0  0  0  0  0  0  0
  -11.9700    3.1048   -2.1030 H   0  0  0  0  0  0  0  0  0  0  0  0
  -10.5960    2.2617   -2.9622 H   0  0  0  0  0  0  0  0  0  0  0  0
  -12.4672    1.2054   -0.7918 H   0  0  0  0  0  0  0  0  0  0  0  0
  -12.0978    0.4163   -2.4102 H   0  0  0  0  0  0  0  0  0  0  0  0
  -10.7030   -0.5229   -0.3684 H   0  0  0  0  0  0  0  0  0  0  0  0
   -9.7919    0.1704   -1.8195 H   0  0  0  0  0  0  0  0  0  0  0  0
  1  2  1  0
  2  3  1  0
  3  4  2  0
  4  5  1  0
  5  6  2  0
  6  7  1  0
  7  8  1  0
  8  9  2  0
  9 10  1  0
 10 11  2  0
 11 12  1  0
 12 13  1  0
 13 14  2  0
 13 15  1  0
 15 16  1  0
 16 17  1  0
 15 18  1  0
 18 19  2  0
 18 20  1  0
 20 21  1  0
 21 22  2  0
 22 23  1  0
 23 24  1  0
 24 25  1  0
 24 26  1  0
 26 27  2  0
 11 28  1  0
 28 29  2  0
 29 30  1  0
  6 31  1  0
 31 32  2  0
 32 33  1  0
 33 34  2  0
 34 35  1  0
 35 36  2  0
 36 37  1  0
 37 38  1  0
 38 39  1  0
 39 40  1  0
 40 41  1  0
 41 42  1  0
 42 43  1  0
 43 44  1  0
 44 45  1  0
 36  3  1  0
 45 41  1  0
 34  5  1  0
 29  8  1  0
 17 15  1  0
 27 21  1  0
  1 46  1  0
  1 47  1  0
  1 48  1  0
  4 49  1  0
  9 50  1  0
 10 51  1  0
 12 52  1  0
 16 53  1  0
 16 54  1  0
 17 55  1  0
 17 56  1  0
 20 57  1  0
 22 58  1  0
 23 59  1  0
 23 60  1  0
 24 61  1  0
 26 62  1  0
 27 63  1  0
 28 64  1  0
 31 65  1  0
 32 66  1  0
 35 67  1  0
 38 68  1  0
 38 69  1  0
 39 70  1  0
 39 71  1  0
 40 72  1  0
 40 73  1  0
 42 74  1  0
 42 75  1  0
 43 76  1  0
 43 77  1  0
 44 78  1  0
 44 79  1  0
 45 80  1  0
 45 81  1  0
M  END
$$$$
[H]O[C@@]([H])(C([H])([H])N([H])C(=O)c1c(C([H])([H])[H])c(/C([H])=C2\C(=O)N([H])c3c([H])c([H])c(F)c([H])c32)n([H])c1C([H])([H])[H])C([H])([H])N1C([H])([H])C([H])([H])C([H])([H])C1([H])[H]
     RDKit          3D

 58 61  0  0  0  0  0  0  0  0999 V2000
   -0.8227   -0.5506    3.2377 C   0  0  0  0  0  0  0  0  0  0  0  0
   -1.4020   -0.2058    1.9009 C   0  0  0  0  0  0  0  0  0  0  0  0
   -2.6919    0.2064    1.7116 N   0  0  0  0  0  0  0  0  0  0  0  0
   -2.9448    0.4538    0.4229 C   0  0  0  0  0  0  0  0  0  0  0  0
   -4.1585    0.8891   -0.2560 C   0  0  0  0  0  0  0  0  0  0  0  0
   -5.3276    0.2826   -0.1986 C   0  0  0  0  0  0  0  0  0  0  0  0
   -5.6490   -0.9198    0.5258 C   0  0  0  0  0  0  0  0  0  0  0  0
   -4.8752   -1.6292    1.2116 O   0  0  0  0  0  0  0  0  0  0  0  0
   -7.0545   -1.1580    0.3051 N   0  0  0  0  0  0  0  0  0  0  0  0
   -7.5713   -0.1357   -0.5267 C   0  0  0  0  0  0  0  0  0  0  0  0
   -8.8581    0.0937   -1.0312 C   0  0  0  0  0  0  0  0  0  0  0  0
   -9.1559    1.1693   -1.8391 C   0  0  0  0  0  0  0  0  0  0  0  0
   -8.1353    2.0475   -2.1552 C   0  0  0  0  0  0  0  0  0  0  0  0
   -8.4288    3.1077   -2.9517 F   0  0  0  0  0  0  0  0  0  0  0  0
   -6.8638    1.8250   -1.6590 C   0  0  0  0  0  0  0  0  0  0  0  0
   -6.5770    0.7488   -0.8543 C   0  0  0  0  0  0  0  0  0  0  0  0
   -1.7522    0.1827   -0.2220 C   0  0  0  0  0  0  0  0  0  0  0  0
   -1.5683    0.3270   -1.6923 C   0  0  0  0  0  0  0  0  0  0  0  0
   -0.7791   -0.2303    0.6849 C   0  0  0  0  0  0  0  0  0  0  0  0
    0.5685   -0.5943    0.2968 C   0  0  0  0  0  0  0  0  0  0  0  0
    0.8953   -0.4262   -0.9427 O   0  0  0  0  0  0  0  0  0  0  0  0
    1.5731   -1.1115    1.1047 N   0  0  0  0  0  0  0  0  0  0  0  0
    2.9150   -1.4725    0.7889 C   0  0  0  0  0  0  0  0  0  0  0  0
    3.8509   -0.4221    0.3316 C   0  0  2  0  0  0  0  0  0  0  0  0
    3.5467    0.2205   -0.8405 O   0  0  0  0  0  0  0  0  0  0  0  0
    5.2480   -1.0404    0.1761 C   0  0  0  0  0  0  0  0  0  0  0  0
    6.2658   -0.1096   -0.0710 N   0  0  0  0  0  0  0  0  0  0  0  0
    6.3138    0.5653   -1.3124 C   0  0  0  0  0  0  0  0  0  0  0  0
    7.7718    0.8655   -1.6173 C   0  0  0  0  0  0  0  0  0  0  0  0
    8.4976    0.5654   -0.3271 C   0  0  0  0  0  0  0  0  0  0  0  0
    7.5889   -0.4821    0.3043 C   0  0  0  0  0  0  0  0  0  0  0  0
    0.0211    0.1378    3.4417 H   0  0  0  0  0  0  0  0  0  0  0  0
   -0.6285   -1.6112    3.3816 H   0  0  0  0  0  0  0  0  0  0  0  0
   -1.5836   -0.2599    4.0227 H   0  0  0  0  0  0  0  0  0  0  0  0
   -3.3614    0.3198    2.4959 H   0  0  0  0  0  0  0  0  0  0  0  0
   -4.1471    1.8025   -0.8860 H   0  0  0  0  0  0  0  0  0  0  0  0
   -7.5651   -1.9607    0.7087 H   0  0  0  0  0  0  0  0  0  0  0  0
   -9.6182   -0.6074   -0.7636 H   0  0  0  0  0  0  0  0  0  0  0  0
  -10.1798    1.3181   -2.2168 H   0  0  0  0  0  0  0  0  0  0  0  0
   -6.0790    2.5148   -1.9111 H   0  0  0  0  0  0  0  0  0  0  0  0
   -0.7834    1.0705   -1.9372 H   0  0  0  0  0  0  0  0  0  0  0  0
   -1.2705   -0.6567   -2.1355 H   0  0  0  0  0  0  0  0  0  0  0  0
   -2.4861    0.6361   -2.1894 H   0  0  0  0  0  0  0  0  0  0  0  0
    1.3145   -1.2788    2.1275 H   0  0  0  0  0  0  0  0  0  0  0  0
    2.8408   -2.2224   -0.0604 H   0  0  0  0  0  0  0  0  0  0  0  0
    3.4153   -2.0238    1.6471 H   0  0  0  0  0  0  0  0  0  0  0  0
    3.9490    0.4068    1.1059 H   0  0  0  0  0  0  0  0  0  0  0  0
    3.6787   -0.4392   -1.5931 H   0  0  0  0  0  0  0  0  0  0  0  0
    5.4592   -1.6410    1.1018 H   0  0  0  0  0  0  0  0  0  0  0  0
    5.1642   -1.7287   -0.7079 H   0  0  0  0  0  0  0  0  0  0  0  0
    5.9594   -0.1267   -2.1187 H   0  0  0  0  0  0  0  0  0  0  0  0
    5.6817    1.4755   -1.3972 H   0  0  0  0  0  0  0  0  0  0  0  0
    8.1561    0.2297   -2.4462 H   0  0  0  0  0  0  0  0  0  0  0  0
    7.9274    1.9342   -1.8492 H   0  0  0  0  0  0  0  0  0  0  0  0
    8.5995    1.4712    0.3104 H   0  0  0  0  0  0  0  0  0  0  0  0
    9.4763    0.1044   -0.5707 H   0  0  0  0  0  0  0  0  0  0  0  0
    7.8587   -1.4653   -0.1102 H   0  0  0  0  0  0  0  0  0  0  0  0
    7.7816   -0.4617    1.4033 H   0  0  0  0  0  0  0  0  0  0  0  0
  1  2  1  0
  2  3  1  0
  3  4  1  0
  4  5  1  0
  5  6  2  0
  6  7  1  0
  7  8  2  0
  7  9  1  0
  9 10  1  0
 10 11  2  0
 11 12  1  0
 12 13  2  0
 13 14  1  0
 13 15  1  0
 15 16  2  0
  4 17  2  0
 17 18  1  0
 17 19  1  0
 19 20  1  0
 20 21  2  0
 20 22  1  0
 22 23  1  0
 23 24  1  0
 24 25  1  0
 24 26  1  0
 26 27  1  0
 27 28  1  0
 28 29  1  0
 29 30  1  0
 30 31  1  0
 19  2  2  0
 31 27  1  0
 16  6  1  0
 16 10  1  0
  1 32  1  0
  1 33  1  0
  1 34  1  0
  3 35  1  0
  5 36  1  0
  9 37  1  0
 11 38  1  0
 12 39  1  0
 15 40  1  0
 18 41  1  0
 18 42  1  0
 18 43  1  0
 22 44  1  0
 23 45  1  0
 23 46  1  0
 24 47  1  1
 25 48  1  0
 26 49  1  0
 26 50  1  0
 28 51  1  0
 28 52  1  0
 29 53  1  0
 29 54  1  0
 30 55  1  0
 30 56  1  0
 31 57  1  0
 31 58  1  0
M  END
$$$$
[H]c1nc(N([H])c2c([H])c([H])c(S(=O)(=O)N([H])C([H])([H])[H])c([H])c2[H])nc2c1N(C([H])([H])[H])C(=O)[C@@]([H])(C([H])([H])C([H])([H])[H])N2C1([H])C([H])([H])C([H])([H])C([H])([H])C1([H])[H]
     RDKit          3D

 59 62  0  0  0  0  0  0  0  0999 V2000
   -4.7134    2.6481   -0.9960 C   0  0  0  0  0  0  0  0  0  0  0  0
   -3.6725    1.5325   -1.0412 C   0  0  0  0  0  0  0  0  0  0  0  0
   -3.8651    0.7344    0.2397 C   0  0  1  0  0  0  0  0  0  0  0  0
   -2.8966   -0.3353    0.2378 N   0  0  0  0  0  0  0  0  0  0  0  0
   -3.1621   -1.7149    0.0944 C   0  0  0  0  0  0  0  0  0  0  0  0
   -4.0692   -2.2389    1.2032 C   0  0  0  0  0  0  0  0  0  0  0  0
   -5.3106   -2.6371    0.4401 C   0  0  0  0  0  0  0  0  0  0  0  0
   -4.6852   -3.2860   -0.8028 C   0  0  0  0  0  0  0  0  0  0  0  0
   -3.7567   -2.1322   -1.2136 C   0  0  0  0  0  0  0  0  0  0  0  0
   -1.5293    0.0816    0.4021 C   0  0  0  0  0  0  0  0  0  0  0  0
   -0.5132   -0.6689   -0.0361 N   0  0  0  0  0  0  0  0  0  0  0  0
    0.8072   -0.3195    0.0943 C   0  0  0  0  0  0  0  0  0  0  0  0
    1.7603   -1.1784   -0.4247 N   0  0  0  0  0  0  0  0  0  0  0  0
    3.1591   -1.0305   -0.3900 C   0  0  0  0  0  0  0  0  0  0  0  0
    3.9379   -1.7062   -1.3529 C   0  0  0  0  0  0  0  0  0  0  0  0
    5.2935   -1.6100   -1.3406 C   0  0  0  0  0  0  0  0  0  0  0  0
    5.9901   -0.8611   -0.4061 C   0  0  0  0  0  0  0  0  0  0  0  0
    5.2349   -0.2037    0.5312 C   0  0  0  0  0  0  0  0  0  0  0  0
    3.8449   -0.2894    0.5363 C   0  0  0  0  0  0  0  0  0  0  0  0
    7.7333   -0.7465   -0.4031 S   0  0  0  0  0  0  0  0  0  0  0  0
    8.3499   -2.0201   -0.9024 O   0  0  0  0  0  0  0  0  0  0  0  0
    8.1795   -0.5483    1.0232 O   0  0  0  0  0  0  0  0  0  0  0  0
    8.2807    0.5747   -1.3656 N   0  0  0  0  0  0  0  0  0  0  0  0
    7.7806    1.8089   -0.8359 C   0  0  0  0  0  0  0  0  0  0  0  0
    1.0935    0.8238    0.6866 N   0  0  0  0  0  0  0  0  0  0  0  0
    0.1109    1.6172    1.1460 C   0  0  0  0  0  0  0  0  0  0  0  0
   -1.2209    1.2773    1.0211 C   0  0  0  0  0  0  0  0  0  0  0  0
   -2.2415    2.1272    1.5123 N   0  0  0  0  0  0  0  0  0  0  0  0
   -1.9511    3.3894    2.1673 C   0  0  0  0  0  0  0  0  0  0  0  0
   -3.5939    1.7158    1.3508 C   0  0  0  0  0  0  0  0  0  0  0  0
   -4.5103    2.1492    2.0961 O   0  0  0  0  0  0  0  0  0  0  0  0
   -4.3253    3.4229   -0.3254 H   0  0  0  0  0  0  0  0  0  0  0  0
   -4.9237    3.0225   -2.0223 H   0  0  0  0  0  0  0  0  0  0  0  0
   -5.6276    2.2053   -0.5517 H   0  0  0  0  0  0  0  0  0  0  0  0
   -2.6774    1.9879   -1.1064 H   0  0  0  0  0  0  0  0  0  0  0  0
   -3.8819    0.9227   -1.9374 H   0  0  0  0  0  0  0  0  0  0  0  0
   -4.9003    0.4300    0.3442 H   0  0  0  0  0  0  0  0  0  0  0  0
   -2.2174   -2.2923    0.2034 H   0  0  0  0  0  0  0  0  0  0  0  0
   -3.6702   -3.1605    1.6557 H   0  0  0  0  0  0  0  0  0  0  0  0
   -4.2769   -1.4479    1.9558 H   0  0  0  0  0  0  0  0  0  0  0  0
   -5.8602   -1.7522    0.1238 H   0  0  0  0  0  0  0  0  0  0  0  0
   -5.9250   -3.3733    0.9957 H   0  0  0  0  0  0  0  0  0  0  0  0
   -4.0952   -4.1807   -0.5175 H   0  0  0  0  0  0  0  0  0  0  0  0
   -5.4362   -3.5003   -1.5686 H   0  0  0  0  0  0  0  0  0  0  0  0
   -4.3907   -1.4028   -1.7027 H   0  0  0  0  0  0  0  0  0  0  0  0
   -3.0083   -2.4946   -1.9489 H   0  0  0  0  0  0  0  0  0  0  0  0
    1.4200   -2.0736   -0.9138 H   0  0  0  0  0  0  0  0  0  0  0  0
    3.4108   -2.3036   -2.1018 H   0  0  0  0  0  0  0  0  0  0  0  0
    5.9016   -2.1248   -2.0754 H   0  0  0  0  0  0  0  0  0  0  0  0
    5.7400    0.4044    1.2952 H   0  0  0  0  0  0  0  0  0  0  0  0
    3.3228    0.2561    1.3348 H   0  0  0  0  0  0  0  0  0  0  0  0
    7.9442    0.4408   -2.3452 H   0  0  0  0  0  0  0  0  0  0  0  0
    7.9872    1.8100    0.2676 H   0  0  0  0  0  0  0  0  0  0  0  0
    6.6847    1.9074   -0.9587 H   0  0  0  0  0  0  0  0  0  0  0  0
    8.2890    2.6836   -1.3053 H   0  0  0  0  0  0  0  0  0  0  0  0
    0.3974    2.5422    1.6229 H   0  0  0  0  0  0  0  0  0  0  0  0
   -2.8797    3.9806    2.2462 H   0  0  0  0  0  0  0  0  0  0  0  0
   -1.6557    3.1420    3.2173 H   0  0  0  0  0  0  0  0  0  0  0  0
   -1.2108    3.9952    1.6359 H   0  0  0  0  0  0  0  0  0  0  0  0
  1  2  1  0
  2  3  1  0
  3  4  1  0
  4  5  1  0
  5  6  1  0
  6  7  1  0
  7  8  1  0
  8  9  1  0
  4 10  1  0
 10 11  2  0
 11 12  1  0
 12 13  1  0
 13 14  1  0
 14 15  2  0
 15 16  1  0
 16 17  2  0
 17 18  1  0
 18 19  2  0
 17 20  1  0
 20 21  2  0
 20 22  2  0
 20 23  1  0
 23 24  1  0
 12 25  2  0
 25 26  1  0
 26 27  2  0
 27 28  1  0
 28 29  1  0
 28 30  1  0
 30 31  2  0
 30  3  1  0
  9  5  1  0
 27 10  1  0
 19 14  1  0
  1 32  1  0
  1 33  1  0
  1 34  1  0
  2 35  1  0
  2 36  1  0
  3 37  1  1
  5 38  1  0
  6 39  1  0
  6 40  1  0
  7 41  1  0
  7 42  1  0
  8 43  1  0
  8 44  1  0
  9 45  1  0
  9 46  1  0
 13 47  1  0
 15 48  1  0
 16 49  1  0
 18 50  1  0
 19 51  1  0
 23 52  1  0
 24 53  1  0
 24 54  1  0
 24 55  1  0
 26 56  1  0
 29 57  1  0
 29 58  1  0
 29 59  1  0
M  END
$$$$
[H]c1nn(C([H])([H])[H])c([H])c1-c1c([H])c([H])c2c(nc([H])n2-c2sc(C(=O)N([H])[H])c(O[C@@]([H])(c3c([H])c([H])c([H])c([H])c3C(F)(F)F)C([H])([H])[H])c2[H])c1[H]
     RDKit          3D

 56 60  0  0  0  0  0  0  0  0999 V2000
   -4.1365    1.2522    2.2768 C   0  0  0  0  0  0  0  0  0  0  0  0
   -4.0592    0.8821    0.7486 C   0  0  1  0  0  0  0  0  0  0  0  0
   -3.6078   -0.4632    0.7016 O   0  0  0  0  0  0  0  0  0  0  0  0
   -2.2321   -0.8114    0.7287 C   0  0  0  0  0  0  0  0  0  0  0  0
   -1.2461    0.0976    0.8103 C   0  0  0  0  0  0  0  0  0  0  0  0
    0.0478   -0.3789    0.8282 C   0  0  0  0  0  0  0  0  0  0  0  0
   -0.1746   -2.0674    0.7303 S   0  0  0  0  0  0  0  0  0  0  0  0
   -1.8707   -2.1274    0.6703 C   0  0  0  0  0  0  0  0  0  0  0  0
   -2.7561   -3.3107    0.5786 C   0  0  0  0  0  0  0  0  0  0  0  0
   -2.1265   -4.5729    0.5147 N   0  0  0  0  0  0  0  0  0  0  0  0
   -4.0001   -3.2261    0.5565 O   0  0  0  0  0  0  0  0  0  0  0  0
    1.2498    0.3967    0.9162 N   0  0  0  0  0  0  0  0  0  0  0  0
    1.3556    1.6542    1.3702 C   0  0  0  0  0  0  0  0  0  0  0  0
    2.6420    2.0507    1.3070 N   0  0  0  0  0  0  0  0  0  0  0  0
    3.3726    1.0354    0.8061 C   0  0  0  0  0  0  0  0  0  0  0  0
    4.7134    0.8785    0.5285 C   0  0  0  0  0  0  0  0  0  0  0  0
    5.2465   -0.2717    0.0113 C   0  0  0  0  0  0  0  0  0  0  0  0
    4.3726   -1.3064   -0.2333 C   0  0  0  0  0  0  0  0  0  0  0  0
    3.0132   -1.1683    0.0402 C   0  0  0  0  0  0  0  0  0  0  0  0
    2.4683   -0.0089    0.5633 C   0  0  0  0  0  0  0  0  0  0  0  0
    6.6732   -0.3954   -0.2645 C   0  0  0  0  0  0  0  0  0  0  0  0
    7.4516   -1.5453   -0.2067 C   0  0  0  0  0  0  0  0  0  0  0  0
    8.7005   -1.1852   -0.5372 N   0  0  0  0  0  0  0  0  0  0  0  0
    8.7701    0.1024   -0.7990 N   0  0  0  0  0  0  0  0  0  0  0  0
   10.0052    0.7759   -1.1868 C   0  0  0  0  0  0  0  0  0  0  0  0
    7.5537    0.6011   -0.6401 C   0  0  0  0  0  0  0  0  0  0  0  0
   -5.4023    0.9724    0.1776 C   0  0  0  0  0  0  0  0  0  0  0  0
   -6.4776    1.0115    1.0664 C   0  0  0  0  0  0  0  0  0  0  0  0
   -7.7747    1.0989    0.6106 C   0  0  0  0  0  0  0  0  0  0  0  0
   -8.0665    1.1515   -0.7354 C   0  0  0  0  0  0  0  0  0  0  0  0
   -6.9990    1.1120   -1.5989 C   0  0  0  0  0  0  0  0  0  0  0  0
   -5.6615    1.0225   -1.1600 C   0  0  0  0  0  0  0  0  0  0  0  0
   -4.5697    0.9723   -2.1421 C   0  0  0  0  0  0  0  0  0  0  0  0
   -5.1737    1.1427   -3.4155 F   0  0  0  0  0  0  0  0  0  0  0  0
   -3.6501    1.9866   -2.0361 F   0  0  0  0  0  0  0  0  0  0  0  0
   -3.9906   -0.2859   -2.2663 F   0  0  0  0  0  0  0  0  0  0  0  0
   -4.5344    0.4152    2.8484 H   0  0  0  0  0  0  0  0  0  0  0  0
   -4.7119    2.1823    2.3087 H   0  0  0  0  0  0  0  0  0  0  0  0
   -3.0800    1.4950    2.5439 H   0  0  0  0  0  0  0  0  0  0  0  0
   -3.2915    1.5329    0.3773 H   0  0  0  0  0  0  0  0  0  0  0  0
   -1.3882    1.2046    0.8666 H   0  0  0  0  0  0  0  0  0  0  0  0
   -2.2927   -5.2942    1.2386 H   0  0  0  0  0  0  0  0  0  0  0  0
   -1.4845   -4.7905   -0.2675 H   0  0  0  0  0  0  0  0  0  0  0  0
    0.4965    2.2170    1.7224 H   0  0  0  0  0  0  0  0  0  0  0  0
    5.4021    1.6955    0.7214 H   0  0  0  0  0  0  0  0  0  0  0  0
    4.7388   -2.2301   -0.6385 H   0  0  0  0  0  0  0  0  0  0  0  0
    2.3362   -1.9998   -0.1628 H   0  0  0  0  0  0  0  0  0  0  0  0
    7.0571   -2.5012    0.0596 H   0  0  0  0  0  0  0  0  0  0  0  0
    9.8410    1.4635   -2.0430 H   0  0  0  0  0  0  0  0  0  0  0  0
   10.7954    0.0441   -1.4476 H   0  0  0  0  0  0  0  0  0  0  0  0
   10.3807    1.3564   -0.3245 H   0  0  0  0  0  0  0  0  0  0  0  0
    7.3038    1.6603   -0.7911 H   0  0  0  0  0  0  0  0  0  0  0  0
   -6.3246    0.9736    2.1447 H   0  0  0  0  0  0  0  0  0  0  0  0
   -8.6373    1.1313    1.2818 H   0  0  0  0  0  0  0  0  0  0  0  0
   -9.0742    1.2206   -1.1325 H   0  0  0  0  0  0  0  0  0  0  0  0
   -7.1933    1.1516   -2.6646 H   0  0  0  0  0  0  0  0  0  0  0  0
  1  2  1  0
  2  3  1  0
  3  4  1  0
  4  5  1  0
  5  6  2  0
  6  7  1  0
  7  8  1  0
  8  9  1  0
  9 10  1  0
  9 11  2  0
  6 12  1  0
 12 13  1  0
 13 14  2  0
 14 15  1  0
 15 16  2  0
 16 17  1  0
 17 18  2  0
 18 19  1  0
 19 20  2  0
 17 21  1  0
 21 22  1  0
 22 23  2  0
 23 24  1  0
 24 25  1  0
 24 26  1  0
  2 27  1  0
 27 28  2  0
 28 29  1  0
 29 30  2  0
 30 31  1  0
 31 32  2  0
 32 33  1  0
 33 34  1  0
 33 35  1  0
 33 36  1  0
  8  4  2  0
 20 12  1  0
 26 21  2  0
 32 27  1  0
 20 15  1  0
  1 37  1  0
  1 38  1  0
  1 39  1  0
  2 40  1  6
  5 41  1  0
 10 42  1  0
 10 43  1  0
 13 44  1  0
 16 45  1  0
 18 46  1  0
 19 47  1  0
 22 48  1  0
 25 49  1  0
 25 50  1  0
 25 51  1  0
 26 52  1  0
 28 53  1  0
 29 54  1  0
 30 55  1  0
 31 56  1  0
M  END
$$$$
[H]O[C@]([H])(C([H])([H])N([H])C(=O)c1c(C([H])([H])[H])c(/C([H])=C2\C(=O)N([H])c3c([H])c([H])c(F)c([H])c32)n([H])c1C([H])([H])[H])C([H])([H])N1C([H])([H])C([H])([H])OC([H])([H])C1([H])[H]
     RDKit          3D

 59 62  0  0  0  0  0  0  0  0999 V2000
   -0.0067    3.0051   -1.0071 C   0  0  0  0  0  0  0  0  0  0  0  0
   -0.8501    1.8317   -0.6247 C   0  0  0  0  0  0  0  0  0  0  0  0
   -2.0811    1.8440   -0.1243 N   0  0  0  0  0  0  0  0  0  0  0  0
   -2.5055    0.6096    0.0967 C   0  0  0  0  0  0  0  0  0  0  0  0
   -3.7672    0.1046    0.6046 C   0  0  0  0  0  0  0  0  0  0  0  0
   -4.9551    0.3616    0.1015 C   0  0  0  0  0  0  0  0  0  0  0  0
   -5.2686    1.1831   -1.0526 C   0  0  0  0  0  0  0  0  0  0  0  0
   -4.4447    1.7926   -1.8068 O   0  0  0  0  0  0  0  0  0  0  0  0
   -6.6877    1.1703   -1.1787 N   0  0  0  0  0  0  0  0  0  0  0  0
   -7.2854    0.3683   -0.1452 C   0  0  0  0  0  0  0  0  0  0  0  0
   -8.5932    0.0485    0.1572 C   0  0  0  0  0  0  0  0  0  0  0  0
   -8.8890   -0.7569    1.2253 C   0  0  0  0  0  0  0  0  0  0  0  0
   -7.8675   -1.2558    2.0099 C   0  0  0  0  0  0  0  0  0  0  0  0
   -8.1704   -2.0582    3.0732 F   0  0  0  0  0  0  0  0  0  0  0  0
   -6.5671   -0.9274    1.6946 C   0  0  0  0  0  0  0  0  0  0  0  0
   -6.2525   -0.1198    0.6256 C   0  0  0  0  0  0  0  0  0  0  0  0
   -1.4701   -0.2719   -0.2891 C   0  0  0  0  0  0  0  0  0  0  0  0
   -1.5634   -1.7560   -0.2190 C   0  0  0  0  0  0  0  0  0  0  0  0
   -0.4504    0.4817   -0.7334 C   0  0  0  0  0  0  0  0  0  0  0  0
    0.8421    0.0665   -1.2851 C   0  0  0  0  0  0  0  0  0  0  0  0
    1.4391    0.9461   -2.0019 O   0  0  0  0  0  0  0  0  0  0  0  0
    1.4641   -1.1610   -1.1017 N   0  0  0  0  0  0  0  0  0  0  0  0
    2.7215   -1.6317   -1.5988 C   0  0  0  0  0  0  0  0  0  0  0  0
    3.9100   -0.9040   -1.0858 C   0  0  1  0  0  0  0  0  0  0  0  0
    3.9623    0.4288   -1.4233 O   0  0  0  0  0  0  0  0  0  0  0  0
    3.9389   -1.0769    0.4336 C   0  0  0  0  0  0  0  0  0  0  0  0
    5.1145   -0.5489    1.0231 N   0  0  0  0  0  0  0  0  0  0  0  0
    6.3057   -1.2328    0.7606 C   0  0  0  0  0  0  0  0  0  0  0  0
    7.5650   -0.4418    0.7566 C   0  0  0  0  0  0  0  0  0  0  0  0
    7.4895    0.7846    1.3637 O   0  0  0  0  0  0  0  0  0  0  0  0
    6.4448    1.4794    0.7104 C   0  0  0  0  0  0  0  0  0  0  0  0
    5.1722    0.8464    1.2284 C   0  0  0  0  0  0  0  0  0  0  0  0
    0.0822    3.1015   -2.1049 H   0  0  0  0  0  0  0  0  0  0  0  0
    0.9945    2.8829   -0.5849 H   0  0  0  0  0  0  0  0  0  0  0  0
   -0.4526    3.9508   -0.6159 H   0  0  0  0  0  0  0  0  0  0  0  0
   -2.6066    2.7533    0.0695 H   0  0  0  0  0  0  0  0  0  0  0  0
   -3.7823   -0.5608    1.4939 H   0  0  0  0  0  0  0  0  0  0  0  0
   -7.2117    1.6663   -1.9082 H   0  0  0  0  0  0  0  0  0  0  0  0
   -9.3955    0.4290   -0.4451 H   0  0  0  0  0  0  0  0  0  0  0  0
   -9.9115   -1.0343    1.4983 H   0  0  0  0  0  0  0  0  0  0  0  0
   -5.7718   -1.3177    2.3089 H   0  0  0  0  0  0  0  0  0  0  0  0
   -2.6454   -2.0706   -0.0938 H   0  0  0  0  0  0  0  0  0  0  0  0
   -1.2591   -2.2559   -1.1569 H   0  0  0  0  0  0  0  0  0  0  0  0
   -1.0707   -2.1818    0.6776 H   0  0  0  0  0  0  0  0  0  0  0  0
    0.9409   -1.8713   -0.4745 H   0  0  0  0  0  0  0  0  0  0  0  0
    2.7227   -1.5655   -2.7387 H   0  0  0  0  0  0  0  0  0  0  0  0
    2.8856   -2.7214   -1.3345 H   0  0  0  0  0  0  0  0  0  0  0  0
    4.8252   -1.3984   -1.5342 H   0  0  0  0  0  0  0  0  0  0  0  0
    4.6728    0.6685   -2.0620 H   0  0  0  0  0  0  0  0  0  0  0  0
    3.8608   -2.1623    0.6551 H   0  0  0  0  0  0  0  0  0  0  0  0
    3.0333   -0.6218    0.8919 H   0  0  0  0  0  0  0  0  0  0  0  0
    6.4000   -2.0516    1.5425 H   0  0  0  0  0  0  0  0  0  0  0  0
    6.2394   -1.7948   -0.1894 H   0  0  0  0  0  0  0  0  0  0  0  0
    8.3678   -1.0168    1.3034 H   0  0  0  0  0  0  0  0  0  0  0  0
    7.9510   -0.2953   -0.2738 H   0  0  0  0  0  0  0  0  0  0  0  0
    6.5258    1.2239   -0.3654 H   0  0  0  0  0  0  0  0  0  0  0  0
    6.4620    2.5549    0.9159 H   0  0  0  0  0  0  0  0  0  0  0  0
    5.1227    1.0724    2.3311 H   0  0  0  0  0  0  0  0  0  0  0  0
    4.3267    1.4070    0.7958 H   0  0  0  0  0  0  0  0  0  0  0  0
  1  2  1  0
  2  3  1  0
  3  4  1  0
  4  5  1  0
  5  6  2  0
  6  7  1  0
  7  8  2  0
  7  9  1  0
  9 10  1  0
 10 11  2  0
 11 12  1  0
 12 13  2  0
 13 14  1  0
 13 15  1  0
 15 16  2  0
  4 17  2  0
 17 18  1  0
 17 19  1  0
 19 20  1  0
 20 21  2  0
 20 22  1  0
 22 23  1  0
 23 24  1  0
 24 25  1  0
 24 26  1  0
 26 27  1  0
 27 28  1  0
 28 29  1  0
 29 30  1  0
 30 31  1  0
 31 32  1  0
 19  2  2  0
 32 27  1  0
 16  6  1  0
 16 10  1  0
  1 33  1  0
  1 34  1  0
  1 35  1  0
  3 36  1  0
  5 37  1  0
  9 38  1  0
 11 39  1  0
 12 40  1  0
 15 41  1  0
 18 42  1  0
 18 43  1  0
 18 44  1  0
 22 45  1  0
 23 46  1  0
 23 47  1  0
 24 48  1  6
 25 49  1  0
 26 50  1  0
 26 51  1  0
 28 52  1  0
 28 53  1  0
 29 54  1  0
 29 55  1  0
 31 56  1  0
 31 57  1  0
 32 58  1  0
 32 59  1  0
M  END
$$$$
[H]C1=C([H])C([H])(F)C([H])([H])C([H])=C1N([H])C(=O)C1(C(=O)N([H])c2c([H])c([H])c(Oc3c([H])c([H])nc4c([H])c(OC([H])([H])C([H])([H])C([H])([H])N5C([H])([H])C([H])([H])C([H])([H])C([H])([H])C5([H])[H])c(OC([H])([H])[H])c([H])c34)c(F)c2[H])C([H])([H])C1([H])[H]
     RDKit          3D

 84 89  0  0  0  0  0  0  0  0999 V2000
    3.8941   -3.7132    0.1913 C   0  0  0  0  0  0  0  0  0  0  0  0
    4.6565   -2.6079   -0.2681 O   0  0  0  0  0  0  0  0  0  0  0  0
    4.0305   -1.4283   -0.6539 C   0  0  0  0  0  0  0  0  0  0  0  0
    2.6597   -1.2972   -0.6016 C   0  0  0  0  0  0  0  0  0  0  0  0
    2.0436   -0.1222   -0.9870 C   0  0  0  0  0  0  0  0  0  0  0  0
    0.6510    0.0367   -0.9451 C   0  0  0  0  0  0  0  0  0  0  0  0
   -0.0755   -1.0256   -0.4996 O   0  0  0  0  0  0  0  0  0  0  0  0
   -1.4492   -1.0402   -0.3255 C   0  0  0  0  0  0  0  0  0  0  0  0
   -2.2606   -1.8743   -1.0649 C   0  0  0  0  0  0  0  0  0  0  0  0
   -3.6423   -1.8715   -0.8692 C   0  0  0  0  0  0  0  0  0  0  0  0
   -4.2526   -1.0654    0.0403 C   0  0  0  0  0  0  0  0  0  0  0  0
   -5.6503   -1.0411    0.3103 N   0  0  0  0  0  0  0  0  0  0  0  0
   -6.4608   -2.1680    0.2347 C   0  0  0  0  0  0  0  0  0  0  0  0
   -5.8498   -3.2675   -0.0680 O   0  0  0  0  0  0  0  0  0  0  0  0
   -7.9176   -2.3168    0.4538 C   0  0  0  0  0  0  0  0  0  0  0  0
   -8.5358   -3.5604   -0.1118 C   0  0  0  0  0  0  0  0  0  0  0  0
   -8.2258   -3.5095    1.3287 C   0  0  0  0  0  0  0  0  0  0  0  0
   -8.8577   -1.1862    0.5085 C   0  0  0  0  0  0  0  0  0  0  0  0
  -10.0295   -1.5183    0.9875 O   0  0  0  0  0  0  0  0  0  0  0  0
   -8.6712    0.1344    0.1256 N   0  0  0  0  0  0  0  0  0  0  0  0
   -9.7018    1.1257    0.2594 C   0  0  0  0  0  0  0  0  0  0  0  0
  -10.1675    1.7824   -0.7844 C   0  0  0  0  0  0  0  0  0  0  0  0
  -11.2276    2.8066   -0.6621 C   0  0  0  0  0  0  0  0  0  0  0  0
  -11.7828    3.0373    0.6810 C   0  0  0  0  0  0  0  0  0  0  0  0
  -13.1708    2.8095    0.6256 F   0  0  0  0  0  0  0  0  0  0  0  0
  -11.1912    2.2557    1.7682 C   0  0  0  0  0  0  0  0  0  0  0  0
  -10.2373    1.3788    1.5761 C   0  0  0  0  0  0  0  0  0  0  0  0
   -3.4356   -0.2282    0.7824 C   0  0  0  0  0  0  0  0  0  0  0  0
   -2.0698   -0.2231    0.5976 C   0  0  0  0  0  0  0  0  0  0  0  0
   -1.3225    0.6137    1.3883 F   0  0  0  0  0  0  0  0  0  0  0  0
    0.0582    1.2154   -1.3358 C   0  0  0  0  0  0  0  0  0  0  0  0
    0.8455    2.2647   -1.7771 C   0  0  0  0  0  0  0  0  0  0  0  0
    2.1789    2.1086   -1.8152 N   0  0  0  0  0  0  0  0  0  0  0  0
    2.7728    0.9564   -1.4354 C   0  0  0  0  0  0  0  0  0  0  0  0
    4.1549    0.8104   -1.4827 C   0  0  0  0  0  0  0  0  0  0  0  0
    4.7873   -0.3669   -1.0977 C   0  0  0  0  0  0  0  0  0  0  0  0
    6.1653   -0.5173   -1.1421 O   0  0  0  0  0  0  0  0  0  0  0  0
    6.9247    0.5946   -1.5969 C   0  0  0  0  0  0  0  0  0  0  0  0
    8.3981    0.2160   -1.5674 C   0  0  0  0  0  0  0  0  0  0  0  0
    8.7652   -0.1374   -0.1628 C   0  0  0  0  0  0  0  0  0  0  0  0
    8.5410    0.9713    0.7124 N   0  0  0  0  0  0  0  0  0  0  0  0
    8.8626    0.5943    2.0908 C   0  0  0  0  0  0  0  0  0  0  0  0
   10.1341    1.2231    2.5590 C   0  0  0  0  0  0  0  0  0  0  0  0
   11.2236    1.2674    1.5088 C   0  0  0  0  0  0  0  0  0  0  0  0
   10.7617    1.8537    0.2168 C   0  0  0  0  0  0  0  0  0  0  0  0
    9.2894    2.1446    0.3223 C   0  0  0  0  0  0  0  0  0  0  0  0
    4.5297   -4.6049    0.2046 H   0  0  0  0  0  0  0  0  0  0  0  0
    3.0368   -3.9207   -0.4537 H   0  0  0  0  0  0  0  0  0  0  0  0
    3.5857   -3.4838    1.2349 H   0  0  0  0  0  0  0  0  0  0  0  0
    2.0594   -2.1200   -0.2574 H   0  0  0  0  0  0  0  0  0  0  0  0
   -1.7910   -2.5214   -1.7915 H   0  0  0  0  0  0  0  0  0  0  0  0
   -4.2011   -2.5275   -1.4890 H   0  0  0  0  0  0  0  0  0  0  0  0
   -5.9930   -0.0843    0.6053 H   0  0  0  0  0  0  0  0  0  0  0  0
   -7.8776   -4.1574   -0.7922 H   0  0  0  0  0  0  0  0  0  0  0  0
   -9.5862   -3.5314   -0.4675 H   0  0  0  0  0  0  0  0  0  0  0  0
   -9.0668   -3.4296    2.0590 H   0  0  0  0  0  0  0  0  0  0  0  0
   -7.4089   -4.1370    1.6985 H   0  0  0  0  0  0  0  0  0  0  0  0
   -7.7902    0.4562   -0.3104 H   0  0  0  0  0  0  0  0  0  0  0  0
   -9.7650    1.5684   -1.7719 H   0  0  0  0  0  0  0  0  0  0  0  0
  -10.7674    3.7837   -1.0343 H   0  0  0  0  0  0  0  0  0  0  0  0
  -12.0168    2.5426   -1.4224 H   0  0  0  0  0  0  0  0  0  0  0  0
  -11.6408    4.1294    0.9469 H   0  0  0  0  0  0  0  0  0  0  0  0
  -11.5771    2.4212    2.8054 H   0  0  0  0  0  0  0  0  0  0  0  0
   -9.8450    0.8363    2.4194 H   0  0  0  0  0  0  0  0  0  0  0  0
   -3.9079    0.4182    1.5091 H   0  0  0  0  0  0  0  0  0  0  0  0
   -0.9995    1.3667   -1.3304 H   0  0  0  0  0  0  0  0  0  0  0  0
    0.3645    3.1827   -2.0801 H   0  0  0  0  0  0  0  0  0  0  0  0
    4.7341    1.6500   -1.8317 H   0  0  0  0  0  0  0  0  0  0  0  0
    6.7902    1.4564   -0.9075 H   0  0  0  0  0  0  0  0  0  0  0  0
    6.6790    0.8981   -2.6163 H   0  0  0  0  0  0  0  0  0  0  0  0
    8.5172   -0.6510   -2.2580 H   0  0  0  0  0  0  0  0  0  0  0  0
    8.9717    1.0419   -1.9999 H   0  0  0  0  0  0  0  0  0  0  0  0
    8.1514   -1.0174    0.1504 H   0  0  0  0  0  0  0  0  0  0  0  0
    9.8226   -0.4865   -0.1718 H   0  0  0  0  0  0  0  0  0  0  0  0
    8.8820   -0.5200    2.1502 H   0  0  0  0  0  0  0  0  0  0  0  0
    8.0335    0.9450    2.7222 H   0  0  0  0  0  0  0  0  0  0  0  0
   10.5337    0.5668    3.3880 H   0  0  0  0  0  0  0  0  0  0  0  0
    9.9539    2.2035    3.0123 H   0  0  0  0  0  0  0  0  0  0  0  0
   11.7159    0.2783    1.3726 H   0  0  0  0  0  0  0  0  0  0  0  0
   12.0186    1.9324    1.9308 H   0  0  0  0  0  0  0  0  0  0  0  0
   10.9303    1.1781   -0.6500 H   0  0  0  0  0  0  0  0  0  0  0  0
   11.3098    2.7776   -0.0117 H   0  0  0  0  0  0  0  0  0  0  0  0
    9.0848    2.9287    1.0867 H   0  0  0  0  0  0  0  0  0  0  0  0
    8.9162    2.5157   -0.6375 H   0  0  0  0  0  0  0  0  0  0  0  0
  1  2  1  0
  2  3  1  0
  3  4  2  0
  4  5  1  0
  5  6  2  0
  6  7  1  0
  7  8  1  0
  8  9  2  0
  9 10  1  0
 10 11  2  0
 11 12  1  0
 12 13  1  0
 13 14  2  0
 13 15  1  0
 15 16  1  0
 16 17  1  0
 15 18  1  0
 18 19  2  0
 18 20  1  0
 20 21  1  0
 21 22  2  0
 22 23  1  0
 23 24  1  0
 24 25  1  0
 24 26  1  0
 26 27  2  0
 11 28  1  0
 28 29  2  0
 29 30  1  0
  6 31  1  0
 31 32  2  0
 32 33  1  0
 33 34  2  0
 34 35  1  0
 35 36  2  0
 36 37  1  0
 37 38  1  0
 38 39  1  0
 39 40  1  0
 40 41  1  0
 41 42  1  0
 42 43  1  0
 43 44  1  0
 44 45  1  0
 45 46  1  0
 36  3  1  0
 46 41  1  0
 34  5  1  0
 29  8  1  0
 17 15  1  0
 27 21  1  0
  1 47  1  0
  1 48  1  0
  1 49  1  0
  4 50  1  0
  9 51  1  0
 10 52  1  0
 12 53  1  0
 16 54  1  0
 16 55  1  0
 17 56  1  0
 17 57  1  0
 20 58  1  0
 22 59  1  0
 23 60  1  0
 23 61  1  0
 24 62  1  0
 26 63  1  0
 27 64  1  0
 28 65  1  0
 31 66  1  0
 32 67  1  0
 35 68  1  0
 38 69  1  0
 38 70  1  0
 39 71  1  0
 39 72  1  0
 40 73  1  0
 40 74  1  0
 42 75  1  0
 42 76  1  0
 43 77  1  0
 43 78  1  0
 44 79  1  0
 44 80  1  0
 45 81  1  0
 45 82  1  0
 46 83  1  0
 46 84  1  0
M  END
$$$$
[H]c1nn(C([H])([H])[H])c([H])c1-c1c([H])c([H])c2c(nc([H])n2-c2sc(C(=O)N([H])[H])c(O[C@@]([H])(c3c([H])c([H])c([H])c([H])c3Cl)C([H])([H])[H])c2[H])c1[H]
     RDKit          3D

 53 57  0  0  0  0  0  0  0  0999 V2000
   -3.2546   -2.0818    0.7426 C   0  0  0  0  0  0  0  0  0  0  0  0
   -3.4142   -0.5594    0.6416 C   0  0  1  0  0  0  0  0  0  0  0  0
   -3.5094   -0.2528   -0.7115 O   0  0  0  0  0  0  0  0  0  0  0  0
   -2.4416    0.2535   -1.4998 C   0  0  0  0  0  0  0  0  0  0  0  0
   -1.1950    0.4817   -1.0638 C   0  0  0  0  0  0  0  0  0  0  0  0
   -0.2847    0.9688   -1.9410 C   0  0  0  0  0  0  0  0  0  0  0  0
   -1.1925    1.1038   -3.3828 S   0  0  0  0  0  0  0  0  0  0  0  0
   -2.6988    0.5360   -2.8198 C   0  0  0  0  0  0  0  0  0  0  0  0
   -3.9303    0.4005   -3.5883 C   0  0  0  0  0  0  0  0  0  0  0  0
   -4.0120    0.7566   -4.9542 N   0  0  0  0  0  0  0  0  0  0  0  0
   -4.9496   -0.0452   -3.0226 O   0  0  0  0  0  0  0  0  0  0  0  0
    1.1051    1.2993   -1.7337 N   0  0  0  0  0  0  0  0  0  0  0  0
    1.6732    2.4234   -2.2065 C   0  0  0  0  0  0  0  0  0  0  0  0
    2.9723    2.4701   -1.8653 N   0  0  0  0  0  0  0  0  0  0  0  0
    3.2430    1.3493   -1.1571 C   0  0  0  0  0  0  0  0  0  0  0  0
    4.4027    0.8958   -0.5736 C   0  0  0  0  0  0  0  0  0  0  0  0
    4.3913   -0.3092    0.1021 C   0  0  0  0  0  0  0  0  0  0  0  0
    3.2271   -1.0270    0.1772 C   0  0  0  0  0  0  0  0  0  0  0  0
    2.0541   -0.5529   -0.4217 C   0  0  0  0  0  0  0  0  0  0  0  0
    2.0506    0.6323   -1.0904 C   0  0  0  0  0  0  0  0  0  0  0  0
    5.6277   -0.7909    0.7214 C   0  0  0  0  0  0  0  0  0  0  0  0
    6.0326   -2.0896    0.9083 C   0  0  0  0  0  0  0  0  0  0  0  0
    7.2316   -2.0440    1.5139 N   0  0  0  0  0  0  0  0  0  0  0  0
    7.5959   -0.7915    1.7144 N   0  0  0  0  0  0  0  0  0  0  0  0
    8.8110   -0.3001    2.3318 C   0  0  0  0  0  0  0  0  0  0  0  0
    6.6247    0.0044    1.2350 C   0  0  0  0  0  0  0  0  0  0  0  0
   -4.6170   -0.1139    1.3478 C   0  0  0  0  0  0  0  0  0  0  0  0
   -5.5257   -0.9910    1.9245 C   0  0  0  0  0  0  0  0  0  0  0  0
   -6.6577   -0.5959    2.5860 C   0  0  0  0  0  0  0  0  0  0  0  0
   -6.9367    0.7427    2.7013 C   0  0  0  0  0  0  0  0  0  0  0  0
   -6.0541    1.6379    2.1397 C   0  0  0  0  0  0  0  0  0  0  0  0
   -4.8994    1.2217    1.4655 C   0  0  0  0  0  0  0  0  0  0  0  0
   -3.8983    2.4873    0.8224 Cl  0  0  0  0  0  0  0  0  0  0  0  0
   -2.2796   -2.3139    0.2686 H   0  0  0  0  0  0  0  0  0  0  0  0
   -3.1719   -2.3894    1.8003 H   0  0  0  0  0  0  0  0  0  0  0  0
   -4.0782   -2.6024    0.2525 H   0  0  0  0  0  0  0  0  0  0  0  0
   -2.5145   -0.1636    1.1464 H   0  0  0  0  0  0  0  0  0  0  0  0
   -0.9057    0.2781   -0.0069 H   0  0  0  0  0  0  0  0  0  0  0  0
   -4.6900    1.4558   -5.3245 H   0  0  0  0  0  0  0  0  0  0  0  0
   -3.3628    0.2978   -5.6223 H   0  0  0  0  0  0  0  0  0  0  0  0
    1.1850    3.2058   -2.7853 H   0  0  0  0  0  0  0  0  0  0  0  0
    5.2984    1.4839   -0.6517 H   0  0  0  0  0  0  0  0  0  0  0  0
    3.1853   -1.9790    0.7022 H   0  0  0  0  0  0  0  0  0  0  0  0
    1.1507   -1.1251   -0.3549 H   0  0  0  0  0  0  0  0  0  0  0  0
    5.4921   -2.9956    0.6236 H   0  0  0  0  0  0  0  0  0  0  0  0
    9.3351    0.3040    1.5377 H   0  0  0  0  0  0  0  0  0  0  0  0
    9.4344   -1.1714    2.6338 H   0  0  0  0  0  0  0  0  0  0  0  0
    8.5072    0.3324    3.1847 H   0  0  0  0  0  0  0  0  0  0  0  0
    6.6060    1.1033    1.2402 H   0  0  0  0  0  0  0  0  0  0  0  0
   -5.2958   -2.0425    1.8271 H   0  0  0  0  0  0  0  0  0  0  0  0
   -7.3657   -1.2792    3.0352 H   0  0  0  0  0  0  0  0  0  0  0  0
   -7.8140    1.1180    3.2113 H   0  0  0  0  0  0  0  0  0  0  0  0
   -6.2872    2.6892    2.2389 H   0  0  0  0  0  0  0  0  0  0  0  0
  1  2  1  0
  2  3  1  0
  3  4  1  0
  4  5  1  0
  5  6  2  0
  6  7  1  0
  7  8  1  0
  8  9  1  0
  9 10  1  0
  9 11  2  0
  6 12  1  0
 12 13  1  0
 13 14  2  0
 14 15  1  0
 15 16  2  0
 16 17  1  0
 17 18  2  0
 18 19  1  0
 19 20  2  0
 17 21  1  0
 21 22  1  0
 22 23  2  0
 23 24  1  0
 24 25  1  0
 24 26  1  0
  2 27  1  0
 27 28  2  0
 28 29  1  0
 29 30  2  0
 30 31  1  0
 31 32  2  0
 32 33  1  0
  8  4  2  0
 20 12  1  0
 26 21  2  0
 32 27  1  0
 20 15  1  0
  1 34  1  0
  1 35  1  0
  1 36  1  0
  2 37  1  1
  5 38  1  0
 10 39  1  0
 10 40  1  0
 13 41  1  0
 16 42  1  0
 18 43  1  0
 19 44  1  0
 22 45  1  0
 25 46  1  0
 25 47  1  0
 25 48  1  0
 26 49  1  0
 28 50  1  0
 29 51  1  0
 30 52  1  0
 31 53  1  0
M  END
$$$$
[H]c1nc(N([H])c2c([H])c([H])c(N3C([H])([H])C([H])([H])C([H])(N4C([H])([H])C([H])([H])C([H])([H])C4([H])[H])C([H])([H])C3([H])[H])c([H])c2OC([H])([H])[H])nc(N([H])c2c([H])c([H])c([H])c([H])c2S(=O)(=O)C([H])(C([H])([H])[H])C([H])([H])[H])c1Cl
     RDKit          3D

 77 81  0  0  0  0  0  0  0  0999 V2000
    0.8444    1.1735   -3.4882 C   0  0  0  0  0  0  0  0  0  0  0  0
    0.1439    0.9247   -2.3025 O   0  0  0  0  0  0  0  0  0  0  0  0
    0.7822    0.3868   -1.2119 C   0  0  0  0  0  0  0  0  0  0  0  0
    2.1247    0.0964   -1.3057 C   0  0  0  0  0  0  0  0  0  0  0  0
    2.8153   -0.4444   -0.2422 C   0  0  0  0  0  0  0  0  0  0  0  0
    2.1684   -0.7054    0.9431 C   0  0  0  0  0  0  0  0  0  0  0  0
    0.8041   -0.4045    1.0222 C   0  0  0  0  0  0  0  0  0  0  0  0
    0.0946    0.1289   -0.0087 C   0  0  0  0  0  0  0  0  0  0  0  0
   -1.2782    0.4436    0.0285 N   0  0  0  0  0  0  0  0  0  0  0  0
   -2.2158    0.2947    1.0523 C   0  0  0  0  0  0  0  0  0  0  0  0
   -1.9079   -0.2100    2.2386 N   0  0  0  0  0  0  0  0  0  0  0  0
   -2.7961   -0.3635    3.2240 C   0  0  0  0  0  0  0  0  0  0  0  0
   -4.0813    0.0263    2.9742 C   0  0  0  0  0  0  0  0  0  0  0  0
   -5.2951   -0.1412    4.2182 Cl  0  0  0  0  0  0  0  0  0  0  0  0
   -4.4529    0.5671    1.7291 C   0  0  0  0  0  0  0  0  0  0  0  0
   -5.7836    0.9344    1.4634 N   0  0  0  0  0  0  0  0  0  0  0  0
   -6.3139    1.5195    0.2955 C   0  0  0  0  0  0  0  0  0  0  0  0
   -5.5606    2.1541   -0.6571 C   0  0  0  0  0  0  0  0  0  0  0  0
   -6.0806    2.8280   -1.7613 C   0  0  0  0  0  0  0  0  0  0  0  0
   -7.4338    2.8623   -1.9097 C   0  0  0  0  0  0  0  0  0  0  0  0
   -8.2187    2.2364   -0.9751 C   0  0  0  0  0  0  0  0  0  0  0  0
   -7.6979    1.5567    0.1348 C   0  0  0  0  0  0  0  0  0  0  0  0
   -8.8110    0.7276    1.1504 S   0  0  0  0  0  0  0  0  0  0  0  0
   -8.7176    1.1212    2.6121 O   0  0  0  0  0  0  0  0  0  0  0  0
  -10.2307    1.2112    0.7746 O   0  0  0  0  0  0  0  0  0  0  0  0
   -8.8787   -1.0165    0.9527 C   0  0  0  0  0  0  0  0  0  0  0  0
   -7.6434   -1.7952    1.1622 C   0  0  0  0  0  0  0  0  0  0  0  0
   -9.4496   -1.2951   -0.4370 C   0  0  0  0  0  0  0  0  0  0  0  0
   -3.4913    0.6665    0.8456 N   0  0  0  0  0  0  0  0  0  0  0  0
    4.1960   -0.7607   -0.3178 N   0  0  0  0  0  0  0  0  0  0  0  0
    4.9336   -1.1733    0.8819 C   0  0  0  0  0  0  0  0  0  0  0  0
    6.4199   -1.1596    0.6163 C   0  0  0  0  0  0  0  0  0  0  0  0
    6.8115    0.1552   -0.0512 C   0  0  0  0  0  0  0  0  0  0  0  0
    6.0206    0.3973   -1.2880 C   0  0  0  0  0  0  0  0  0  0  0  0
    4.9953   -0.7223   -1.5248 C   0  0  0  0  0  0  0  0  0  0  0  0
    8.2232    0.2736   -0.2312 N   0  0  0  0  0  0  0  0  0  0  0  0
    8.8279   -0.6885   -1.0738 C   0  0  0  0  0  0  0  0  0  0  0  0
    9.5633   -1.6898   -0.2068 C   0  0  0  0  0  0  0  0  0  0  0  0
    9.6882   -0.9817    1.1154 C   0  0  0  0  0  0  0  0  0  0  0  0
    8.9705    0.3394    0.9746 C   0  0  0  0  0  0  0  0  0  0  0  0
    1.2786    0.2534   -3.9436 H   0  0  0  0  0  0  0  0  0  0  0  0
    0.2521    1.7597   -4.2252 H   0  0  0  0  0  0  0  0  0  0  0  0
    1.7405    1.8297   -3.2721 H   0  0  0  0  0  0  0  0  0  0  0  0
    2.6405    0.3088   -2.2572 H   0  0  0  0  0  0  0  0  0  0  0  0
    2.7020   -1.1359    1.8005 H   0  0  0  0  0  0  0  0  0  0  0  0
    0.3661   -0.6318    1.9705 H   0  0  0  0  0  0  0  0  0  0  0  0
   -1.7003    0.8770   -0.8818 H   0  0  0  0  0  0  0  0  0  0  0  0
   -2.5090   -0.7756    4.1686 H   0  0  0  0  0  0  0  0  0  0  0  0
   -6.4448    0.7483    2.2946 H   0  0  0  0  0  0  0  0  0  0  0  0
   -4.4875    2.1799   -0.5950 H   0  0  0  0  0  0  0  0  0  0  0  0
   -5.4582    3.3165   -2.4921 H   0  0  0  0  0  0  0  0  0  0  0  0
   -7.9369    3.3599   -2.7309 H   0  0  0  0  0  0  0  0  0  0  0  0
   -9.3145    2.2697   -1.1049 H   0  0  0  0  0  0  0  0  0  0  0  0
   -9.6419   -1.3897    1.6818 H   0  0  0  0  0  0  0  0  0  0  0  0
   -6.8736   -1.6188    0.3769 H   0  0  0  0  0  0  0  0  0  0  0  0
   -7.8590   -2.9107    1.0478 H   0  0  0  0  0  0  0  0  0  0  0  0
   -7.1554   -1.6284    2.1419 H   0  0  0  0  0  0  0  0  0  0  0  0
   -8.6222   -1.3689   -1.1571 H   0  0  0  0  0  0  0  0  0  0  0  0
  -10.1824   -0.5193   -0.6655 H   0  0  0  0  0  0  0  0  0  0  0  0
   -9.9573   -2.2694   -0.3724 H   0  0  0  0  0  0  0  0  0  0  0  0
    4.6355   -2.2205    1.0843 H   0  0  0  0  0  0  0  0  0  0  0  0
    4.6564   -0.5745    1.7660 H   0  0  0  0  0  0  0  0  0  0  0  0
    6.9138   -1.2598    1.6106 H   0  0  0  0  0  0  0  0  0  0  0  0
    6.7068   -2.0371    0.0389 H   0  0  0  0  0  0  0  0  0  0  0  0
    6.5190    0.9496    0.6967 H   0  0  0  0  0  0  0  0  0  0  0  0
    5.4138    1.3290   -1.2316 H   0  0  0  0  0  0  0  0  0  0  0  0
    6.6594    0.5251   -2.2015 H   0  0  0  0  0  0  0  0  0  0  0  0
    5.5071   -1.7091   -1.5693 H   0  0  0  0  0  0  0  0  0  0  0  0
    4.4546   -0.5000   -2.4387 H   0  0  0  0  0  0  0  0  0  0  0  0
    9.5960   -0.1824   -1.6990 H   0  0  0  0  0  0  0  0  0  0  0  0
    8.1431   -1.1934   -1.7799 H   0  0  0  0  0  0  0  0  0  0  0  0
    9.0162   -2.6556   -0.1333 H   0  0  0  0  0  0  0  0  0  0  0  0
   10.5501   -1.9363   -0.6537 H   0  0  0  0  0  0  0  0  0  0  0  0
    9.3099   -1.5809    1.9603 H   0  0  0  0  0  0  0  0  0  0  0  0
   10.7892   -0.8438    1.3002 H   0  0  0  0  0  0  0  0  0  0  0  0
    9.7787    1.1139    0.8224 H   0  0  0  0  0  0  0  0  0  0  0  0
    8.4248    0.6477    1.8661 H   0  0  0  0  0  0  0  0  0  0  0  0
  1  2  1  0
  2  3  1  0
  3  4  2  0
  4  5  1  0
  5  6  2  0
  6  7  1  0
  7  8  2  0
  8  9  1  0
  9 10  1  0
 10 11  2  0
 11 12  1  0
 12 13  2  0
 13 14  1  0
 13 15  1  0
 15 16  1  0
 16 17  1  0
 17 18  2  0
 18 19  1  0
 19 20  2  0
 20 21  1  0
 21 22  2  0
 22 23  1  0
 23 24  2  0
 23 25  2  0
 23 26  1  0
 26 27  1  0
 26 28  1  0
 15 29  2  0
  5 30  1  0
 30 31  1  0
 31 32  1  0
 32 33  1  0
 33 34  1  0
 34 35  1  0
 33 36  1  0
 36 37  1  0
 37 38  1  0
 38 39  1  0
 39 40  1  0
  8  3  1  0
 29 10  1  0
 35 30  1  0
 40 36  1  0
 22 17  1  0
  1 41  1  0
  1 42  1  0
  1 43  1  0
  4 44  1  0
  6 45  1  0
  7 46  1  0
  9 47  1  0
 12 48  1  0
 16 49  1  0
 18 50  1  0
 19 51  1  0
 20 52  1  0
 21 53  1  0
 26 54  1  0
 27 55  1  0
 27 56  1  0
 27 57  1  0
 28 58  1  0
 28 59  1  0
 28 60  1  0
 31 61  1  0
 31 62  1  0
 32 63  1  0
 32 64  1  0
 33 65  1  0
 34 66  1  0
 34 67  1  0
 35 68  1  0
 35 69  1  0
 37 70  1  0
 37 71  1  0
 38 72  1  0
 38 73  1  0
 39 74  1  0
 39 75  1  0
 40 76  1  0
 40 77  1  0
M  END
$$$$
[H]c1nn([H])c([H])c1-c1c([H])c([H])c2c(nc([H])n2-c2sc(C(=O)N([H])[H])c(O[C@@]([H])(c3c([H])c([H])c([H])c([H])c3Cl)C([H])([H])[H])c2[H])c1[H]
     RDKit          3D

 50 54  0  0  0  0  0  0  0  0999 V2000
   -5.0841   -0.2844    1.7208 C   0  0  0  0  0  0  0  0  0  0  0  0
   -3.5887    0.0081    1.4347 C   0  0  1  0  0  0  0  0  0  0  0  0
   -3.0803   -0.9264    0.6457 O   0  0  0  0  0  0  0  0  0  0  0  0
   -2.0930   -1.4994   -0.0760 C   0  0  0  0  0  0  0  0  0  0  0  0
   -0.8789   -0.9623   -0.3257 C   0  0  0  0  0  0  0  0  0  0  0  0
    0.0223   -1.6480   -1.0695 C   0  0  0  0  0  0  0  0  0  0  0  0
   -0.7904   -3.0654   -1.4442 S   0  0  0  0  0  0  0  0  0  0  0  0
   -2.2773   -2.7795   -0.6517 C   0  0  0  0  0  0  0  0  0  0  0  0
   -3.4454   -3.6596   -0.5708 C   0  0  0  0  0  0  0  0  0  0  0  0
   -3.4268   -4.8952   -1.2465 N   0  0  0  0  0  0  0  0  0  0  0  0
   -4.4377   -3.3290    0.0828 O   0  0  0  0  0  0  0  0  0  0  0  0
    1.3464   -1.2443   -1.4800 N   0  0  0  0  0  0  0  0  0  0  0  0
    1.7921   -1.2904   -2.7702 C   0  0  0  0  0  0  0  0  0  0  0  0
    3.0333   -0.8483   -2.8386 N   0  0  0  0  0  0  0  0  0  0  0  0
    3.3855   -0.5146   -1.5661 C   0  0  0  0  0  0  0  0  0  0  0  0
    4.5460   -0.0041   -1.0232 C   0  0  0  0  0  0  0  0  0  0  0  0
    4.7154    0.2760    0.3309 C   0  0  0  0  0  0  0  0  0  0  0  0
    3.6300    0.0094    1.1380 C   0  0  0  0  0  0  0  0  0  0  0  0
    2.4411   -0.5065    0.6247 C   0  0  0  0  0  0  0  0  0  0  0  0
    2.3329   -0.7625   -0.7245 C   0  0  0  0  0  0  0  0  0  0  0  0
    5.9737    0.8160    0.8214 C   0  0  0  0  0  0  0  0  0  0  0  0
    7.2172    0.5236    0.2675 C   0  0  0  0  0  0  0  0  0  0  0  0
    8.1660    1.1979    0.9624 N   0  0  0  0  0  0  0  0  0  0  0  0
    7.5661    1.9066    1.9336 N   0  0  0  0  0  0  0  0  0  0  0  0
    6.2344    1.6758    1.8502 C   0  0  0  0  0  0  0  0  0  0  0  0
   -3.6485    1.3858    0.8011 C   0  0  0  0  0  0  0  0  0  0  0  0
   -4.6638    1.7366   -0.0561 C   0  0  0  0  0  0  0  0  0  0  0  0
   -4.6745    2.9511   -0.7518 C   0  0  0  0  0  0  0  0  0  0  0  0
   -3.6172    3.8066   -0.5533 C   0  0  0  0  0  0  0  0  0  0  0  0
   -2.6035    3.4767    0.2924 C   0  0  0  0  0  0  0  0  0  0  0  0
   -2.6173    2.2612    0.9777 C   0  0  0  0  0  0  0  0  0  0  0  0
   -1.3463    1.9615    2.1617 Cl  0  0  0  0  0  0  0  0  0  0  0  0
   -5.5942   -0.6474    0.7981 H   0  0  0  0  0  0  0  0  0  0  0  0
   -5.5135    0.6649    2.0770 H   0  0  0  0  0  0  0  0  0  0  0  0
   -5.1836   -1.0374    2.5168 H   0  0  0  0  0  0  0  0  0  0  0  0
   -3.0690    0.1410    2.3885 H   0  0  0  0  0  0  0  0  0  0  0  0
   -0.5888    0.0421    0.0549 H   0  0  0  0  0  0  0  0  0  0  0  0
   -4.0735   -5.6704   -1.0009 H   0  0  0  0  0  0  0  0  0  0  0  0
   -2.7514   -5.0497   -2.0202 H   0  0  0  0  0  0  0  0  0  0  0  0
    1.1703   -1.6454   -3.5909 H   0  0  0  0  0  0  0  0  0  0  0  0
    5.3886    0.2019   -1.6676 H   0  0  0  0  0  0  0  0  0  0  0  0
    3.7141    0.2152    2.2172 H   0  0  0  0  0  0  0  0  0  0  0  0
    1.5867   -0.7173    1.2724 H   0  0  0  0  0  0  0  0  0  0  0  0
    7.4521   -0.1138   -0.5689 H   0  0  0  0  0  0  0  0  0  0  0  0
    8.1118    2.5042    2.5945 H   0  0  0  0  0  0  0  0  0  0  0  0
    5.5002    2.1135    2.5097 H   0  0  0  0  0  0  0  0  0  0  0  0
   -5.4987    1.0940   -0.2371 H   0  0  0  0  0  0  0  0  0  0  0  0
   -5.4603    3.2298   -1.4244 H   0  0  0  0  0  0  0  0  0  0  0  0
   -3.5518    4.7749   -1.0671 H   0  0  0  0  0  0  0  0  0  0  0  0
   -1.7675    4.1272    0.4586 H   0  0  0  0  0  0  0  0  0  0  0  0
  1  2  1  0
  2  3  1  0
  3  4  1  0
  4  5  1  0
  5  6  2  0
  6  7  1  0
  7  8  1  0
  8  9  1  0
  9 10  1  0
  9 11  2  0
  6 12  1  0
 12 13  1  0
 13 14  2  0
 14 15  1  0
 15 16  2  0
 16 17  1  0
 17 18  2  0
 18 19  1  0
 19 20  2  0
 17 21  1  0
 21 22  1  0
 22 23  2  0
 23 24  1  0
 24 25  1  0
  2 26  1  0
 26 27  2  0
 27 28  1  0
 28 29  2  0
 29 30  1  0
 30 31  2  0
 31 32  1  0
  8  4  2  0
 20 12  1  0
 25 21  2  0
 31 26  1  0
 20 15  1  0
  1 33  1  0
  1 34  1  0
  1 35  1  0
  2 36  1  1
  5 37  1  0
 10 38  1  0
 10 39  1  0
 13 40  1  0
 16 41  1  0
 18 42  1  0
 19 43  1  0
 22 44  1  0
 24 45  1  0
 25 46  1  0
 27 47  1  0
 28 48  1  0
 29 49  1  0
 30 50  1  0
M  END
$$$$
[H]c1nc(-n2c(-c3c([H])c([H])c([H])c([H])c3[H])nc([H])c2[H])nc2c1N(C([H])([H])[H])C(=O)[C@@]([H])(C([H])([H])C([H])([H])[H])N2C1([H])C([H])([H])C([H])([H])C([H])([H])C1([H])[H]
     RDKit          3D

 56 60  0  0  0  0  0  0  0  0999 V2000
   -4.9005    1.8114    0.5077 C   0  0  0  0  0  0  0  0  0  0  0  0
   -3.5476    1.3097    0.0985 C   0  0  0  0  0  0  0  0  0  0  0  0
   -3.1235    0.0647    0.8054 C   0  0  1  0  0  0  0  0  0  0  0  0
   -1.7730   -0.2664    0.2666 N   0  0  0  0  0  0  0  0  0  0  0  0
   -1.5679   -1.4042   -0.5248 C   0  0  0  0  0  0  0  0  0  0  0  0
   -0.2862   -1.6843   -1.1813 C   0  0  0  0  0  0  0  0  0  0  0  0
   -0.6888   -2.9029   -2.0757 C   0  0  0  0  0  0  0  0  0  0  0  0
   -2.1092   -2.6183   -2.4658 C   0  0  0  0  0  0  0  0  0  0  0  0
   -2.5358   -1.3800   -1.7174 C   0  0  0  0  0  0  0  0  0  0  0  0
   -0.7032    0.6034    0.6155 C   0  0  0  0  0  0  0  0  0  0  0  0
    0.3598    0.7249   -0.1962 N   0  0  0  0  0  0  0  0  0  0  0  0
    1.4086    1.5177    0.0507 C   0  0  0  0  0  0  0  0  0  0  0  0
    1.3704    2.2378    1.2078 N   0  0  0  0  0  0  0  0  0  0  0  0
    0.3665    2.1824    2.0665 C   0  0  0  0  0  0  0  0  0  0  0  0
   -0.7033    1.3645    1.8000 C   0  0  0  0  0  0  0  0  0  0  0  0
   -1.8238    1.2348    2.6456 N   0  0  0  0  0  0  0  0  0  0  0  0
   -1.8622    1.9944    3.8715 C   0  0  0  0  0  0  0  0  0  0  0  0
   -2.8680    0.3534    2.2449 C   0  0  0  0  0  0  0  0  0  0  0  0
   -3.5697   -0.1754    3.1317 O   0  0  0  0  0  0  0  0  0  0  0  0
    2.5237    1.6658   -0.8456 N   0  0  0  0  0  0  0  0  0  0  0  0
    2.5654    2.7399   -1.7141 C   0  0  0  0  0  0  0  0  0  0  0  0
    3.6936    2.6684   -2.4853 C   0  0  0  0  0  0  0  0  0  0  0  0
    4.3153    1.5660   -2.0804 N   0  0  0  0  0  0  0  0  0  0  0  0
    3.5947    0.9520   -1.0722 C   0  0  0  0  0  0  0  0  0  0  0  0
    4.0053   -0.2938   -0.4458 C   0  0  0  0  0  0  0  0  0  0  0  0
    3.4532   -0.8556    0.6516 C   0  0  0  0  0  0  0  0  0  0  0  0
    3.9302   -2.1026    1.1261 C   0  0  0  0  0  0  0  0  0  0  0  0
    4.9500   -2.7778    0.5073 C   0  0  0  0  0  0  0  0  0  0  0  0
    5.5094   -2.2024   -0.6077 C   0  0  0  0  0  0  0  0  0  0  0  0
    5.0530   -0.9864   -1.0812 C   0  0  0  0  0  0  0  0  0  0  0  0
   -4.8949    2.2050    1.5428 H   0  0  0  0  0  0  0  0  0  0  0  0
   -5.1320    2.6885   -0.1485 H   0  0  0  0  0  0  0  0  0  0  0  0
   -5.7098    1.0750    0.3260 H   0  0  0  0  0  0  0  0  0  0  0  0
   -2.8154    2.1088    0.3386 H   0  0  0  0  0  0  0  0  0  0  0  0
   -3.5050    1.1826   -1.0030 H   0  0  0  0  0  0  0  0  0  0  0  0
   -3.7983   -0.7823    0.6976 H   0  0  0  0  0  0  0  0  0  0  0  0
   -1.8695   -2.3435    0.0250 H   0  0  0  0  0  0  0  0  0  0  0  0
    0.0545   -0.9595   -1.9546 H   0  0  0  0  0  0  0  0  0  0  0  0
    0.5196   -2.0855   -0.5430 H   0  0  0  0  0  0  0  0  0  0  0  0
   -0.0264   -2.9755   -2.9489 H   0  0  0  0  0  0  0  0  0  0  0  0
   -0.6548   -3.8272   -1.4999 H   0  0  0  0  0  0  0  0  0  0  0  0
   -2.1922   -2.4778   -3.5742 H   0  0  0  0  0  0  0  0  0  0  0  0
   -2.7854   -3.4596   -2.2221 H   0  0  0  0  0  0  0  0  0  0  0  0
   -2.3754   -0.4860   -2.3479 H   0  0  0  0  0  0  0  0  0  0  0  0
   -3.5794   -1.5215   -1.3983 H   0  0  0  0  0  0  0  0  0  0  0  0
    0.3176    2.7497    2.9957 H   0  0  0  0  0  0  0  0  0  0  0  0
   -2.8727    1.8657    4.3158 H   0  0  0  0  0  0  0  0  0  0  0  0
   -1.1239    1.5992    4.5952 H   0  0  0  0  0  0  0  0  0  0  0  0
   -1.6254    3.0619    3.7186 H   0  0  0  0  0  0  0  0  0  0  0  0
    1.8129    3.5090   -1.7626 H   0  0  0  0  0  0  0  0  0  0  0  0
    3.9873    3.3826   -3.2580 H   0  0  0  0  0  0  0  0  0  0  0  0
    2.6753   -0.3743    1.1863 H   0  0  0  0  0  0  0  0  0  0  0  0
    3.4386   -2.4815    2.0022 H   0  0  0  0  0  0  0  0  0  0  0  0
    5.2931   -3.7297    0.8936 H   0  0  0  0  0  0  0  0  0  0  0  0
    6.3084   -2.7036   -1.1160 H   0  0  0  0  0  0  0  0  0  0  0  0
    5.5167   -0.5615   -1.9645 H   0  0  0  0  0  0  0  0  0  0  0  0
  1  2  1  0
  2  3  1  0
  3  4  1  0
  4  5  1  0
  5  6  1  0
  6  7  1  0
  7  8  1  0
  8  9  1  0
  4 10  1  0
 10 11  2  0
 11 12  1  0
 12 13  2  0
 13 14  1  0
 14 15  2  0
 15 16  1  0
 16 17  1  0
 16 18  1  0
 18 19  2  0
 12 20  1  0
 20 21  1  0
 21 22  2  0
 22 23  1  0
 23 24  2  0
 24 25  1  0
 25 26  2  0
 26 27  1  0
 27 28  2  0
 28 29  1  0
 29 30  2  0
 18  3  1  0
 24 20  1  0
 30 25  1  0
  9  5  1  0
 15 10  1  0
  1 31  1  0
  1 32  1  0
  1 33  1  0
  2 34  1  0
  2 35  1  0
  3 36  1  1
  5 37  1  0
  6 38  1  0
  6 39  1  0
  7 40  1  0
  7 41  1  0
  8 42  1  0
  8 43  1  0
  9 44  1  0
  9 45  1  0
 14 46  1  0
 17 47  1  0
 17 48  1  0
 17 49  1  0
 21 50  1  0
 22 51  1  0
 26 52  1  0
 27 53  1  0
 28 54  1  0
 29 55  1  0
 30 56  1  0
M  END
$$$$
