[H]N=C(N([H])[H])N([H])C([H])([H])C([H])([H])C([H])([H])[C@@]([H])(C(=O)N([H])[C@]([H])(C(=O)N([H])[C@]([H])(C(=O)O[H])C([H])([H])c1c([H])n([H])c2c([H])c([H])c([H])c([H])c12)C([H])([H])C([H])(C([H])([H])[H])C([H])([H])[H])N([H])C(=O)[C@@]([H])(N([H])C(=O)[C@@]([H])(N([H])C(=O)OC([H])([H])c1c([H])c([H])c([H])c([H])c1[H])C([H])([H])c1c([H])c([H])c([H])c([H])c1[H])C([H])([H])[H]
     RDKit          3D

115118  0  0  0  0  0  0  0  0999 V2000
    2.8103   -1.9545    0.6198 C   0  0  0  0  0  0  0  0  0  0  0  0
    3.0036   -0.7626   -0.3054 C   0  0  2  0  0  0  0  0  0  0  0  0
    4.0889   -0.0036    0.2887 N   0  0  0  0  0  0  0  0  0  0  0  0
    5.4090   -0.1425   -0.1993 C   0  0  0  0  0  0  0  0  0  0  0  0
    5.6308   -0.9272   -1.1517 O   0  0  0  0  0  0  0  0  0  0  0  0
    6.5267    0.6087    0.3840 C   0  0  2  0  0  0  0  0  0  0  0  0
    6.3808    2.1094    0.3416 C   0  0  0  0  0  0  0  0  0  0  0  0
    6.2890    2.7300   -0.9664 C   0  0  0  0  0  0  0  0  0  0  0  0
    7.4356    3.1618   -1.6521 C   0  0  0  0  0  0  0  0  0  0  0  0
    7.3474    3.7681   -2.8943 C   0  0  0  0  0  0  0  0  0  0  0  0
    6.1415    3.9663   -3.4952 C   0  0  0  0  0  0  0  0  0  0  0  0
    4.9951    3.5519   -2.8457 C   0  0  0  0  0  0  0  0  0  0  0  0
    5.1027    2.9497   -1.6077 C   0  0  0  0  0  0  0  0  0  0  0  0
    7.7943    0.2152   -0.2359 N   0  0  0  0  0  0  0  0  0  0  0  0
    8.9543    0.0153    0.5339 C   0  0  0  0  0  0  0  0  0  0  0  0
    8.8663    0.1898    1.7882 O   0  0  0  0  0  0  0  0  0  0  0  0
   10.1919   -0.3522    0.0586 O   0  0  0  0  0  0  0  0  0  0  0  0
   11.3460   -0.5279    0.8312 C   0  0  0  0  0  0  0  0  0  0  0  0
   11.2397   -1.5445    1.8922 C   0  0  0  0  0  0  0  0  0  0  0  0
   11.5041   -1.2127    3.2037 C   0  0  0  0  0  0  0  0  0  0  0  0
   11.4073   -2.1586    4.2231 C   0  0  0  0  0  0  0  0  0  0  0  0
   11.0419   -3.4507    3.9230 C   0  0  0  0  0  0  0  0  0  0  0  0
   10.7770   -3.7923    2.6246 C   0  0  0  0  0  0  0  0  0  0  0  0
   10.8770   -2.8381    1.6136 C   0  0  0  0  0  0  0  0  0  0  0  0
    1.8023    0.0400   -0.4632 C   0  0  0  0  0  0  0  0  0  0  0  0
    1.8628    1.2415   -0.1768 O   0  0  0  0  0  0  0  0  0  0  0  0
    0.5644   -0.4777   -0.9214 N   0  0  0  0  0  0  0  0  0  0  0  0
   -0.6124    0.3076   -1.0746 C   0  0  1  0  0  0  0  0  0  0  0  0
   -0.9122    0.7875   -2.3959 C   0  0  0  0  0  0  0  0  0  0  0  0
   -1.2027    0.1336   -3.6417 C   0  0  0  0  0  0  0  0  0  0  0  0
   -0.2637   -0.7701   -4.3524 C   0  0  0  0  0  0  0  0  0  0  0  0
    0.1128   -1.9984   -3.7760 N   0  0  0  0  0  0  0  0  0  0  0  0
   -0.7477   -3.1151   -3.5971 C   0  0  0  0  0  0  0  0  0  0  0  0
   -2.1424   -3.0004   -3.3609 N   0  0  0  0  0  0  0  0  0  0  0  0
   -0.2411   -4.2938   -3.6583 N   0  0  0  0  0  0  0  0  0  0  0  0
   -1.7306   -0.0956   -0.1962 C   0  0  0  0  0  0  0  0  0  0  0  0
   -1.6340   -1.1499    0.4762 O   0  0  0  0  0  0  0  0  0  0  0  0
   -2.9143    0.6127   -0.0353 N   0  0  0  0  0  0  0  0  0  0  0  0
   -4.0560    0.3107    0.8127 C   0  0  1  0  0  0  0  0  0  0  0  0
   -4.0431    0.9710    2.1173 C   0  0  0  0  0  0  0  0  0  0  0  0
   -5.1456    0.5748    3.0540 C   0  0  0  0  0  0  0  0  0  0  0  0
   -5.0436    1.3352    4.3818 C   0  0  0  0  0  0  0  0  0  0  0  0
   -4.9580   -0.9267    3.4429 C   0  0  0  0  0  0  0  0  0  0  0  0
   -5.2141    0.5190   -0.0763 C   0  0  0  0  0  0  0  0  0  0  0  0
   -5.2221   -0.0595   -1.2401 O   0  0  0  0  0  0  0  0  0  0  0  0
   -6.3695    1.3050    0.1560 N   0  0  0  0  0  0  0  0  0  0  0  0
   -7.4357    1.4004   -0.8359 C   0  0  1  0  0  0  0  0  0  0  0  0
   -8.6959    1.8606   -0.2038 C   0  0  0  0  0  0  0  0  0  0  0  0
   -9.1856    0.9706    0.8405 C   0  0  0  0  0  0  0  0  0  0  0  0
   -9.1438    1.1769    2.2008 C   0  0  0  0  0  0  0  0  0  0  0  0
   -9.7326    0.1318    2.7761 N   0  0  0  0  0  0  0  0  0  0  0  0
  -10.1553   -0.7463    1.8495 C   0  0  0  0  0  0  0  0  0  0  0  0
  -10.8109   -1.9668    1.8910 C   0  0  0  0  0  0  0  0  0  0  0  0
  -11.1239   -2.6617    0.7445 C   0  0  0  0  0  0  0  0  0  0  0  0
  -10.7822   -2.1416   -0.4928 C   0  0  0  0  0  0  0  0  0  0  0  0
  -10.1325   -0.9302   -0.5180 C   0  0  0  0  0  0  0  0  0  0  0  0
   -9.8206   -0.2379    0.6279 C   0  0  0  0  0  0  0  0  0  0  0  0
   -7.0651    2.4991   -1.8214 C   0  0  0  0  0  0  0  0  0  0  0  0
   -7.8878    2.8090   -2.8816 O   0  0  0  0  0  0  0  0  0  0  0  0
   -6.0074    3.1046   -1.6415 O   0  0  0  0  0  0  0  0  0  0  0  0
    2.2939   -2.7286   -0.0272 H   0  0  0  0  0  0  0  0  0  0  0  0
    3.7681   -2.2948    1.0133 H   0  0  0  0  0  0  0  0  0  0  0  0
    2.0648   -1.6620    1.3798 H   0  0  0  0  0  0  0  0  0  0  0  0
    3.4054   -1.2028   -1.2589 H   0  0  0  0  0  0  0  0  0  0  0  0
    3.8242    0.6294    1.0763 H   0  0  0  0  0  0  0  0  0  0  0  0
    6.6205    0.3570    1.4555 H   0  0  0  0  0  0  0  0  0  0  0  0
    5.4956    2.3577    0.9447 H   0  0  0  0  0  0  0  0  0  0  0  0
    7.2593    2.5281    0.8733 H   0  0  0  0  0  0  0  0  0  0  0  0
    8.4007    3.0323   -1.2311 H   0  0  0  0  0  0  0  0  0  0  0  0
    8.2462    4.1056   -3.4250 H   0  0  0  0  0  0  0  0  0  0  0  0
    6.0495    4.4487   -4.4833 H   0  0  0  0  0  0  0  0  0  0  0  0
    4.0629    3.7305   -3.3569 H   0  0  0  0  0  0  0  0  0  0  0  0
    4.1671    2.6571   -1.1591 H   0  0  0  0  0  0  0  0  0  0  0  0
    7.8647    0.0739   -1.2735 H   0  0  0  0  0  0  0  0  0  0  0  0
   12.1654   -0.8092    0.1281 H   0  0  0  0  0  0  0  0  0  0  0  0
   11.6502    0.4709    1.2510 H   0  0  0  0  0  0  0  0  0  0  0  0
   11.7959   -0.2041    3.4642 H   0  0  0  0  0  0  0  0  0  0  0  0
   11.6139   -1.8935    5.2319 H   0  0  0  0  0  0  0  0  0  0  0  0
   10.9705   -4.1939    4.7393 H   0  0  0  0  0  0  0  0  0  0  0  0
   10.4925   -4.8002    2.3906 H   0  0  0  0  0  0  0  0  0  0  0  0
   10.6664   -3.1097    0.5873 H   0  0  0  0  0  0  0  0  0  0  0  0
    0.5543   -1.4917   -1.0996 H   0  0  0  0  0  0  0  0  0  0  0  0
   -0.2762    1.2865   -0.5049 H   0  0  0  0  0  0  0  0  0  0  0  0
   -0.0500    1.5447   -2.6965 H   0  0  0  0  0  0  0  0  0  0  0  0
   -1.7286    1.6355   -2.3069 H   0  0  0  0  0  0  0  0  0  0  0  0
   -1.3567    0.9796   -4.4247 H   0  0  0  0  0  0  0  0  0  0  0  0
   -2.2702   -0.2886   -3.6983 H   0  0  0  0  0  0  0  0  0  0  0  0
    0.6566   -0.1643   -4.6497 H   0  0  0  0  0  0  0  0  0  0  0  0
   -0.6754   -1.0384   -5.3910 H   0  0  0  0  0  0  0  0  0  0  0  0
    1.1125   -2.1108   -3.4456 H   0  0  0  0  0  0  0  0  0  0  0  0
   -2.5092   -3.1001   -2.3914 H   0  0  0  0  0  0  0  0  0  0  0  0
   -2.7957   -2.8211   -4.1678 H   0  0  0  0  0  0  0  0  0  0  0  0
   -0.8321   -5.1389   -3.5337 H   0  0  0  0  0  0  0  0  0  0  0  0
   -3.0060    1.4952   -0.6020 H   0  0  0  0  0  0  0  0  0  0  0  0
   -3.9900   -0.7900    1.0359 H   0  0  0  0  0  0  0  0  0  0  0  0
   -3.0854    0.7019    2.6655 H   0  0  0  0  0  0  0  0  0  0  0  0
   -4.0162    2.0777    2.1060 H   0  0  0  0  0  0  0  0  0  0  0  0
   -6.1581    0.6316    2.7399 H   0  0  0  0  0  0  0  0  0  0  0  0
   -3.9869    1.5763    4.5272 H   0  0  0  0  0  0  0  0  0  0  0  0
   -5.3570    0.6709    5.2127 H   0  0  0  0  0  0  0  0  0  0  0  0
   -5.6082    2.2808    4.3589 H   0  0  0  0  0  0  0  0  0  0  0  0
   -5.6962   -1.0937    4.2356 H   0  0  0  0  0  0  0  0  0  0  0  0
   -3.9476   -1.1065    3.8292 H   0  0  0  0  0  0  0  0  0  0  0  0
   -5.2393   -1.5394    2.5677 H   0  0  0  0  0  0  0  0  0  0  0  0
   -6.5094    1.8671    0.9998 H   0  0  0  0  0  0  0  0  0  0  0  0
   -7.5155    0.5203   -1.4752 H   0  0  0  0  0  0  0  0  0  0  0  0
   -8.5086    2.8683    0.2785 H   0  0  0  0  0  0  0  0  0  0  0  0
   -9.5044    2.0302   -0.9705 H   0  0  0  0  0  0  0  0  0  0  0  0
   -8.7080    2.0349    2.7029 H   0  0  0  0  0  0  0  0  0  0  0  0
   -9.8630   -0.0151    3.8054 H   0  0  0  0  0  0  0  0  0  0  0  0
  -11.0865   -2.3904    2.8324 H   0  0  0  0  0  0  0  0  0  0  0  0
  -11.6375   -3.6233    0.7450 H   0  0  0  0  0  0  0  0  0  0  0  0
  -11.0360   -2.6951   -1.3776 H   0  0  0  0  0  0  0  0  0  0  0  0
   -9.8475   -0.4808   -1.4653 H   0  0  0  0  0  0  0  0  0  0  0  0
   -7.4712    3.0756   -3.7447 H   0  0  0  0  0  0  0  0  0  0  0  0
  1  2  1  0
  2  3  1  0
  3  4  1  0
  4  5  2  0
  4  6  1  0
  6  7  1  0
  7  8  1  0
  8  9  2  0
  9 10  1  0
 10 11  2  0
 11 12  1  0
 12 13  2  0
  6 14  1  0
 14 15  1  0
 15 16  2  0
 15 17  1  0
 17 18  1  0
 18 19  1  0
 19 20  2  0
 20 21  1  0
 21 22  2  0
 22 23  1  0
 23 24  2  0
  2 25  1  0
 25 26  2  0
 25 27  1  0
 27 28  1  0
 28 29  1  0
 29 30  1  0
 30 31  1  0
 31 32  1  0
 32 33  1  0
 33 34  1  0
 33 35  2  3
 28 36  1  0
 36 37  2  0
 36 38  1  0
 38 39  1  0
 39 40  1  0
 40 41  1  0
 41 42  1  0
 41 43  1  0
 39 44  1  0
 44 45  2  0
 44 46  1  0
 46 47  1  0
 47 48  1  0
 48 49  1  0
 49 50  2  0
 50 51  1  0
 51 52  1  0
 52 53  2  0
 53 54  1  0
 54 55  2  0
 55 56  1  0
 56 57  2  0
 47 58  1  0
 58 59  1  0
 58 60  2  0
 13  8  1  0
 24 19  1  0
 57 49  1  0
 57 52  1  0
  1 61  1  0
  1 62  1  0
  1 63  1  0
  2 64  1  6
  3 65  1  0
  6 66  1  1
  7 67  1  0
  7 68  1  0
  9 69  1  0
 10 70  1  0
 11 71  1  0
 12 72  1  0
 13 73  1  0
 14 74  1  0
 18 75  1  0
 18 76  1  0
 20 77  1  0
 21 78  1  0
 22 79  1  0
 23 80  1  0
 24 81  1  0
 27 82  1  0
 28 83  1  1
 29 84  1  0
 29 85  1  0
 30 86  1  0
 30 87  1  0
 31 88  1  0
 31 89  1  0
 32 90  1  0
 34 91  1  0
 34 92  1  0
 35 93  1  0
 38 94  1  0
 39 95  1  1
 40 96  1  0
 40 97  1  0
 41 98  1  0
 42 99  1  0
 42100  1  0
 42101  1  0
 43102  1  0
 43103  1  0
 43104  1  0
 46105  1  0
 47106  1  6
 48107  1  0
 48108  1  0
 50109  1  0
 51110  1  0
 53111  1  0
 54112  1  0
 55113  1  0
 56114  1  0
 59115  1  0
M  END
$$$$
[H]c1c([H])c(Cl)c([H])c(S(=O)(=O)N([H])[C@]2([H])C([H])([H])C([H])([H])[C@@]([H])(c3c([H])c([H])c(N4C([H])([H])C([H])([H])N(C([H])([H])[H])C([H])([H])C4([H])[H])c([H])c3[H])C([H])([H])C2([H])[H])c1[H]
     RDKit          3D

 60 63  0  0  0  0  0  0  0  0999 V2000
   -8.3497    1.7373    0.5075 C   0  0  0  0  0  0  0  0  0  0  0  0
   -7.1628    1.1645    1.1060 N   0  0  0  0  0  0  0  0  0  0  0  0
   -6.7897   -0.0858    0.5255 C   0  0  0  0  0  0  0  0  0  0  0  0
   -5.6338   -0.6176    1.3987 C   0  0  0  0  0  0  0  0  0  0  0  0
   -4.5358    0.2450    1.0924 N   0  0  0  0  0  0  0  0  0  0  0  0
   -4.7349    1.6679    1.1740 C   0  0  0  0  0  0  0  0  0  0  0  0
   -6.1354    2.1384    1.2279 C   0  0  0  0  0  0  0  0  0  0  0  0
   -3.2790   -0.2758    0.7128 C   0  0  0  0  0  0  0  0  0  0  0  0
   -3.0183   -1.6001    0.4820 C   0  0  0  0  0  0  0  0  0  0  0  0
   -1.7348   -2.0324    0.1099 C   0  0  0  0  0  0  0  0  0  0  0  0
   -0.6889   -1.1681   -0.0408 C   0  0  0  0  0  0  0  0  0  0  0  0
   -0.9349    0.1647    0.1875 C   0  0  0  0  0  0  0  0  0  0  0  0
   -2.1858    0.5952    0.5515 C   0  0  0  0  0  0  0  0  0  0  0  0
    0.6383   -1.6757   -0.4351 C   0  0  1  0  0  0  0  0  0  0  0  0
    1.1106   -1.1090   -1.7581 C   0  0  0  0  0  0  0  0  0  0  0  0
    2.4744   -1.7035   -2.0387 C   0  0  0  0  0  0  0  0  0  0  0  0
    3.4588   -1.0053   -1.0957 C   0  0  1  0  0  0  0  0  0  0  0  0
    2.7679   -0.5008    0.1538 C   0  0  0  0  0  0  0  0  0  0  0  0
    1.6932   -1.4534    0.6299 C   0  0  0  0  0  0  0  0  0  0  0  0
    4.5062   -1.9355   -0.8111 N   0  0  0  0  0  0  0  0  0  0  0  0
    6.0070   -1.3487   -1.4153 S   0  0  0  0  0  0  0  0  0  0  0  0
    7.0869   -2.3752   -1.2073 O   0  0  0  0  0  0  0  0  0  0  0  0
    5.8654   -1.1162   -2.9078 O   0  0  0  0  0  0  0  0  0  0  0  0
    6.4087    0.1513   -0.6339 C   0  0  0  0  0  0  0  0  0  0  0  0
    6.0626    1.3416   -1.2193 C   0  0  0  0  0  0  0  0  0  0  0  0
    6.3974    2.5159   -0.5575 C   0  0  0  0  0  0  0  0  0  0  0  0
    7.0576    2.4931    0.6513 C   0  0  0  0  0  0  0  0  0  0  0  0
    7.3991    1.2955    1.2274 C   0  0  0  0  0  0  0  0  0  0  0  0
    8.2469    1.2468    2.7786 Cl  0  0  0  0  0  0  0  0  0  0  0  0
    7.0615    0.1418    0.5613 C   0  0  0  0  0  0  0  0  0  0  0  0
   -8.7202    1.1180   -0.3403 H   0  0  0  0  0  0  0  0  0  0  0  0
   -9.1439    1.7339    1.2834 H   0  0  0  0  0  0  0  0  0  0  0  0
   -8.1632    2.7822    0.1928 H   0  0  0  0  0  0  0  0  0  0  0  0
   -6.4369    0.0008   -0.5268 H   0  0  0  0  0  0  0  0  0  0  0  0
   -7.6207   -0.7898    0.6349 H   0  0  0  0  0  0  0  0  0  0  0  0
   -5.5137   -1.6769    1.2123 H   0  0  0  0  0  0  0  0  0  0  0  0
   -6.0140   -0.4185    2.4521 H   0  0  0  0  0  0  0  0  0  0  0  0
   -4.1035    2.0413    2.0289 H   0  0  0  0  0  0  0  0  0  0  0  0
   -4.2614    2.1299    0.2576 H   0  0  0  0  0  0  0  0  0  0  0  0
   -6.3094    3.0052    0.5217 H   0  0  0  0  0  0  0  0  0  0  0  0
   -6.2774    2.6250    2.2412 H   0  0  0  0  0  0  0  0  0  0  0  0
   -3.8074   -2.3217    0.5861 H   0  0  0  0  0  0  0  0  0  0  0  0
   -1.6208   -3.0916   -0.0517 H   0  0  0  0  0  0  0  0  0  0  0  0
   -0.0941    0.8373    0.0638 H   0  0  0  0  0  0  0  0  0  0  0  0
   -2.3455    1.6585    0.7263 H   0  0  0  0  0  0  0  0  0  0  0  0
    0.5668   -2.7725   -0.5695 H   0  0  0  0  0  0  0  0  0  0  0  0
    0.3975   -1.3943   -2.5536 H   0  0  0  0  0  0  0  0  0  0  0  0
    1.2470   -0.0177   -1.6719 H   0  0  0  0  0  0  0  0  0  0  0  0
    2.7908   -1.5238   -3.0867 H   0  0  0  0  0  0  0  0  0  0  0  0
    2.4866   -2.7713   -1.7780 H   0  0  0  0  0  0  0  0  0  0  0  0
    3.8000   -0.1049   -1.6412 H   0  0  0  0  0  0  0  0  0  0  0  0
    2.3325    0.5062    0.0096 H   0  0  0  0  0  0  0  0  0  0  0  0
    3.5188   -0.4257    0.9553 H   0  0  0  0  0  0  0  0  0  0  0  0
    2.1516   -2.3868    0.9876 H   0  0  0  0  0  0  0  0  0  0  0  0
    1.1943   -0.9771    1.4994 H   0  0  0  0  0  0  0  0  0  0  0  0
    4.5809   -2.1524    0.2025 H   0  0  0  0  0  0  0  0  0  0  0  0
    5.5406    1.4167   -2.1791 H   0  0  0  0  0  0  0  0  0  0  0  0
    6.1105    3.4437   -1.0451 H   0  0  0  0  0  0  0  0  0  0  0  0
    7.3085    3.4309    1.1506 H   0  0  0  0  0  0  0  0  0  0  0  0
    7.3468   -0.8001    1.0463 H   0  0  0  0  0  0  0  0  0  0  0  0
  1  2  1  0
  2  3  1  0
  3  4  1  0
  4  5  1  0
  5  6  1  0
  6  7  1  0
  5  8  1  0
  8  9  2  0
  9 10  1  0
 10 11  2  0
 11 12  1  0
 12 13  2  0
 11 14  1  0
 14 15  1  0
 15 16  1  0
 16 17  1  0
 17 18  1  0
 18 19  1  0
 17 20  1  0
 20 21  1  0
 21 22  2  0
 21 23  2  0
 21 24  1  0
 24 25  2  0
 25 26  1  0
 26 27  2  0
 27 28  1  0
 28 29  1  0
 28 30  2  0
  7  2  1  0
 13  8  1  0
 19 14  1  0
 30 24  1  0
  1 31  1  0
  1 32  1  0
  1 33  1  0
  3 34  1  0
  3 35  1  0
  4 36  1  0
  4 37  1  0
  6 38  1  0
  6 39  1  0
  7 40  1  0
  7 41  1  0
  9 42  1  0
 10 43  1  0
 12 44  1  0
 13 45  1  0
 14 46  1  6
 15 47  1  0
 15 48  1  0
 16 49  1  0
 16 50  1  0
 17 51  1  6
 18 52  1  0
 18 53  1  0
 19 54  1  0
 19 55  1  0
 20 56  1  0
 25 57  1  0
 26 58  1  0
 27 59  1  0
 30 60  1  0
M  END
$$$$
[H]Oc1c([H])c([H])c(C([H])([H])[C@]([H])(N([H])C(=O)[C@@]([H])(N([H])C(=O)[C@@]([H])(N([H])C(=O)c2c([H])c([H])c([H])c([H])c2[H])C([H])([H])c2c([H])c([H])c([H])c([H])c2[H])C([H])([H])C([H])(C([H])([H])[H])C([H])([H])[H])C(C([H])([H])[H])(C([H])([H])[H])C([H])([H])[H])c([H])c1[H]
     RDKit          3D

 84 86  0  0  0  0  0  0  0  0999 V2000
   -0.8757   -1.9281   -3.5985 C   0  0  0  0  0  0  0  0  0  0  0  0
   -1.0180   -2.6788   -2.2859 C   0  0  0  0  0  0  0  0  0  0  0  0
   -0.6642   -4.1661   -2.5360 C   0  0  0  0  0  0  0  0  0  0  0  0
   -0.1039   -2.2022   -1.2334 C   0  0  0  0  0  0  0  0  0  0  0  0
   -0.2052   -0.7651   -0.8135 C   0  0  2  0  0  0  0  0  0  0  0  0
    0.8600   -0.6239    0.2181 N   0  0  0  0  0  0  0  0  0  0  0  0
    2.0876    0.0103   -0.0718 C   0  0  0  0  0  0  0  0  0  0  0  0
    2.2308    0.4409   -1.2502 O   0  0  0  0  0  0  0  0  0  0  0  0
    3.1761    0.1851    0.8909 C   0  0  2  0  0  0  0  0  0  0  0  0
    3.0910    1.5007    1.6579 C   0  0  0  0  0  0  0  0  0  0  0  0
    4.2217    1.6219    2.6139 C   0  0  0  0  0  0  0  0  0  0  0  0
    4.1184    1.1114    3.8958 C   0  0  0  0  0  0  0  0  0  0  0  0
    5.1704    1.2053    4.7947 C   0  0  0  0  0  0  0  0  0  0  0  0
    6.3374    1.8186    4.4010 C   0  0  0  0  0  0  0  0  0  0  0  0
    6.4594    2.3305    3.1365 C   0  0  0  0  0  0  0  0  0  0  0  0
    5.4043    2.2279    2.2581 C   0  0  0  0  0  0  0  0  0  0  0  0
    4.4202    0.3080    0.1081 N   0  0  0  0  0  0  0  0  0  0  0  0
    5.5013   -0.5578    0.3052 C   0  0  0  0  0  0  0  0  0  0  0  0
    5.4518   -1.4837    1.1774 O   0  0  0  0  0  0  0  0  0  0  0  0
    6.7118   -0.4344   -0.4754 C   0  0  0  0  0  0  0  0  0  0  0  0
    7.7164   -1.4072   -0.3951 C   0  0  0  0  0  0  0  0  0  0  0  0
    8.8594   -1.3016   -1.1483 C   0  0  0  0  0  0  0  0  0  0  0  0
    9.0417   -0.2363   -1.9977 C   0  0  0  0  0  0  0  0  0  0  0  0
    8.0671    0.7320   -2.0917 C   0  0  0  0  0  0  0  0  0  0  0  0
    6.9126    0.6119   -1.3214 C   0  0  0  0  0  0  0  0  0  0  0  0
   -1.4772   -0.3583   -0.2133 C   0  0  0  0  0  0  0  0  0  0  0  0
   -1.4238   -0.0195    1.0329 O   0  0  0  0  0  0  0  0  0  0  0  0
   -2.7440   -0.2807   -0.7873 N   0  0  0  0  0  0  0  0  0  0  0  0
   -3.9476    0.1585   -0.0223 C   0  0  1  0  0  0  0  0  0  0  0  0
   -4.3970    1.3852   -0.7059 C   0  0  0  0  0  0  0  0  0  0  0  0
   -5.5678    2.0959   -0.2092 C   0  0  0  0  0  0  0  0  0  0  0  0
   -6.8004    1.9027   -0.7639 C   0  0  0  0  0  0  0  0  0  0  0  0
   -7.9397    2.5512   -0.3241 C   0  0  0  0  0  0  0  0  0  0  0  0
   -7.8304    3.4286    0.7153 C   0  0  0  0  0  0  0  0  0  0  0  0
   -8.9538    4.1228    1.2129 O   0  0  0  0  0  0  0  0  0  0  0  0
   -6.5955    3.6458    1.2970 C   0  0  0  0  0  0  0  0  0  0  0  0
   -5.4839    2.9850    0.8362 C   0  0  0  0  0  0  0  0  0  0  0  0
   -4.8549   -1.0151    0.0375 C   0  0  0  0  0  0  0  0  0  0  0  0
   -4.0239   -2.1316    0.7414 C   0  0  0  0  0  0  0  0  0  0  0  0
   -5.2299   -1.5803   -1.3093 C   0  0  0  0  0  0  0  0  0  0  0  0
   -6.0801   -0.8745    0.8739 C   0  0  0  0  0  0  0  0  0  0  0  0
   -1.0285   -2.6717   -4.4128 H   0  0  0  0  0  0  0  0  0  0  0  0
   -1.6977   -1.2010   -3.6876 H   0  0  0  0  0  0  0  0  0  0  0  0
    0.1206   -1.4767   -3.7486 H   0  0  0  0  0  0  0  0  0  0  0  0
   -2.0711   -2.6925   -2.0082 H   0  0  0  0  0  0  0  0  0  0  0  0
   -1.4938   -4.7223   -2.9701 H   0  0  0  0  0  0  0  0  0  0  0  0
    0.2067   -4.2220   -3.2242 H   0  0  0  0  0  0  0  0  0  0  0  0
   -0.3561   -4.6550   -1.5909 H   0  0  0  0  0  0  0  0  0  0  0  0
   -0.3256   -2.8127   -0.3039 H   0  0  0  0  0  0  0  0  0  0  0  0
    0.9295   -2.4799   -1.5025 H   0  0  0  0  0  0  0  0  0  0  0  0
    0.1001   -0.0744   -1.6266 H   0  0  0  0  0  0  0  0  0  0  0  0
    0.6504   -1.0130    1.1397 H   0  0  0  0  0  0  0  0  0  0  0  0
    3.2989   -0.6638    1.5586 H   0  0  0  0  0  0  0  0  0  0  0  0
    2.1428    1.5474    2.1754 H   0  0  0  0  0  0  0  0  0  0  0  0
    3.1814    2.3596    0.9317 H   0  0  0  0  0  0  0  0  0  0  0  0
    3.1907    0.6382    4.1789 H   0  0  0  0  0  0  0  0  0  0  0  0
    5.0082    0.7753    5.7857 H   0  0  0  0  0  0  0  0  0  0  0  0
    7.1476    1.8895    5.0976 H   0  0  0  0  0  0  0  0  0  0  0  0
    7.3590    2.8267    2.7635 H   0  0  0  0  0  0  0  0  0  0  0  0
    5.4431    2.6194    1.2338 H   0  0  0  0  0  0  0  0  0  0  0  0
    4.4522    1.0632   -0.5930 H   0  0  0  0  0  0  0  0  0  0  0  0
    7.5902   -2.2472    0.2688 H   0  0  0  0  0  0  0  0  0  0  0  0
    9.6608   -2.0418   -1.1108 H   0  0  0  0  0  0  0  0  0  0  0  0
    9.9360   -0.1083   -2.6190 H   0  0  0  0  0  0  0  0  0  0  0  0
    8.1913    1.5618   -2.7451 H   0  0  0  0  0  0  0  0  0  0  0  0
    6.1944    1.4329   -1.4556 H   0  0  0  0  0  0  0  0  0  0  0  0
   -2.9169   -0.5113   -1.7672 H   0  0  0  0  0  0  0  0  0  0  0  0
   -3.5750    0.3749    0.9905 H   0  0  0  0  0  0  0  0  0  0  0  0
   -4.4471    1.2330   -1.8191 H   0  0  0  0  0  0  0  0  0  0  0  0
   -3.5328    2.1261   -0.6162 H   0  0  0  0  0  0  0  0  0  0  0  0
   -6.9292    1.2087   -1.5974 H   0  0  0  0  0  0  0  0  0  0  0  0
   -8.8807    2.3540   -0.8042 H   0  0  0  0  0  0  0  0  0  0  0  0
   -9.2004    5.0286    0.8182 H   0  0  0  0  0  0  0  0  0  0  0  0
   -6.5638    4.3552    2.1217 H   0  0  0  0  0  0  0  0  0  0  0  0
   -4.5427    3.1654    1.3019 H   0  0  0  0  0  0  0  0  0  0  0  0
   -4.7312   -2.9524    1.0001 H   0  0  0  0  0  0  0  0  0  0  0  0
   -3.2853   -2.5145    0.0349 H   0  0  0  0  0  0  0  0  0  0  0  0
   -3.6294   -1.7642    1.6970 H   0  0  0  0  0  0  0  0  0  0  0  0
   -5.5515   -0.8126   -2.0368 H   0  0  0  0  0  0  0  0  0  0  0  0
   -6.0720   -2.3042   -1.1669 H   0  0  0  0  0  0  0  0  0  0  0  0
   -4.3749   -2.1579   -1.7072 H   0  0  0  0  0  0  0  0  0  0  0  0
   -6.0979   -0.0222    1.5675 H   0  0  0  0  0  0  0  0  0  0  0  0
   -6.9855   -0.9903    0.2419 H   0  0  0  0  0  0  0  0  0  0  0  0
   -6.1375   -1.7824    1.5560 H   0  0  0  0  0  0  0  0  0  0  0  0
  1  2  1  0
  2  3  1  0
  2  4  1  0
  4  5  1  0
  5  6  1  0
  6  7  1  0
  7  8  2  0
  7  9  1  0
  9 10  1  0
 10 11  1  0
 11 12  2  0
 12 13  1  0
 13 14  2  0
 14 15  1  0
 15 16  2  0
  9 17  1  0
 17 18  1  0
 18 19  2  0
 18 20  1  0
 20 21  2  0
 21 22  1  0
 22 23  2  0
 23 24  1  0
 24 25  2  0
  5 26  1  0
 26 27  2  0
 26 28  1  0
 28 29  1  0
 29 30  1  0
 30 31  1  0
 31 32  2  0
 32 33  1  0
 33 34  2  0
 34 35  1  0
 34 36  1  0
 36 37  2  0
 29 38  1  0
 38 39  1  0
 38 40  1  0
 38 41  1  0
 16 11  1  0
 25 20  1  0
 37 31  1  0
  1 42  1  0
  1 43  1  0
  1 44  1  0
  2 45  1  0
  3 46  1  0
  3 47  1  0
  3 48  1  0
  4 49  1  0
  4 50  1  0
  5 51  1  6
  6 52  1  0
  9 53  1  1
 10 54  1  0
 10 55  1  0
 12 56  1  0
 13 57  1  0
 14 58  1  0
 15 59  1  0
 16 60  1  0
 17 61  1  0
 21 62  1  0
 22 63  1  0
 23 64  1  0
 24 65  1  0
 25 66  1  0
 28 67  1  0
 29 68  1  1
 30 69  1  0
 30 70  1  0
 32 71  1  0
 33 72  1  0
 35 73  1  0
 36 74  1  0
 37 75  1  0
 39 76  1  0
 39 77  1  0
 39 78  1  0
 40 79  1  0
 40 80  1  0
 40 81  1  0
 41 82  1  0
 41 83  1  0
 41 84  1  0
M  END
$$$$
[H]ON([H])C(=O)[C@@]1([H])N(S(=O)(=O)c2c([H])c([H])c(OC([H])([H])[H])c([H])c2[H])C([H])([H])[C@]([H])(c2c([H])c([H])c([H])c([H])c2Cl)C1([H])[H]
     RDKit          3D

 46 48  0  0  0  0  0  0  0  0999 V2000
    5.2060    2.9452    0.3070 C   0  0  0  0  0  0  0  0  0  0  0  0
    4.9830    1.5751    0.4320 O   0  0  0  0  0  0  0  0  0  0  0  0
    3.9565    0.8744   -0.1860 C   0  0  0  0  0  0  0  0  0  0  0  0
    3.8396   -0.4853    0.0162 C   0  0  0  0  0  0  0  0  0  0  0  0
    2.8268   -1.2070   -0.5873 C   0  0  0  0  0  0  0  0  0  0  0  0
    1.8921   -0.6183   -1.4115 C   0  0  0  0  0  0  0  0  0  0  0  0
    2.0304    0.7575   -1.6011 C   0  0  0  0  0  0  0  0  0  0  0  0
    3.0304    1.4754   -1.0063 C   0  0  0  0  0  0  0  0  0  0  0  0
    0.6217   -1.5377   -2.1682 S   0  0  0  0  0  0  0  0  0  0  0  0
    0.3207   -0.9957   -3.5545 O   0  0  0  0  0  0  0  0  0  0  0  0
    1.1067   -2.9622   -2.4050 O   0  0  0  0  0  0  0  0  0  0  0  0
   -0.7998   -1.6457   -1.2300 N   0  0  0  0  0  0  0  0  0  0  0  0
   -1.3722   -0.3427   -0.9900 C   0  0  0  0  0  0  0  0  0  0  0  0
   -2.0475   -0.4744    0.3868 C   0  0  1  0  0  0  0  0  0  0  0  0
   -1.0598   -1.3340    1.0725 C   0  0  0  0  0  0  0  0  0  0  0  0
   -0.6546   -2.3223   -0.0051 C   0  0  1  0  0  0  0  0  0  0  0  0
   -1.6240   -3.4605    0.0292 C   0  0  0  0  0  0  0  0  0  0  0  0
   -1.7256   -4.2406    1.0110 O   0  0  0  0  0  0  0  0  0  0  0  0
   -2.4793   -3.7004   -1.0721 N   0  0  0  0  0  0  0  0  0  0  0  0
   -3.3734   -4.6924   -1.1261 O   0  0  0  0  0  0  0  0  0  0  0  0
   -2.3186    0.8506    0.8929 C   0  0  0  0  0  0  0  0  0  0  0  0
   -2.1282    1.9532    0.0634 C   0  0  0  0  0  0  0  0  0  0  0  0
   -2.3716    3.2532    0.4661 C   0  0  0  0  0  0  0  0  0  0  0  0
   -2.8245    3.4517    1.7528 C   0  0  0  0  0  0  0  0  0  0  0  0
   -3.0177    2.3504    2.5886 C   0  0  0  0  0  0  0  0  0  0  0  0
   -2.7742    1.0640    2.1821 C   0  0  0  0  0  0  0  0  0  0  0  0
   -3.0200   -0.3242    3.2116 Cl  0  0  0  0  0  0  0  0  0  0  0  0
    4.9416    3.3713   -0.6764 H   0  0  0  0  0  0  0  0  0  0  0  0
    4.7448    3.5155    1.1625 H   0  0  0  0  0  0  0  0  0  0  0  0
    6.3122    3.1082    0.4149 H   0  0  0  0  0  0  0  0  0  0  0  0
    4.5642   -0.9605    0.6587 H   0  0  0  0  0  0  0  0  0  0  0  0
    2.7420   -2.2719   -0.4241 H   0  0  0  0  0  0  0  0  0  0  0  0
    1.3213    1.2393   -2.2338 H   0  0  0  0  0  0  0  0  0  0  0  0
    3.1344    2.5594   -1.1590 H   0  0  0  0  0  0  0  0  0  0  0  0
   -2.1051   -0.0485   -1.7423 H   0  0  0  0  0  0  0  0  0  0  0  0
   -0.5329    0.3712   -0.9479 H   0  0  0  0  0  0  0  0  0  0  0  0
   -3.0021   -1.0307    0.2872 H   0  0  0  0  0  0  0  0  0  0  0  0
   -0.1246   -0.8160    1.3680 H   0  0  0  0  0  0  0  0  0  0  0  0
   -1.4516   -1.9815    1.8890 H   0  0  0  0  0  0  0  0  0  0  0  0
    0.3686   -2.7241    0.1831 H   0  0  0  0  0  0  0  0  0  0  0  0
   -2.4119   -3.0658   -1.8959 H   0  0  0  0  0  0  0  0  0  0  0  0
   -4.3017   -4.4061   -0.9808 H   0  0  0  0  0  0  0  0  0  0  0  0
   -1.7828    1.8738   -0.9674 H   0  0  0  0  0  0  0  0  0  0  0  0
   -2.2308    4.1215   -0.1600 H   0  0  0  0  0  0  0  0  0  0  0  0
   -3.0346    4.4606    2.1285 H   0  0  0  0  0  0  0  0  0  0  0  0
   -3.3737    2.4769    3.6068 H   0  0  0  0  0  0  0  0  0  0  0  0
  1  2  1  0
  2  3  1  0
  3  4  2  0
  4  5  1  0
  5  6  2  0
  6  7  1  0
  7  8  2  0
  6  9  1  0
  9 10  2  0
  9 11  2  0
  9 12  1  0
 12 13  1  0
 13 14  1  0
 14 15  1  0
 15 16  1  0
 16 17  1  0
 17 18  2  0
 17 19  1  0
 19 20  1  0
 14 21  1  0
 21 22  2  0
 22 23  1  0
 23 24  2  0
 24 25  1  0
 25 26  2  0
 26 27  1  0
  8  3  1  0
 16 12  1  0
 26 21  1  0
  1 28  1  0
  1 29  1  0
  1 30  1  0
  4 31  1  0
  5 32  1  0
  7 33  1  0
  8 34  1  0
 13 35  1  0
 13 36  1  0
 14 37  1  6
 15 38  1  0
 15 39  1  0
 16 40  1  1
 19 41  1  0
 20 42  1  0
 22 43  1  0
 23 44  1  0
 24 45  1  0
 25 46  1  0
M  END
$$$$
[H]c1nc2c([H])c(OC([H])([H])[H])c(OC([H])([H])[H])c([H])c2c(Oc2c([H])c([H])c(N([H])C(=O)N([H])[C@]([H])(c3c([H])n(C([H])([H])[H])c(=O)n([H])c3=O)C([H])([H])[H])c([H])c2F)c1[H]
     RDKit          3D

 61 64  0  0  0  0  0  0  0  0999 V2000
   -9.2076   -0.6655    1.9618 C   0  0  0  0  0  0  0  0  0  0  0  0
   -7.8888   -1.0919    1.8261 O   0  0  0  0  0  0  0  0  0  0  0  0
   -7.0576   -0.7256    0.8013 C   0  0  0  0  0  0  0  0  0  0  0  0
   -7.3641    0.0972   -0.2534 C   0  0  0  0  0  0  0  0  0  0  0  0
   -6.4777    0.4435   -1.2667 C   0  0  0  0  0  0  0  0  0  0  0  0
   -6.8681    1.2543   -2.2666 N   0  0  0  0  0  0  0  0  0  0  0  0
   -6.0465    1.6089   -3.2585 C   0  0  0  0  0  0  0  0  0  0  0  0
   -4.7781    1.1462   -3.2720 C   0  0  0  0  0  0  0  0  0  0  0  0
   -4.2841    0.2657   -2.2216 C   0  0  0  0  0  0  0  0  0  0  0  0
   -3.0199   -0.0655   -2.4043 O   0  0  0  0  0  0  0  0  0  0  0  0
   -1.7832   -0.0367   -1.9157 C   0  0  0  0  0  0  0  0  0  0  0  0
   -1.0320    1.1520   -2.2417 C   0  0  0  0  0  0  0  0  0  0  0  0
    0.2452    1.3325   -1.8158 C   0  0  0  0  0  0  0  0  0  0  0  0
    0.9302    0.4377   -1.0589 C   0  0  0  0  0  0  0  0  0  0  0  0
    2.2226    0.6071   -0.5715 N   0  0  0  0  0  0  0  0  0  0  0  0
    2.9188    1.8413   -0.4897 C   0  0  0  0  0  0  0  0  0  0  0  0
    2.3403    2.9064   -0.8820 O   0  0  0  0  0  0  0  0  0  0  0  0
    4.2153    1.8649    0.0152 N   0  0  0  0  0  0  0  0  0  0  0  0
    5.4637    1.8899    0.5011 C   0  0  1  0  0  0  0  0  0  0  0  0
    5.4373    2.3255    1.9729 C   0  0  0  0  0  0  0  0  0  0  0  0
    6.2707    0.6337    0.3187 C   0  0  0  0  0  0  0  0  0  0  0  0
    6.7411   -0.1214    1.3647 C   0  0  0  0  0  0  0  0  0  0  0  0
    7.4782   -1.2211    1.0978 N   0  0  0  0  0  0  0  0  0  0  0  0
    7.9860   -2.0452    2.1586 C   0  0  0  0  0  0  0  0  0  0  0  0
    7.7663   -1.6003   -0.1825 C   0  0  0  0  0  0  0  0  0  0  0  0
    8.4584   -2.6375   -0.3879 O   0  0  0  0  0  0  0  0  0  0  0  0
    7.3201   -0.8845   -1.2282 N   0  0  0  0  0  0  0  0  0  0  0  0
    6.5723    0.2311   -0.9473 C   0  0  0  0  0  0  0  0  0  0  0  0
    6.1650    0.8893   -1.9639 O   0  0  0  0  0  0  0  0  0  0  0  0
    0.2105   -0.7271   -0.7400 C   0  0  0  0  0  0  0  0  0  0  0  0
   -1.0890   -0.9244   -1.1695 C   0  0  0  0  0  0  0  0  0  0  0  0
   -1.5987   -2.1677   -0.8768 F   0  0  0  0  0  0  0  0  0  0  0  0
   -5.1718   -0.0602   -1.2460 C   0  0  0  0  0  0  0  0  0  0  0  0
   -4.8601   -0.8840   -0.1932 C   0  0  0  0  0  0  0  0  0  0  0  0
   -5.7412   -1.2240    0.8043 C   0  0  0  0  0  0  0  0  0  0  0  0
   -5.3703   -2.0693    1.8338 O   0  0  0  0  0  0  0  0  0  0  0  0
   -4.0476   -2.6348    1.8012 C   0  0  0  0  0  0  0  0  0  0  0  0
   -9.3442   -0.1700    2.9577 H   0  0  0  0  0  0  0  0  0  0  0  0
   -9.9041   -1.5607    1.9349 H   0  0  0  0  0  0  0  0  0  0  0  0
   -9.4923    0.0448    1.1796 H   0  0  0  0  0  0  0  0  0  0  0  0
   -8.3584    0.5241   -0.3298 H   0  0  0  0  0  0  0  0  0  0  0  0
   -6.3838    2.2744   -4.0816 H   0  0  0  0  0  0  0  0  0  0  0  0
   -4.0771    1.4240   -4.0569 H   0  0  0  0  0  0  0  0  0  0  0  0
   -1.5686    1.8802   -2.8358 H   0  0  0  0  0  0  0  0  0  0  0  0
    0.7181    2.2762   -2.1528 H   0  0  0  0  0  0  0  0  0  0  0  0
    2.7235   -0.2621   -0.2503 H   0  0  0  0  0  0  0  0  0  0  0  0
    4.2648    3.2363   -0.1411 H   0  0  0  0  0  0  0  0  0  0  0  0
    6.1638    2.6948    0.0552 H   0  0  0  0  0  0  0  0  0  0  0  0
    5.3947    3.4509    1.9830 H   0  0  0  0  0  0  0  0  0  0  0  0
    4.5370    1.9468    2.4484 H   0  0  0  0  0  0  0  0  0  0  0  0
    6.3282    2.0390    2.5146 H   0  0  0  0  0  0  0  0  0  0  0  0
    6.5324    0.1381    2.3879 H   0  0  0  0  0  0  0  0  0  0  0  0
    8.9139   -2.5410    1.8189 H   0  0  0  0  0  0  0  0  0  0  0  0
    7.2328   -2.8263    2.4369 H   0  0  0  0  0  0  0  0  0  0  0  0
    8.1688   -1.4143    3.0545 H   0  0  0  0  0  0  0  0  0  0  0  0
    7.5131   -1.1528   -2.2039 H   0  0  0  0  0  0  0  0  0  0  0  0
    0.7213   -1.4684   -0.1433 H   0  0  0  0  0  0  0  0  0  0  0  0
   -3.8730   -1.2723   -0.1532 H   0  0  0  0  0  0  0  0  0  0  0  0
   -3.3092   -1.8782    2.0131 H   0  0  0  0  0  0  0  0  0  0  0  0
   -3.9408   -3.0383    0.7547 H   0  0  0  0  0  0  0  0  0  0  0  0
   -4.0166   -3.4853    2.5183 H   0  0  0  0  0  0  0  0  0  0  0  0
  1  2  1  0
  2  3  1  0
  3  4  2  0
  4  5  1  0
  5  6  2  0
  6  7  1  0
  7  8  2  0
  8  9  1  0
  9 10  1  0
 10 11  1  0
 11 12  2  0
 12 13  1  0
 13 14  2  0
 14 15  1  0
 15 16  1  0
 16 17  2  0
 16 18  1  0
 18 19  1  0
 19 20  1  0
 19 21  1  0
 21 22  2  0
 22 23  1  0
 23 24  1  0
 23 25  1  0
 25 26  2  0
 25 27  1  0
 27 28  1  0
 28 29  2  0
 14 30  1  0
 30 31  2  0
 31 32  1  0
  9 33  2  0
 33 34  1  0
 34 35  2  0
 35 36  1  0
 36 37  1  0
 35  3  1  0
 33  5  1  0
 31 11  1  0
 28 21  1  0
  1 38  1  0
  1 39  1  0
  1 40  1  0
  4 41  1  0
  7 42  1  0
  8 43  1  0
 12 44  1  0
 13 45  1  0
 15 46  1  0
 18 47  1  0
 19 48  1  6
 20 49  1  0
 20 50  1  0
 20 51  1  0
 22 52  1  0
 24 53  1  0
 24 54  1  0
 24 55  1  0
 27 56  1  0
 30 57  1  0
 34 58  1  0
 37 59  1  0
 37 60  1  0
 37 61  1  0
M  END
$$$$
[H]O[C@]([H])(C([H])([H])[H])[C@]([H])(C(=O)N([H])[C@]([H])(C(=O)N([H])[H])C([H])([H])c1c([H])c([H])c([H])c([H])c1[H])N([H])C(=O)[C@]([H])(N([H])C(=O)OC(C([H])([H])[H])(C([H])([H])[H])C([H])([H])[H])C([H])([H])c1c([H])n([H])c2c([H])c([H])c([H])c([H])c12
     RDKit          3D

 77 79  0  0  0  0  0  0  0  0999 V2000
    1.5029   -0.1826   -2.3967 C   0  0  0  0  0  0  0  0  0  0  0  0
    1.5916    0.7620   -1.2361 C   0  0  1  0  0  0  0  0  0  0  0  0
    0.9520    1.9370   -1.5525 O   0  0  0  0  0  0  0  0  0  0  0  0
    1.0481    0.1266    0.0468 C   0  0  1  0  0  0  0  0  0  0  0  0
   -0.3579   -0.1717   -0.0913 N   0  0  0  0  0  0  0  0  0  0  0  0
   -1.3581    0.6285    0.5055 C   0  0  0  0  0  0  0  0  0  0  0  0
   -0.8511    1.6146    1.1972 O   0  0  0  0  0  0  0  0  0  0  0  0
   -2.7880    0.5710    0.4844 C   0  0  1  0  0  0  0  0  0  0  0  0
   -3.5859   -0.5552    0.9875 C   0  0  0  0  0  0  0  0  0  0  0  0
   -3.4265   -1.8852    0.4145 C   0  0  0  0  0  0  0  0  0  0  0  0
   -4.1202   -2.3245   -0.7353 C   0  0  0  0  0  0  0  0  0  0  0  0
   -3.7498   -3.5632   -1.0598 N   0  0  0  0  0  0  0  0  0  0  0  0
   -2.8335   -3.9827   -0.1762 C   0  0  0  0  0  0  0  0  0  0  0  0
   -2.1660   -5.1933   -0.0593 C   0  0  0  0  0  0  0  0  0  0  0  0
   -1.2909   -5.3604    0.9873 C   0  0  0  0  0  0  0  0  0  0  0  0
   -1.0784   -4.3598    1.8961 C   0  0  0  0  0  0  0  0  0  0  0  0
   -1.7527   -3.1548    1.7638 C   0  0  0  0  0  0  0  0  0  0  0  0
   -2.6339   -2.9666    0.7216 C   0  0  0  0  0  0  0  0  0  0  0  0
   -3.3531    1.8007    1.1587 N   0  0  0  0  0  0  0  0  0  0  0  0
   -4.0785    2.6979    0.3553 C   0  0  0  0  0  0  0  0  0  0  0  0
   -4.2252    2.4487   -0.8641 O   0  0  0  0  0  0  0  0  0  0  0  0
   -4.6575    3.8641    0.8215 O   0  0  0  0  0  0  0  0  0  0  0  0
   -5.3853    4.7922    0.0934 C   0  0  0  0  0  0  0  0  0  0  0  0
   -4.6420    5.4284   -1.0421 C   0  0  0  0  0  0  0  0  0  0  0  0
   -5.7582    5.9291    1.0584 C   0  0  0  0  0  0  0  0  0  0  0  0
   -6.6983    4.2518   -0.4364 C   0  0  0  0  0  0  0  0  0  0  0  0
    1.8818   -0.9876    0.4236 C   0  0  0  0  0  0  0  0  0  0  0  0
    1.4259   -2.1421    0.5884 O   0  0  0  0  0  0  0  0  0  0  0  0
    3.3011   -0.8598    0.6406 N   0  0  0  0  0  0  0  0  0  0  0  0
    4.1488   -1.9670    1.0245 C   0  0  1  0  0  0  0  0  0  0  0  0
    5.0607   -2.3647   -0.1063 C   0  0  0  0  0  0  0  0  0  0  0  0
    5.9594   -1.3214   -0.5808 C   0  0  0  0  0  0  0  0  0  0  0  0
    7.2113   -1.1638   -0.0394 C   0  0  0  0  0  0  0  0  0  0  0  0
    8.0570   -0.1552   -0.5149 C   0  0  0  0  0  0  0  0  0  0  0  0
    7.6858    0.6973   -1.5144 C   0  0  0  0  0  0  0  0  0  0  0  0
    6.4228    0.5385   -2.0607 C   0  0  0  0  0  0  0  0  0  0  0  0
    5.5854   -0.4602   -1.5894 C   0  0  0  0  0  0  0  0  0  0  0  0
    4.8186   -1.7564    2.3081 C   0  0  0  0  0  0  0  0  0  0  0  0
    5.6848   -2.7205    2.8860 N   0  0  0  0  0  0  0  0  0  0  0  0
    4.6483   -0.6828    2.9688 O   0  0  0  0  0  0  0  0  0  0  0  0
    0.6722    0.1355   -3.0851 H   0  0  0  0  0  0  0  0  0  0  0  0
    2.4334   -0.0646   -3.0113 H   0  0  0  0  0  0  0  0  0  0  0  0
    1.3869   -1.2517   -2.1014 H   0  0  0  0  0  0  0  0  0  0  0  0
    2.6541    0.9994   -1.0150 H   0  0  0  0  0  0  0  0  0  0  0  0
    1.4897    2.4090   -2.2388 H   0  0  0  0  0  0  0  0  0  0  0  0
    1.1427    0.9460    0.8065 H   0  0  0  0  0  0  0  0  0  0  0  0
   -0.6544   -0.9961   -0.6499 H   0  0  0  0  0  0  0  0  0  0  0  0
   -3.0806    0.6728   -0.6270 H   0  0  0  0  0  0  0  0  0  0  0  0
   -4.6875   -0.2821    0.8226 H   0  0  0  0  0  0  0  0  0  0  0  0
   -3.5531   -0.5946    2.1253 H   0  0  0  0  0  0  0  0  0  0  0  0
   -4.8532   -1.7475   -1.2872 H   0  0  0  0  0  0  0  0  0  0  0  0
   -4.1079   -4.1274   -1.8682 H   0  0  0  0  0  0  0  0  0  0  0  0
   -2.3542   -5.9625   -0.7904 H   0  0  0  0  0  0  0  0  0  0  0  0
   -0.7596   -6.3092    1.0909 H   0  0  0  0  0  0  0  0  0  0  0  0
   -0.3828   -4.5114    2.7185 H   0  0  0  0  0  0  0  0  0  0  0  0
   -1.6055   -2.3503    2.4630 H   0  0  0  0  0  0  0  0  0  0  0  0
   -3.1492    1.8619    2.1559 H   0  0  0  0  0  0  0  0  0  0  0  0
   -5.1145    6.4288   -1.2194 H   0  0  0  0  0  0  0  0  0  0  0  0
   -3.5814    5.6407   -0.8233 H   0  0  0  0  0  0  0  0  0  0  0  0
   -4.7192    4.8832   -2.0007 H   0  0  0  0  0  0  0  0  0  0  0  0
   -6.0206    6.8344    0.4915 H   0  0  0  0  0  0  0  0  0  0  0  0
   -6.5687    5.6053    1.7293 H   0  0  0  0  0  0  0  0  0  0  0  0
   -4.8191    6.1897    1.6338 H   0  0  0  0  0  0  0  0  0  0  0  0
   -7.4233    5.0752   -0.5269 H   0  0  0  0  0  0  0  0  0  0  0  0
   -6.5002    3.7100   -1.3713 H   0  0  0  0  0  0  0  0  0  0  0  0
   -7.0351    3.4791    0.3124 H   0  0  0  0  0  0  0  0  0  0  0  0
    3.7828    0.0732    0.5229 H   0  0  0  0  0  0  0  0  0  0  0  0
    3.4418   -2.8441    1.1455 H   0  0  0  0  0  0  0  0  0  0  0  0
    4.4189   -2.6981   -0.9420 H   0  0  0  0  0  0  0  0  0  0  0  0
    5.6242   -3.2833    0.2254 H   0  0  0  0  0  0  0  0  0  0  0  0
    7.6136   -1.7681    0.7422 H   0  0  0  0  0  0  0  0  0  0  0  0
    9.0470   -0.0323   -0.0844 H   0  0  0  0  0  0  0  0  0  0  0  0
    8.3176    1.4872   -1.9047 H   0  0  0  0  0  0  0  0  0  0  0  0
    6.1106    1.2091   -2.8578 H   0  0  0  0  0  0  0  0  0  0  0  0
    4.6131   -0.5187   -2.0697 H   0  0  0  0  0  0  0  0  0  0  0  0
    5.4689   -3.7379    2.8366 H   0  0  0  0  0  0  0  0  0  0  0  0
    6.5573   -2.3676    3.3678 H   0  0  0  0  0  0  0  0  0  0  0  0
  1  2  1  0
  2  3  1  0
  2  4  1  0
  4  5  1  0
  5  6  1  0
  6  7  2  0
  6  8  1  0
  8  9  1  0
  9 10  1  0
 10 11  2  0
 11 12  1  0
 12 13  1  0
 13 14  2  0
 14 15  1  0
 15 16  2  0
 16 17  1  0
 17 18  2  0
  8 19  1  0
 19 20  1  0
 20 21  2  0
 20 22  1  0
 22 23  1  0
 23 24  1  0
 23 25  1  0
 23 26  1  0
  4 27  1  0
 27 28  2  0
 27 29  1  0
 29 30  1  0
 30 31  1  0
 31 32  1  0
 32 33  2  0
 33 34  1  0
 34 35  2  0
 35 36  1  0
 36 37  2  0
 30 38  1  0
 38 39  1  0
 38 40  2  0
 18 10  1  0
 37 32  1  0
 18 13  1  0
  1 41  1  0
  1 42  1  0
  1 43  1  0
  2 44  1  1
  3 45  1  0
  4 46  1  1
  5 47  1  0
  8 48  1  6
  9 49  1  0
  9 50  1  0
 11 51  1  0
 12 52  1  0
 14 53  1  0
 15 54  1  0
 16 55  1  0
 17 56  1  0
 19 57  1  0
 24 58  1  0
 24 59  1  0
 24 60  1  0
 25 61  1  0
 25 62  1  0
 25 63  1  0
 26 64  1  0
 26 65  1  0
 26 66  1  0
 29 67  1  0
 30 68  1  1
 31 69  1  0
 31 70  1  0
 33 71  1  0
 34 72  1  0
 35 73  1  0
 36 74  1  0
 37 75  1  0
 39 76  1  0
 39 77  1  0
M  END
$$$$
[H]c1c([H])c([H])c([C@@]([H])(N([H])S(=O)(=O)c2c([H])c([H])c([H])c(C(F)(F)F)c2[H])C([H])(C([H])([H])[H])C([H])([H])[H])c([H])c1[H]
     RDKit          3D

 42 43  0  0  0  0  0  0  0  0999 V2000
   -0.7581    2.5364   -0.1946 C   0  0  0  0  0  0  0  0  0  0  0  0
   -1.8756    1.5172   -0.3132 C   0  0  0  0  0  0  0  0  0  0  0  0
   -2.3597    1.5569   -1.7184 C   0  0  0  0  0  0  0  0  0  0  0  0
   -1.4821    0.2290    0.2802 C   0  0  2  0  0  0  0  0  0  0  0  0
   -0.3467   -0.4473   -0.2401 N   0  0  0  0  0  0  0  0  0  0  0  0
    0.8346   -0.8446    0.9302 S   0  0  0  0  0  0  0  0  0  0  0  0
    0.2360   -0.5806    2.3097 O   0  0  0  0  0  0  0  0  0  0  0  0
    0.9827   -2.3519    0.8464 O   0  0  0  0  0  0  0  0  0  0  0  0
    2.3485   -0.0518    0.7561 C   0  0  0  0  0  0  0  0  0  0  0  0
    2.5627    1.2575    1.1815 C   0  0  0  0  0  0  0  0  0  0  0  0
    3.7796    1.8477    1.0163 C   0  0  0  0  0  0  0  0  0  0  0  0
    4.8035    1.1371    0.4234 C   0  0  0  0  0  0  0  0  0  0  0  0
    4.6010   -0.1513    0.0007 C   0  0  0  0  0  0  0  0  0  0  0  0
    3.3907   -0.7555    0.1566 C   0  0  0  0  0  0  0  0  0  0  0  0
    5.7253   -0.9167   -0.6634 C   0  0  0  0  0  0  0  0  0  0  0  0
    6.6595    0.0098   -1.1354 F   0  0  0  0  0  0  0  0  0  0  0  0
    6.3347   -1.6688    0.3417 F   0  0  0  0  0  0  0  0  0  0  0  0
    5.2863   -1.7653   -1.6054 F   0  0  0  0  0  0  0  0  0  0  0  0
   -2.6225   -0.7636    0.1753 C   0  0  0  0  0  0  0  0  0  0  0  0
   -2.8655   -1.5161   -0.9478 C   0  0  0  0  0  0  0  0  0  0  0  0
   -3.8788   -2.4149   -1.0449 C   0  0  0  0  0  0  0  0  0  0  0  0
   -4.7367   -2.6298    0.0069 C   0  0  0  0  0  0  0  0  0  0  0  0
   -4.5411   -1.9144    1.1478 C   0  0  0  0  0  0  0  0  0  0  0  0
   -3.4962   -1.0029    1.2132 C   0  0  0  0  0  0  0  0  0  0  0  0
   -1.0245    3.5367   -0.5198 H   0  0  0  0  0  0  0  0  0  0  0  0
    0.0794    2.1292   -0.8020 H   0  0  0  0  0  0  0  0  0  0  0  0
   -0.4632    2.5134    0.8738 H   0  0  0  0  0  0  0  0  0  0  0  0
   -2.7004    1.9599    0.3324 H   0  0  0  0  0  0  0  0  0  0  0  0
   -3.1436    0.8524   -1.9783 H   0  0  0  0  0  0  0  0  0  0  0  0
   -2.8579    2.5736   -1.8490 H   0  0  0  0  0  0  0  0  0  0  0  0
   -1.5538    1.5627   -2.4983 H   0  0  0  0  0  0  0  0  0  0  0  0
   -1.3111    0.3648    1.3580 H   0  0  0  0  0  0  0  0  0  0  0  0
    0.0318   -0.0436   -1.1222 H   0  0  0  0  0  0  0  0  0  0  0  0
    1.6873    1.7739    1.6426 H   0  0  0  0  0  0  0  0  0  0  0  0
    3.9711    2.8630    1.3553 H   0  0  0  0  0  0  0  0  0  0  0  0
    5.8009    1.5781    0.2831 H   0  0  0  0  0  0  0  0  0  0  0  0
    3.2391   -1.7537   -0.2046 H   0  0  0  0  0  0  0  0  0  0  0  0
   -2.2039   -1.3904   -1.8103 H   0  0  0  0  0  0  0  0  0  0  0  0
   -4.0620   -2.9789   -1.9835 H   0  0  0  0  0  0  0  0  0  0  0  0
   -5.5299   -3.3524   -0.1312 H   0  0  0  0  0  0  0  0  0  0  0  0
   -5.1867   -2.0663    1.9968 H   0  0  0  0  0  0  0  0  0  0  0  0
   -3.3547   -0.4387    2.1343 H   0  0  0  0  0  0  0  0  0  0  0  0
  1  2  1  0
  2  3  1  0
  2  4  1  0
  4  5  1  0
  5  6  1  0
  6  7  2  0
  6  8  2  0
  6  9  1  0
  9 10  2  0
 10 11  1  0
 11 12  2  0
 12 13  1  0
 13 14  2  0
 13 15  1  0
 15 16  1  0
 15 17  1  0
 15 18  1  0
  4 19  1  0
 19 20  2  0
 20 21  1  0
 21 22  2  0
 22 23  1  0
 23 24  2  0
 14  9  1  0
 24 19  1  0
  1 25  1  0
  1 26  1  0
  1 27  1  0
  2 28  1  0
  3 29  1  0
  3 30  1  0
  3 31  1  0
  4 32  1  1
  5 33  1  0
 10 34  1  0
 11 35  1  0
 12 36  1  0
 14 37  1  0
 20 38  1  0
 21 39  1  0
 22 40  1  0
 23 41  1  0
 24 42  1  0
M  END
$$$$
[H]c1nc(N([H])[H])c(C(=O)N([H])[H])c(N2C([H])([H])C([H])([H])N(C([H])([H])c3c(-c4sc5c(OC([H])([H])[H])c([H])c(C([H])([H])[H])c([H])c5c4[H])c4c(N([H])[H])nc([H])nn4c3[H])C([H])([H])C2([H])[H])n1
     RDKit          3D

 67 72  0  0  0  0  0  0  0  0999 V2000
   -6.5152    3.1267    2.2655 C   0  0  0  0  0  0  0  0  0  0  0  0
   -5.4837    2.4588    1.5639 O   0  0  0  0  0  0  0  0  0  0  0  0
   -5.7367    1.1895    1.1067 C   0  0  0  0  0  0  0  0  0  0  0  0
   -6.9384    0.5504    1.3017 C   0  0  0  0  0  0  0  0  0  0  0  0
   -7.0699   -0.7198    0.7959 C   0  0  0  0  0  0  0  0  0  0  0  0
   -8.3889   -1.4269    1.0076 C   0  0  0  0  0  0  0  0  0  0  0  0
   -6.0517   -1.3280    0.1259 C   0  0  0  0  0  0  0  0  0  0  0  0
   -4.8120   -0.7039   -0.0907 C   0  0  0  0  0  0  0  0  0  0  0  0
   -3.7423   -1.2198   -0.7401 C   0  0  0  0  0  0  0  0  0  0  0  0
   -2.6227   -0.4563   -0.8512 C   0  0  0  0  0  0  0  0  0  0  0  0
   -3.1077    0.9927   -0.0208 S   0  0  0  0  0  0  0  0  0  0  0  0
   -4.6891    0.5537    0.4129 C   0  0  0  0  0  0  0  0  0  0  0  0
   -1.2727   -0.7516   -1.3722 C   0  0  0  0  0  0  0  0  0  0  0  0
   -0.0846   -0.3914   -0.7155 C   0  0  0  0  0  0  0  0  0  0  0  0
   -0.0398    0.2633    0.5996 C   0  0  0  0  0  0  0  0  0  0  0  0
    1.2350    0.5735    1.1270 N   0  0  0  0  0  0  0  0  0  0  0  0
    2.0125    1.5558    0.4859 C   0  0  0  0  0  0  0  0  0  0  0  0
    3.3802    1.7550    1.0743 C   0  0  0  0  0  0  0  0  0  0  0  0
    4.0639    0.5382    1.4100 N   0  0  0  0  0  0  0  0  0  0  0  0
    3.3104   -0.6779    1.5613 C   0  0  0  0  0  0  0  0  0  0  0  0
    1.8729   -0.3938    1.9320 C   0  0  0  0  0  0  0  0  0  0  0  0
    5.4711    0.5793    1.6357 C   0  0  0  0  0  0  0  0  0  0  0  0
    5.8241    0.7394    2.9711 N   0  0  0  0  0  0  0  0  0  0  0  0
    7.1014    0.8529    3.3078 C   0  0  0  0  0  0  0  0  0  0  0  0
    8.0944    0.8210    2.4109 N   0  0  0  0  0  0  0  0  0  0  0  0
    7.7822    0.6679    1.1307 C   0  0  0  0  0  0  0  0  0  0  0  0
    8.7860    0.6261    0.1302 N   0  0  0  0  0  0  0  0  0  0  0  0
    6.4443    0.5393    0.6961 C   0  0  0  0  0  0  0  0  0  0  0  0
    6.1946    0.3434   -0.7139 C   0  0  0  0  0  0  0  0  0  0  0  0
    4.9397    0.1577   -1.2886 N   0  0  0  0  0  0  0  0  0  0  0  0
    7.1731    0.3282   -1.5373 O   0  0  0  0  0  0  0  0  0  0  0  0
    0.9717   -0.7582   -1.4689 C   0  0  0  0  0  0  0  0  0  0  0  0
    0.4792   -1.3343   -2.5800 N   0  0  0  0  0  0  0  0  0  0  0  0
    1.0934   -1.8408   -3.6433 N   0  0  0  0  0  0  0  0  0  0  0  0
    0.4429   -2.3575   -4.6940 C   0  0  0  0  0  0  0  0  0  0  0  0
   -0.8947   -2.3785   -4.7052 N   0  0  0  0  0  0  0  0  0  0  0  0
   -1.5589   -1.8681   -3.6309 C   0  0  0  0  0  0  0  0  0  0  0  0
   -2.9771   -1.8199   -3.6918 N   0  0  0  0  0  0  0  0  0  0  0  0
   -0.8902   -1.3420   -2.5495 C   0  0  0  0  0  0  0  0  0  0  0  0
   -7.3308    3.3226    1.5340 H   0  0  0  0  0  0  0  0  0  0  0  0
   -6.1185    4.0821    2.6991 H   0  0  0  0  0  0  0  0  0  0  0  0
   -6.9516    2.4930    3.0677 H   0  0  0  0  0  0  0  0  0  0  0  0
   -7.7491    1.0151    1.8266 H   0  0  0  0  0  0  0  0  0  0  0  0
   -8.7360   -1.2664    2.0489 H   0  0  0  0  0  0  0  0  0  0  0  0
   -8.2525   -2.4763    0.7420 H   0  0  0  0  0  0  0  0  0  0  0  0
   -9.1577   -0.9702    0.3438 H   0  0  0  0  0  0  0  0  0  0  0  0
   -6.2483   -2.3350   -0.2391 H   0  0  0  0  0  0  0  0  0  0  0  0
   -3.7187   -2.2688   -1.1410 H   0  0  0  0  0  0  0  0  0  0  0  0
   -0.6365   -0.3358    1.2987 H   0  0  0  0  0  0  0  0  0  0  0  0
   -0.5918    1.2617    0.5417 H   0  0  0  0  0  0  0  0  0  0  0  0
    2.1111    1.5284   -0.5958 H   0  0  0  0  0  0  0  0  0  0  0  0
    1.4781    2.5516    0.6922 H   0  0  0  0  0  0  0  0  0  0  0  0
    4.0005    2.3508    0.3877 H   0  0  0  0  0  0  0  0  0  0  0  0
    3.2947    2.3082    2.0692 H   0  0  0  0  0  0  0  0  0  0  0  0
    3.7171   -1.2587    2.4458 H   0  0  0  0  0  0  0  0  0  0  0  0
    3.3510   -1.3750    0.7186 H   0  0  0  0  0  0  0  0  0  0  0  0
    1.8079   -0.1120    2.9928 H   0  0  0  0  0  0  0  0  0  0  0  0
    1.3328   -1.3741    1.8393 H   0  0  0  0  0  0  0  0  0  0  0  0
    7.3913    0.9793    4.3553 H   0  0  0  0  0  0  0  0  0  0  0  0
    9.2056   -0.2750   -0.1819 H   0  0  0  0  0  0  0  0  0  0  0  0
    9.1468    1.4912   -0.3353 H   0  0  0  0  0  0  0  0  0  0  0  0
    4.4026   -0.7289   -1.3406 H   0  0  0  0  0  0  0  0  0  0  0  0
    4.4616    0.9816   -1.7330 H   0  0  0  0  0  0  0  0  0  0  0  0
    2.0051   -0.6555   -1.2805 H   0  0  0  0  0  0  0  0  0  0  0  0
    0.9801   -2.7689   -5.5558 H   0  0  0  0  0  0  0  0  0  0  0  0
   -3.4489   -0.9310   -3.9026 H   0  0  0  0  0  0  0  0  0  0  0  0
   -3.5427   -2.6781   -3.5246 H   0  0  0  0  0  0  0  0  0  0  0  0
  1  2  1  0
  2  3  1  0
  3  4  2  0
  4  5  1  0
  5  6  1  0
  5  7  2  0
  7  8  1  0
  8  9  1  0
  9 10  2  0
 10 11  1  0
 11 12  1  0
 10 13  1  0
 13 14  1  0
 14 15  1  0
 15 16  1  0
 16 17  1  0
 17 18  1  0
 18 19  1  0
 19 20  1  0
 20 21  1  0
 19 22  1  0
 22 23  2  0
 23 24  1  0
 24 25  2  0
 25 26  1  0
 26 27  1  0
 26 28  2  0
 28 29  1  0
 29 30  1  0
 29 31  2  0
 14 32  2  0
 32 33  1  0
 33 34  1  0
 34 35  2  0
 35 36  1  0
 36 37  2  0
 37 38  1  0
 37 39  1  0
 12  3  1  0
 39 13  2  0
 12  8  2  0
 21 16  1  0
 28 22  1  0
 39 33  1  0
  1 40  1  0
  1 41  1  0
  1 42  1  0
  4 43  1  0
  6 44  1  0
  6 45  1  0
  6 46  1  0
  7 47  1  0
  9 48  1  0
 15 49  1  0
 15 50  1  0
 17 51  1  0
 17 52  1  0
 18 53  1  0
 18 54  1  0
 20 55  1  0
 20 56  1  0
 21 57  1  0
 21 58  1  0
 24 59  1  0
 27 60  1  0
 27 61  1  0
 30 62  1  0
 30 63  1  0
 32 64  1  0
 35 65  1  0
 38 66  1  0
 38 67  1  0
M  END
$$$$
[H]OC(=O)[C@@]([H])(N([H])[C@]([H])(C(=O)N([H])[C@]([H])(C(=O)N([H])C([H])([H])c1c([H])c([H])c(F)c([H])c1[H])C([H])([H])c1c([H])n([H])c2c([H])c([H])c([H])c([H])c12)C([H])(C([H])([H])[H])C([H])([H])[H])C([H])([H])C([H])(C([H])([H])[H])C([H])([H])[H]
     RDKit          3D

 75 77  0  0  0  0  0  0  0  0999 V2000
    6.0887   -1.8776   -1.1288 C   0  0  0  0  0  0  0  0  0  0  0  0
    4.7910   -2.1786   -0.3931 C   0  0  0  0  0  0  0  0  0  0  0  0
    4.5671   -3.6726   -0.5768 C   0  0  0  0  0  0  0  0  0  0  0  0
    4.9051   -1.8006    1.0483 C   0  0  0  0  0  0  0  0  0  0  0  0
    3.7182   -2.0230    1.8947 C   0  0  2  0  0  0  0  0  0  0  0  0
    2.5619   -1.3505    1.6087 N   0  0  0  0  0  0  0  0  0  0  0  0
    2.2673   -0.0003    1.7201 C   0  0  1  0  0  0  0  0  0  0  0  0
    2.9121    1.0470    0.8995 C   0  0  0  0  0  0  0  0  0  0  0  0
    2.6780    1.0064   -0.5709 C   0  0  0  0  0  0  0  0  0  0  0  0
    2.6267    2.4236    1.5284 C   0  0  0  0  0  0  0  0  0  0  0  0
    0.7486    0.0846    1.5492 C   0  0  0  0  0  0  0  0  0  0  0  0
    0.0660   -0.8833    2.0756 O   0  0  0  0  0  0  0  0  0  0  0  0
    0.0230    1.0553    0.9059 N   0  0  0  0  0  0  0  0  0  0  0  0
   -1.4748    1.0006    0.8193 C   0  0  1  0  0  0  0  0  0  0  0  0
   -1.9821    2.2019    1.5114 C   0  0  0  0  0  0  0  0  0  0  0  0
   -3.4175    2.4498    1.5702 C   0  0  0  0  0  0  0  0  0  0  0  0
   -4.2662    1.9951    2.5875 C   0  0  0  0  0  0  0  0  0  0  0  0
   -5.5251    2.3609    2.3200 N   0  0  0  0  0  0  0  0  0  0  0  0
   -5.5647    3.0450    1.1648 C   0  0  0  0  0  0  0  0  0  0  0  0
   -6.6045    3.6448    0.4686 C   0  0  0  0  0  0  0  0  0  0  0  0
   -6.3754    4.3188   -0.7095 C   0  0  0  0  0  0  0  0  0  0  0  0
   -5.0779    4.3879   -1.1913 C   0  0  0  0  0  0  0  0  0  0  0  0
   -4.0557    3.7880   -0.4914 C   0  0  0  0  0  0  0  0  0  0  0  0
   -4.2506    3.1036    0.6925 C   0  0  0  0  0  0  0  0  0  0  0  0
   -1.8455    0.7198   -0.5458 C   0  0  0  0  0  0  0  0  0  0  0  0
   -0.9248    0.8237   -1.4417 O   0  0  0  0  0  0  0  0  0  0  0  0
   -3.1172    0.3266   -1.0406 N   0  0  0  0  0  0  0  0  0  0  0  0
   -3.3778    0.0587   -2.4301 C   0  0  0  0  0  0  0  0  0  0  0  0
   -2.8429   -1.2910   -2.8144 C   0  0  0  0  0  0  0  0  0  0  0  0
   -2.8205   -1.7209   -4.1194 C   0  0  0  0  0  0  0  0  0  0  0  0
   -2.3359   -2.9667   -4.4941 C   0  0  0  0  0  0  0  0  0  0  0  0
   -1.8532   -3.8220   -3.5323 C   0  0  0  0  0  0  0  0  0  0  0  0
   -1.3696   -5.0559   -3.8730 F   0  0  0  0  0  0  0  0  0  0  0  0
   -1.8744   -3.3932   -2.2236 C   0  0  0  0  0  0  0  0  0  0  0  0
   -2.3570   -2.1521   -1.8493 C   0  0  0  0  0  0  0  0  0  0  0  0
    4.1333   -1.9458    3.3597 C   0  0  0  0  0  0  0  0  0  0  0  0
    5.2765   -2.5564    3.8150 O   0  0  0  0  0  0  0  0  0  0  0  0
    3.4246   -1.3190    4.1589 O   0  0  0  0  0  0  0  0  0  0  0  0
    6.4052   -0.8392   -1.0438 H   0  0  0  0  0  0  0  0  0  0  0  0
    5.9681   -2.1157   -2.2110 H   0  0  0  0  0  0  0  0  0  0  0  0
    6.8536   -2.5824   -0.7397 H   0  0  0  0  0  0  0  0  0  0  0  0
    3.9765   -1.6811   -0.8823 H   0  0  0  0  0  0  0  0  0  0  0  0
    4.5852   -3.8300   -1.6957 H   0  0  0  0  0  0  0  0  0  0  0  0
    3.5446   -3.9144   -0.2630 H   0  0  0  0  0  0  0  0  0  0  0  0
    5.3587   -4.2931   -0.1616 H   0  0  0  0  0  0  0  0  0  0  0  0
    5.3627   -0.8158    1.1916 H   0  0  0  0  0  0  0  0  0  0  0  0
    5.7237   -2.5064    1.4808 H   0  0  0  0  0  0  0  0  0  0  0  0
    3.4298   -3.1645    1.8265 H   0  0  0  0  0  0  0  0  0  0  0  0
    1.8072   -1.9160    1.1240 H   0  0  0  0  0  0  0  0  0  0  0  0
    2.3642    0.3789    2.8032 H   0  0  0  0  0  0  0  0  0  0  0  0
    4.0452    0.9879    1.0046 H   0  0  0  0  0  0  0  0  0  0  0  0
    2.4075    2.0234   -0.9283 H   0  0  0  0  0  0  0  0  0  0  0  0
    3.5594    0.6855   -1.1595 H   0  0  0  0  0  0  0  0  0  0  0  0
    1.8687    0.2755   -0.8317 H   0  0  0  0  0  0  0  0  0  0  0  0
    1.8114    2.3682    2.2722 H   0  0  0  0  0  0  0  0  0  0  0  0
    3.5088    2.8018    2.1029 H   0  0  0  0  0  0  0  0  0  0  0  0
    2.3992    3.1352    0.7301 H   0  0  0  0  0  0  0  0  0  0  0  0
    0.4041    1.8760    0.4285 H   0  0  0  0  0  0  0  0  0  0  0  0
   -1.7442    0.0901    1.4361 H   0  0  0  0  0  0  0  0  0  0  0  0
   -1.5389    2.1921    2.5687 H   0  0  0  0  0  0  0  0  0  0  0  0
   -1.4368    3.1008    1.0596 H   0  0  0  0  0  0  0  0  0  0  0  0
   -3.9202    1.4345    3.4456 H   0  0  0  0  0  0  0  0  0  0  0  0
   -6.3400    2.1400    2.9270 H   0  0  0  0  0  0  0  0  0  0  0  0
   -7.6261    3.6048    0.8240 H   0  0  0  0  0  0  0  0  0  0  0  0
   -7.1859    4.7944   -1.2661 H   0  0  0  0  0  0  0  0  0  0  0  0
   -4.8808    4.9174   -2.1225 H   0  0  0  0  0  0  0  0  0  0  0  0
   -3.0332    3.8375   -0.8617 H   0  0  0  0  0  0  0  0  0  0  0  0
   -3.9121    0.2138   -0.3820 H   0  0  0  0  0  0  0  0  0  0  0  0
   -2.9083    0.8018   -3.1129 H   0  0  0  0  0  0  0  0  0  0  0  0
   -4.4450    0.0420   -2.6777 H   0  0  0  0  0  0  0  0  0  0  0  0
   -3.1940   -1.0705   -4.9023 H   0  0  0  0  0  0  0  0  0  0  0  0
   -2.3171   -3.3064   -5.5178 H   0  0  0  0  0  0  0  0  0  0  0  0
   -1.4853   -4.0892   -1.4806 H   0  0  0  0  0  0  0  0  0  0  0  0
   -2.3472   -1.8763   -0.7919 H   0  0  0  0  0  0  0  0  0  0  0  0
    5.4565   -3.5334    3.5341 H   0  0  0  0  0  0  0  0  0  0  0  0
  1  2  1  0
  2  3  1  0
  2  4  1  0
  4  5  1  0
  5  6  1  0
  6  7  1  0
  7  8  1  0
  8  9  1  0
  8 10  1  0
  7 11  1  0
 11 12  2  0
 11 13  1  0
 13 14  1  0
 14 15  1  0
 15 16  1  0
 16 17  2  0
 17 18  1  0
 18 19  1  0
 19 20  2  0
 20 21  1  0
 21 22  2  0
 22 23  1  0
 23 24  2  0
 14 25  1  0
 25 26  2  0
 25 27  1  0
 27 28  1  0
 28 29  1  0
 29 30  2  0
 30 31  1  0
 31 32  2  0
 32 33  1  0
 32 34  1  0
 34 35  2  0
  5 36  1  0
 36 37  1  0
 36 38  2  0
 24 16  1  0
 35 29  1  0
 24 19  1  0
  1 39  1  0
  1 40  1  0
  1 41  1  0
  2 42  1  0
  3 43  1  0
  3 44  1  0
  3 45  1  0
  4 46  1  0
  4 47  1  0
  5 48  1  6
  6 49  1  0
  7 50  1  1
  8 51  1  0
  9 52  1  0
  9 53  1  0
  9 54  1  0
 10 55  1  0
 10 56  1  0
 10 57  1  0
 13 58  1  0
 14 59  1  1
 15 60  1  0
 15 61  1  0
 17 62  1  0
 18 63  1  0
 20 64  1  0
 21 65  1  0
 22 66  1  0
 23 67  1  0
 27 68  1  0
 28 69  1  0
 28 70  1  0
 30 71  1  0
 31 72  1  0
 34 73  1  0
 35 74  1  0
 37 75  1  0
M  END
$$$$
[H]OC(=O)[C@@]([H])(N([H])C(=O)[C@@]1([H])N(C(=O)[C@]([H])(N([H])C(=O)[C@@]2([H])N(C(=O)OC(C([H])([H])[H])(C([H])([H])[H])C([H])([H])[H])C([H])([H])C([H])([H])C2([H])[H])C([H])([H])c2c([H])c([H])c([H])c([H])c2[H])C([H])([H])C([H])([H])C1([H])[H])C([H])(C([H])([H])[H])C([H])([H])[H]
     RDKit          3D

 82 84  0  0  0  0  0  0  0  0999 V2000
   -3.6426    4.3800   -0.4977 C   0  0  0  0  0  0  0  0  0  0  0  0
   -3.5022    2.8805   -0.3475 C   0  0  0  0  0  0  0  0  0  0  0  0
   -4.8735    2.2957   -0.6404 C   0  0  0  0  0  0  0  0  0  0  0  0
   -2.5304    2.3005   -1.3837 C   0  0  2  0  0  0  0  0  0  0  0  0
   -2.4545    0.8787   -1.1551 N   0  0  0  0  0  0  0  0  0  0  0  0
   -2.9485   -0.1275   -1.9896 C   0  0  0  0  0  0  0  0  0  0  0  0
   -3.5378    0.1942   -3.0640 O   0  0  0  0  0  0  0  0  0  0  0  0
   -2.8454   -1.5905   -1.7249 C   0  0  2  0  0  0  0  0  0  0  0  0
   -4.1972   -2.1678   -1.3779 C   0  0  0  0  0  0  0  0  0  0  0  0
   -4.2608   -1.9100    0.1170 C   0  0  0  0  0  0  0  0  0  0  0  0
   -2.8331   -2.0007    0.5892 C   0  0  0  0  0  0  0  0  0  0  0  0
   -2.0319   -1.9058   -0.5814 N   0  0  0  0  0  0  0  0  0  0  0  0
   -0.6012   -2.0640   -0.6858 C   0  0  0  0  0  0  0  0  0  0  0  0
   -0.0525   -1.8967   -1.8272 O   0  0  0  0  0  0  0  0  0  0  0  0
    0.2923   -2.4059    0.4317 C   0  0  1  0  0  0  0  0  0  0  0  0
    0.7227   -3.8816    0.4045 C   0  0  0  0  0  0  0  0  0  0  0  0
   -0.3644   -4.8389    0.4934 C   0  0  0  0  0  0  0  0  0  0  0  0
   -0.8106   -5.3655    1.7127 C   0  0  0  0  0  0  0  0  0  0  0  0
   -1.8503   -6.2722    1.7459 C   0  0  0  0  0  0  0  0  0  0  0  0
   -2.4970   -6.7031    0.6026 C   0  0  0  0  0  0  0  0  0  0  0  0
   -2.0571   -6.1839   -0.5984 C   0  0  0  0  0  0  0  0  0  0  0  0
   -1.0184   -5.2772   -0.6368 C   0  0  0  0  0  0  0  0  0  0  0  0
    1.5753   -1.7185    0.1371 N   0  0  0  0  0  0  0  0  0  0  0  0
    2.1640   -0.7783    0.9790 C   0  0  0  0  0  0  0  0  0  0  0  0
    1.6082   -0.4650    2.0496 O   0  0  0  0  0  0  0  0  0  0  0  0
    3.4518   -0.1389    0.6202 C   0  0  2  0  0  0  0  0  0  0  0  0
    4.5606   -1.2009    0.5966 C   0  0  0  0  0  0  0  0  0  0  0  0
    5.0176   -1.2259    2.0332 C   0  0  0  0  0  0  0  0  0  0  0  0
    4.4220   -0.0097    2.7147 C   0  0  0  0  0  0  0  0  0  0  0  0
    3.9490    0.7646    1.6077 N   0  0  0  0  0  0  0  0  0  0  0  0
    3.9940    2.1631    1.5178 C   0  0  0  0  0  0  0  0  0  0  0  0
    4.4220    2.9098    2.4378 O   0  0  0  0  0  0  0  0  0  0  0  0
    3.5544    2.7817    0.3745 O   0  0  0  0  0  0  0  0  0  0  0  0
    3.5174    4.1452    0.1036 C   0  0  0  0  0  0  0  0  0  0  0  0
    2.9697    4.3266   -1.3191 C   0  0  0  0  0  0  0  0  0  0  0  0
    4.9164    4.7045    0.1729 C   0  0  0  0  0  0  0  0  0  0  0  0
    2.5729    4.8961    1.0218 C   0  0  0  0  0  0  0  0  0  0  0  0
   -1.2259    2.9704   -1.1641 C   0  0  0  0  0  0  0  0  0  0  0  0
   -1.0173    4.3297   -1.3169 O   0  0  0  0  0  0  0  0  0  0  0  0
   -0.2253    2.2729   -0.8170 O   0  0  0  0  0  0  0  0  0  0  0  0
   -3.4347    4.7609   -1.4976 H   0  0  0  0  0  0  0  0  0  0  0  0
   -4.6672    4.6933   -0.1562 H   0  0  0  0  0  0  0  0  0  0  0  0
   -2.9438    4.8776    0.2195 H   0  0  0  0  0  0  0  0  0  0  0  0
   -3.1517    2.6024    0.6542 H   0  0  0  0  0  0  0  0  0  0  0  0
   -4.8553    1.1983   -0.6793 H   0  0  0  0  0  0  0  0  0  0  0  0
   -5.1651    2.6358   -1.6681 H   0  0  0  0  0  0  0  0  0  0  0  0
   -5.6334    2.6120    0.0962 H   0  0  0  0  0  0  0  0  0  0  0  0
   -2.9162    2.5482   -2.3953 H   0  0  0  0  0  0  0  0  0  0  0  0
   -1.9687    0.5958   -0.2621 H   0  0  0  0  0  0  0  0  0  0  0  0
   -2.4589   -2.0896   -2.6522 H   0  0  0  0  0  0  0  0  0  0  0  0
   -5.0314   -1.6845   -1.9185 H   0  0  0  0  0  0  0  0  0  0  0  0
   -4.1726   -3.2558   -1.5691 H   0  0  0  0  0  0  0  0  0  0  0  0
   -4.8432   -2.7192    0.6129 H   0  0  0  0  0  0  0  0  0  0  0  0
   -4.7308   -0.9531    0.3479 H   0  0  0  0  0  0  0  0  0  0  0  0
   -2.6685   -1.0874    1.2405 H   0  0  0  0  0  0  0  0  0  0  0  0
   -2.6832   -2.9232    1.2009 H   0  0  0  0  0  0  0  0  0  0  0  0
   -0.0457   -2.0765    1.4098 H   0  0  0  0  0  0  0  0  0  0  0  0
    1.4504   -3.9873    1.2500 H   0  0  0  0  0  0  0  0  0  0  0  0
    1.3452   -3.9909   -0.5192 H   0  0  0  0  0  0  0  0  0  0  0  0
   -0.3228   -5.0458    2.6021 H   0  0  0  0  0  0  0  0  0  0  0  0
   -2.2158   -6.6949    2.6799 H   0  0  0  0  0  0  0  0  0  0  0  0
   -3.3088   -7.4150    0.6748 H   0  0  0  0  0  0  0  0  0  0  0  0
   -2.5483   -6.5117   -1.5024 H   0  0  0  0  0  0  0  0  0  0  0  0
   -0.6937   -4.8809   -1.5931 H   0  0  0  0  0  0  0  0  0  0  0  0
    2.0206   -1.9874   -0.7573 H   0  0  0  0  0  0  0  0  0  0  0  0
    3.3836    0.3398   -0.3933 H   0  0  0  0  0  0  0  0  0  0  0  0
    4.1455   -2.1898    0.3206 H   0  0  0  0  0  0  0  0  0  0  0  0
    5.3355   -0.9527   -0.1257 H   0  0  0  0  0  0  0  0  0  0  0  0
    6.1207   -1.1502    2.1207 H   0  0  0  0  0  0  0  0  0  0  0  0
    4.7139   -2.1584    2.5442 H   0  0  0  0  0  0  0  0  0  0  0  0
    5.2070    0.5417    3.2976 H   0  0  0  0  0  0  0  0  0  0  0  0
    3.6209   -0.3737    3.3732 H   0  0  0  0  0  0  0  0  0  0  0  0
    3.3498    5.2570   -1.7712 H   0  0  0  0  0  0  0  0  0  0  0  0
    3.3274    3.4228   -1.9005 H   0  0  0  0  0  0  0  0  0  0  0  0
    1.8711    4.2423   -1.2739 H   0  0  0  0  0  0  0  0  0  0  0  0
    5.6277    3.8668    0.3030 H   0  0  0  0  0  0  0  0  0  0  0  0
    5.1883    5.2799   -0.7349 H   0  0  0  0  0  0  0  0  0  0  0  0
    5.0187    5.3195    1.0960 H   0  0  0  0  0  0  0  0  0  0  0  0
    2.6332    5.9730    0.7580 H   0  0  0  0  0  0  0  0  0  0  0  0
    2.8921    4.7975    2.0703 H   0  0  0  0  0  0  0  0  0  0  0  0
    1.5309    4.5914    0.8784 H   0  0  0  0  0  0  0  0  0  0  0  0
   -0.6553    4.9061   -0.5508 H   0  0  0  0  0  0  0  0  0  0  0  0
  1  2  1  0
  2  3  1  0
  2  4  1  0
  4  5  1  0
  5  6  1  0
  6  7  2  0
  6  8  1  0
  8  9  1  0
  9 10  1  0
 10 11  1  0
 11 12  1  0
 12 13  1  0
 13 14  2  0
 13 15  1  0
 15 16  1  0
 16 17  1  0
 17 18  2  0
 18 19  1  0
 19 20  2  0
 20 21  1  0
 21 22  2  0
 15 23  1  0
 23 24  1  0
 24 25  2  0
 24 26  1  0
 26 27  1  0
 27 28  1  0
 28 29  1  0
 29 30  1  0
 30 31  1  0
 31 32  2  0
 31 33  1  0
 33 34  1  0
 34 35  1  0
 34 36  1  0
 34 37  1  0
  4 38  1  0
 38 39  1  0
 38 40  2  0
 12  8  1  0
 22 17  1  0
 30 26  1  0
  1 41  1  0
  1 42  1  0
  1 43  1  0
  2 44  1  0
  3 45  1  0
  3 46  1  0
  3 47  1  0
  4 48  1  6
  5 49  1  0
  8 50  1  6
  9 51  1  0
  9 52  1  0
 10 53  1  0
 10 54  1  0
 11 55  1  0
 11 56  1  0
 15 57  1  1
 16 58  1  0
 16 59  1  0
 18 60  1  0
 19 61  1  0
 20 62  1  0
 21 63  1  0
 22 64  1  0
 23 65  1  0
 26 66  1  6
 27 67  1  0
 27 68  1  0
 28 69  1  0
 28 70  1  0
 29 71  1  0
 29 72  1  0
 35 73  1  0
 35 74  1  0
 35 75  1  0
 36 76  1  0
 36 77  1  0
 36 78  1  0
 37 79  1  0
 37 80  1  0
 37 81  1  0
 39 82  1  0
M  END
$$$$
[H]OC(=O)C([H])([H])[C@@]([H])(C(=O)N([H])[C@]([H])(C(=O)N([H])[H])C([H])([H])c1c([H])c([H])c([H])c([H])c1[H])N([H])C(=O)[C@@]([H])(N([H])C(=O)[C@@]([H])(N([H])C(=O)[C@@]([H])(N([H])[H])C([H])([H])c1c([H])c([H])c(O[H])c([H])c1[H])C([H])([H])c1c([H])c([H])c([H])c([H])c1[H])C([H])([H])C([H])(C([H])([H])[H])C([H])([H])[H]
     RDKit          3D

 97 99  0  0  0  0  0  0  0  0999 V2000
    1.5477   -1.4317    2.9529 C   0  0  0  0  0  0  0  0  0  0  0  0
    0.1040   -1.2147    2.9634 C   0  0  0  0  0  0  0  0  0  0  0  0
   -0.5758   -2.5579    3.2996 C   0  0  0  0  0  0  0  0  0  0  0  0
   -0.5672   -0.5162    1.8827 C   0  0  0  0  0  0  0  0  0  0  0  0
   -0.5893   -0.9109    0.4804 C   0  0  2  0  0  0  0  0  0  0  0  0
    0.5050   -0.9579   -0.3956 N   0  0  0  0  0  0  0  0  0  0  0  0
    1.7079   -0.2326   -0.4655 C   0  0  0  0  0  0  0  0  0  0  0  0
    1.9605    0.6616    0.3533 O   0  0  0  0  0  0  0  0  0  0  0  0
    2.7335   -0.4921   -1.5125 C   0  0  2  0  0  0  0  0  0  0  0  0
    2.9656   -1.8860   -1.9310 C   0  0  0  0  0  0  0  0  0  0  0  0
    3.4163   -2.8401   -0.9051 C   0  0  0  0  0  0  0  0  0  0  0  0
    4.7653   -2.8883   -0.5553 C   0  0  0  0  0  0  0  0  0  0  0  0
    5.2308   -3.7784    0.3681 C   0  0  0  0  0  0  0  0  0  0  0  0
    4.3854   -4.6673    0.9925 C   0  0  0  0  0  0  0  0  0  0  0  0
    3.0311   -4.6465    0.6678 C   0  0  0  0  0  0  0  0  0  0  0  0
    2.6117   -3.7452   -0.2584 C   0  0  0  0  0  0  0  0  0  0  0  0
    4.0021    0.1498   -1.2298 N   0  0  0  0  0  0  0  0  0  0  0  0
    4.6316    1.1025   -2.0502 C   0  0  0  0  0  0  0  0  0  0  0  0
    4.0881    1.4659   -3.1335 O   0  0  0  0  0  0  0  0  0  0  0  0
    5.9222    1.6799   -1.6514 C   0  0  1  0  0  0  0  0  0  0  0  0
    6.4312    2.5094   -2.7443 N   0  0  0  0  0  0  0  0  0  0  0  0
    5.8337    2.4919   -0.3832 C   0  0  0  0  0  0  0  0  0  0  0  0
    7.1789    3.0265   -0.0563 C   0  0  0  0  0  0  0  0  0  0  0  0
    7.6105    4.2040   -0.6306 C   0  0  0  0  0  0  0  0  0  0  0  0
    8.8461    4.7543   -0.3198 C   0  0  0  0  0  0  0  0  0  0  0  0
    9.6938    4.1419    0.5759 C   0  0  0  0  0  0  0  0  0  0  0  0
   10.9434    4.6989    0.8939 O   0  0  0  0  0  0  0  0  0  0  0  0
    9.2651    2.9690    1.1482 C   0  0  0  0  0  0  0  0  0  0  0  0
    8.0372    2.4232    0.8411 C   0  0  0  0  0  0  0  0  0  0  0  0
   -1.8396   -0.3257   -0.1533 C   0  0  0  0  0  0  0  0  0  0  0  0
   -1.6270    0.6637   -0.8701 O   0  0  0  0  0  0  0  0  0  0  0  0
   -3.1130   -0.9008    0.0749 N   0  0  0  0  0  0  0  0  0  0  0  0
   -4.3019   -1.4140    0.2702 C   0  0  1  0  0  0  0  0  0  0  0  0
   -4.3778   -2.6854    1.1351 C   0  0  0  0  0  0  0  0  0  0  0  0
   -3.6474   -3.8281    0.6154 C   0  0  0  0  0  0  0  0  0  0  0  0
   -3.5952   -5.0468    1.3029 O   0  0  0  0  0  0  0  0  0  0  0  0
   -3.0304   -3.7788   -0.4763 O   0  0  0  0  0  0  0  0  0  0  0  0
   -5.3859   -0.5334    0.9331 C   0  0  0  0  0  0  0  0  0  0  0  0
   -5.0367    0.0575    1.9716 O   0  0  0  0  0  0  0  0  0  0  0  0
   -6.6335   -0.4498    0.3716 N   0  0  0  0  0  0  0  0  0  0  0  0
   -7.8715    0.1628    0.6448 C   0  0  1  0  0  0  0  0  0  0  0  0
   -7.8840    1.6537    0.6417 C   0  0  0  0  0  0  0  0  0  0  0  0
   -7.3936    2.3426   -0.5430 C   0  0  0  0  0  0  0  0  0  0  0  0
   -6.1068    2.9249   -0.4779 C   0  0  0  0  0  0  0  0  0  0  0  0
   -5.6431    3.6121   -1.5731 C   0  0  0  0  0  0  0  0  0  0  0  0
   -6.3606    3.7707   -2.7362 C   0  0  0  0  0  0  0  0  0  0  0  0
   -7.6523    3.1859   -2.8065 C   0  0  0  0  0  0  0  0  0  0  0  0
   -8.0927    2.5075   -1.7101 C   0  0  0  0  0  0  0  0  0  0  0  0
   -9.0017   -0.3812   -0.1294 C   0  0  0  0  0  0  0  0  0  0  0  0
  -10.2965    0.0953    0.0852 N   0  0  0  0  0  0  0  0  0  0  0  0
   -8.7597   -1.2680   -0.9728 O   0  0  0  0  0  0  0  0  0  0  0  0
    1.9248   -1.9742    2.0798 H   0  0  0  0  0  0  0  0  0  0  0  0
    2.0790   -0.4192    2.9755 H   0  0  0  0  0  0  0  0  0  0  0  0
    1.8340   -1.9789    3.9032 H   0  0  0  0  0  0  0  0  0  0  0  0
   -0.0875   -0.6384    3.9704 H   0  0  0  0  0  0  0  0  0  0  0  0
    0.0909   -3.0443    4.0290 H   0  0  0  0  0  0  0  0  0  0  0  0
   -1.5301   -2.3490    3.8239 H   0  0  0  0  0  0  0  0  0  0  0  0
   -0.6927   -3.1825    2.4168 H   0  0  0  0  0  0  0  0  0  0  0  0
   -1.6697   -0.3961    2.2458 H   0  0  0  0  0  0  0  0  0  0  0  0
   -0.2612    0.5908    1.9201 H   0  0  0  0  0  0  0  0  0  0  0  0
   -0.9227   -2.0682    0.4866 H   0  0  0  0  0  0  0  0  0  0  0  0
    0.4679   -1.6947   -1.2350 H   0  0  0  0  0  0  0  0  0  0  0  0
    2.3971    0.0574   -2.4864 H   0  0  0  0  0  0  0  0  0  0  0  0
    3.8007   -1.8782   -2.7091 H   0  0  0  0  0  0  0  0  0  0  0  0
    2.1120   -2.3095   -2.5361 H   0  0  0  0  0  0  0  0  0  0  0  0
    5.4588   -2.1933   -1.0418 H   0  0  0  0  0  0  0  0  0  0  0  0
    6.2966   -3.8253    0.6445 H   0  0  0  0  0  0  0  0  0  0  0  0
    4.7929   -5.3449    1.7050 H   0  0  0  0  0  0  0  0  0  0  0  0
    2.3786   -5.3670    1.1827 H   0  0  0  0  0  0  0  0  0  0  0  0
    1.5352   -3.7364   -0.5210 H   0  0  0  0  0  0  0  0  0  0  0  0
    4.4651   -0.1320   -0.3496 H   0  0  0  0  0  0  0  0  0  0  0  0
    6.6983    0.9021   -1.5041 H   0  0  0  0  0  0  0  0  0  0  0  0
    5.7791    3.2355   -3.0572 H   0  0  0  0  0  0  0  0  0  0  0  0
    6.8030    1.9196   -3.5015 H   0  0  0  0  0  0  0  0  0  0  0  0
    5.1552    3.3454   -0.5940 H   0  0  0  0  0  0  0  0  0  0  0  0
    5.4285    1.8416    0.4233 H   0  0  0  0  0  0  0  0  0  0  0  0
    6.9781    4.7179   -1.3506 H   0  0  0  0  0  0  0  0  0  0  0  0
    9.1680    5.6752   -0.7945 H   0  0  0  0  0  0  0  0  0  0  0  0
   11.7124    4.3877    0.3050 H   0  0  0  0  0  0  0  0  0  0  0  0
    9.8836    2.4517    1.8590 H   0  0  0  0  0  0  0  0  0  0  0  0
    7.6679    1.4873    1.2831 H   0  0  0  0  0  0  0  0  0  0  0  0
   -3.6421    0.0985   -0.6828 H   0  0  0  0  0  0  0  0  0  0  0  0
   -4.8557   -1.6864   -0.6966 H   0  0  0  0  0  0  0  0  0  0  0  0
   -5.4747   -2.9347    1.1367 H   0  0  0  0  0  0  0  0  0  0  0  0
   -4.1552   -2.4163    2.1931 H   0  0  0  0  0  0  0  0  0  0  0  0
   -3.4987   -5.0933    2.3283 H   0  0  0  0  0  0  0  0  0  0  0  0
   -6.6832   -1.0164   -0.5954 H   0  0  0  0  0  0  0  0  0  0  0  0
   -8.1546   -0.0529    1.7650 H   0  0  0  0  0  0  0  0  0  0  0  0
   -8.9514    1.9861    0.8497 H   0  0  0  0  0  0  0  0  0  0  0  0
   -7.3119    2.0585    1.5240 H   0  0  0  0  0  0  0  0  0  0  0  0
   -5.5243    2.7950    0.4269 H   0  0  0  0  0  0  0  0  0  0  0  0
   -4.6399    4.0574   -1.4723 H   0  0  0  0  0  0  0  0  0  0  0  0
   -6.0034    4.3134   -3.5774 H   0  0  0  0  0  0  0  0  0  0  0  0
   -8.2157    3.3078   -3.7380 H   0  0  0  0  0  0  0  0  0  0  0  0
   -9.0825    2.0503   -1.7580 H   0  0  0  0  0  0  0  0  0  0  0  0
  -10.6262    0.4197    1.0232 H   0  0  0  0  0  0  0  0  0  0  0  0
  -10.9900    0.1558   -0.6879 H   0  0  0  0  0  0  0  0  0  0  0  0
  1  2  1  0
  2  3  1  0
  2  4  1  0
  4  5  1  0
  5  6  1  0
  6  7  1  0
  7  8  2  0
  7  9  1  0
  9 10  1  0
 10 11  1  0
 11 12  2  0
 12 13  1  0
 13 14  2  0
 14 15  1  0
 15 16  2  0
  9 17  1  0
 17 18  1  0
 18 19  2  0
 18 20  1  0
 20 21  1  0
 20 22  1  0
 22 23  1  0
 23 24  2  0
 24 25  1  0
 25 26  2  0
 26 27  1  0
 26 28  1  0
 28 29  2  0
  5 30  1  0
 30 31  2  0
 30 32  1  0
 32 33  1  0
 33 34  1  0
 34 35  1  0
 35 36  1  0
 35 37  2  0
 33 38  1  0
 38 39  2  0
 38 40  1  0
 40 41  1  0
 41 42  1  0
 42 43  1  0
 43 44  2  0
 44 45  1  0
 45 46  2  0
 46 47  1  0
 47 48  2  0
 41 49  1  0
 49 50  1  0
 49 51  2  0
 16 11  1  0
 29 23  1  0
 48 43  1  0
  1 52  1  0
  1 53  1  0
  1 54  1  0
  2 55  1  0
  3 56  1  0
  3 57  1  0
  3 58  1  0
  4 59  1  0
  4 60  1  0
  5 61  1  1
  6 62  1  0
  9 63  1  6
 10 64  1  0
 10 65  1  0
 12 66  1  0
 13 67  1  0
 14 68  1  0
 15 69  1  0
 16 70  1  0
 17 71  1  0
 20 72  1  1
 21 73  1  0
 21 74  1  0
 22 75  1  0
 22 76  1  0
 24 77  1  0
 25 78  1  0
 27 79  1  0
 28 80  1  0
 29 81  1  0
 32 82  1  0
 33 83  1  6
 34 84  1  0
 34 85  1  0
 36 86  1  0
 40 87  1  0
 41 88  1  1
 42 89  1  0
 42 90  1  0
 44 91  1  0
 45 92  1  0
 46 93  1  0
 47 94  1  0
 48 95  1  0
 50 96  1  0
 50 97  1  0
M  END
$$$$
[H]c1nc(N([H])c2c([H])c([H])c(N3C([H])([H])C([H])([H])N(C([H])([H])[H])C([H])([H])C3([H])[H])c([H])c2[H])nc(N([H])c2nc([H])c(C3([H])C([H])([H])C3([H])[H])c([H])c2[H])c1C(=O)N([H])[H]
     RDKit          3D

 61 65  0  0  0  0  0  0  0  0999 V2000
    9.3193   -0.6254    0.1823 C   0  0  0  0  0  0  0  0  0  0  0  0
    8.2599   -1.0101    1.1004 N   0  0  0  0  0  0  0  0  0  0  0  0
    7.5216    0.1791    1.4331 C   0  0  0  0  0  0  0  0  0  0  0  0
    6.4648    0.3791    0.3646 C   0  0  0  0  0  0  0  0  0  0  0  0
    5.4842   -0.6541    0.5522 N   0  0  0  0  0  0  0  0  0  0  0  0
    5.9938   -1.9668    0.8648 C   0  0  0  0  0  0  0  0  0  0  0  0
    7.4687   -2.0529    0.5408 C   0  0  0  0  0  0  0  0  0  0  0  0
    4.0873   -0.4563    0.4467 C   0  0  0  0  0  0  0  0  0  0  0  0
    3.5174    0.7412    0.0985 C   0  0  0  0  0  0  0  0  0  0  0  0
    2.1238    0.8817    0.0111 C   0  0  0  0  0  0  0  0  0  0  0  0
    1.2506   -0.1451    0.2607 C   0  0  0  0  0  0  0  0  0  0  0  0
   -0.1441   -0.1103    0.1717 N   0  0  0  0  0  0  0  0  0  0  0  0
   -0.8843    0.7724   -0.6322 C   0  0  0  0  0  0  0  0  0  0  0  0
   -0.3159    1.6875   -1.4356 N   0  0  0  0  0  0  0  0  0  0  0  0
   -1.0054    2.5255   -2.1979 C   0  0  0  0  0  0  0  0  0  0  0  0
   -2.4234    2.4918   -2.1990 C   0  0  0  0  0  0  0  0  0  0  0  0
   -3.1227    3.4162   -3.0427 C   0  0  0  0  0  0  0  0  0  0  0  0
   -2.3210    4.3361   -3.8415 N   0  0  0  0  0  0  0  0  0  0  0  0
   -4.3336    3.5713   -3.2141 O   0  0  0  0  0  0  0  0  0  0  0  0
   -3.0167    1.5535   -1.3752 C   0  0  0  0  0  0  0  0  0  0  0  0
   -4.4244    1.4636   -1.3184 N   0  0  0  0  0  0  0  0  0  0  0  0
   -5.2401    0.5946   -0.5650 C   0  0  0  0  0  0  0  0  0  0  0  0
   -4.7574   -0.3550    0.2748 C   0  0  0  0  0  0  0  0  0  0  0  0
   -5.6626   -1.1771    0.9878 C   0  0  0  0  0  0  0  0  0  0  0  0
   -7.0178   -1.0427    0.8553 C   0  0  0  0  0  0  0  0  0  0  0  0
   -7.4531   -0.0654   -0.0084 C   0  0  0  0  0  0  0  0  0  0  0  0
   -6.6079    0.7057   -0.6772 N   0  0  0  0  0  0  0  0  0  0  0  0
   -7.9436   -1.9161    1.6139 C   0  0  0  0  0  0  0  0  0  0  0  0
   -9.1618   -1.2084    2.1532 C   0  0  0  0  0  0  0  0  0  0  0  0
   -9.2767   -2.2575    1.0629 C   0  0  0  0  0  0  0  0  0  0  0  0
   -2.2414    0.7369   -0.6301 N   0  0  0  0  0  0  0  0  0  0  0  0
    1.8574   -1.3733    0.6192 C   0  0  0  0  0  0  0  0  0  0  0  0
    3.1949   -1.4844    0.6971 C   0  0  0  0  0  0  0  0  0  0  0  0
    8.8568   -0.5507   -0.8361 H   0  0  0  0  0  0  0  0  0  0  0  0
   10.1789   -1.3254    0.2027 H   0  0  0  0  0  0  0  0  0  0  0  0
    9.6267    0.4062    0.4649 H   0  0  0  0  0  0  0  0  0  0  0  0
    6.9647   -0.0390    2.3850 H   0  0  0  0  0  0  0  0  0  0  0  0
    8.1550    1.0663    1.5626 H   0  0  0  0  0  0  0  0  0  0  0  0
    6.9751    0.2025   -0.6162 H   0  0  0  0  0  0  0  0  0  0  0  0
    6.0607    1.4054    0.3616 H   0  0  0  0  0  0  0  0  0  0  0  0
    5.8333   -2.2724    1.9047 H   0  0  0  0  0  0  0  0  0  0  0  0
    5.4974   -2.6883    0.1521 H   0  0  0  0  0  0  0  0  0  0  0  0
    7.8282   -3.0209    1.0001 H   0  0  0  0  0  0  0  0  0  0  0  0
    7.6030   -2.1910   -0.5544 H   0  0  0  0  0  0  0  0  0  0  0  0
    4.0981    1.5956   -0.1162 H   0  0  0  0  0  0  0  0  0  0  0  0
    1.7278    1.8563   -0.2463 H   0  0  0  0  0  0  0  0  0  0  0  0
   -0.7010   -0.7983    0.7521 H   0  0  0  0  0  0  0  0  0  0  0  0
   -0.5159    3.2650   -2.8467 H   0  0  0  0  0  0  0  0  0  0  0  0
   -1.6890    3.9680   -4.5730 H   0  0  0  0  0  0  0  0  0  0  0  0
   -2.3898    5.3488   -3.6707 H   0  0  0  0  0  0  0  0  0  0  0  0
   -5.0054    2.1372   -1.9193 H   0  0  0  0  0  0  0  0  0  0  0  0
   -3.7051   -0.5476    0.4542 H   0  0  0  0  0  0  0  0  0  0  0  0
   -5.2700   -1.9274    1.6514 H   0  0  0  0  0  0  0  0  0  0  0  0
   -8.5405    0.0226   -0.0970 H   0  0  0  0  0  0  0  0  0  0  0  0
   -7.4531   -2.6552    2.2705 H   0  0  0  0  0  0  0  0  0  0  0  0
   -9.3357   -0.1399    1.8675 H   0  0  0  0  0  0  0  0  0  0  0  0
   -9.5299   -1.4360    3.1672 H   0  0  0  0  0  0  0  0  0  0  0  0
   -9.5951   -1.9302    0.0603 H   0  0  0  0  0  0  0  0  0  0  0  0
   -9.7062   -3.2234    1.3820 H   0  0  0  0  0  0  0  0  0  0  0  0
    1.1860   -2.2180    0.8276 H   0  0  0  0  0  0  0  0  0  0  0  0
    3.6551   -2.4453    0.9777 H   0  0  0  0  0  0  0  0  0  0  0  0
  1  2  1  0
  2  3  1  0
  3  4  1  0
  4  5  1  0
  5  6  1  0
  6  7  1  0
  5  8  1  0
  8  9  2  0
  9 10  1  0
 10 11  2  0
 11 12  1  0
 12 13  1  0
 13 14  2  0
 14 15  1  0
 15 16  2  0
 16 17  1  0
 17 18  1  0
 17 19  2  0
 16 20  1  0
 20 21  1  0
 21 22  1  0
 22 23  2  0
 23 24  1  0
 24 25  2  0
 25 26  1  0
 26 27  2  0
 25 28  1  0
 28 29  1  0
 29 30  1  0
 20 31  2  0
 11 32  1  0
 32 33  2  0
  7  2  1  0
 33  8  1  0
 31 13  1  0
 27 22  1  0
 30 28  1  0
  1 34  1  0
  1 35  1  0
  1 36  1  0
  3 37  1  0
  3 38  1  0
  4 39  1  0
  4 40  1  0
  6 41  1  0
  6 42  1  0
  7 43  1  0
  7 44  1  0
  9 45  1  0
 10 46  1  0
 12 47  1  0
 15 48  1  0
 18 49  1  0
 18 50  1  0
 21 51  1  0
 23 52  1  0
 24 53  1  0
 26 54  1  0
 28 55  1  0
 29 56  1  0
 29 57  1  0
 30 58  1  0
 30 59  1  0
 32 60  1  0
 33 61  1  0
M  END
$$$$
[H]c1c([H])c([H])c(-c2c([H])c([H])c(C([H])([H])n3c(C([H])([H])[H])nc4c([H])c([H])c([H])c([H])c43)c([H])c2[H])c([H])c1[H]
     RDKit          3D

 41 44  0  0  0  0  0  0  0  0999 V2000
   -2.4857    1.9476   -2.5327 C   0  0  0  0  0  0  0  0  0  0  0  0
   -3.0019    1.1584   -1.3906 C   0  0  0  0  0  0  0  0  0  0  0  0
   -4.0098    1.6214   -0.5907 N   0  0  0  0  0  0  0  0  0  0  0  0
   -4.2689    0.6717    0.3542 C   0  0  0  0  0  0  0  0  0  0  0  0
   -5.1775    0.6202    1.3884 C   0  0  0  0  0  0  0  0  0  0  0  0
   -5.1904   -0.5196    2.1783 C   0  0  0  0  0  0  0  0  0  0  0  0
   -4.3270   -1.5715    1.9445 C   0  0  0  0  0  0  0  0  0  0  0  0
   -3.4396   -1.4646    0.8967 C   0  0  0  0  0  0  0  0  0  0  0  0
   -3.3845   -0.3531    0.0805 C   0  0  0  0  0  0  0  0  0  0  0  0
   -2.6093   -0.0507   -0.9890 N   0  0  0  0  0  0  0  0  0  0  0  0
   -1.6027   -0.8771   -1.5461 C   0  0  0  0  0  0  0  0  0  0  0  0
   -0.2309   -0.6910   -1.0203 C   0  0  0  0  0  0  0  0  0  0  0  0
    0.6012    0.1654   -1.7126 C   0  0  0  0  0  0  0  0  0  0  0  0
    1.8925    0.4071   -1.2999 C   0  0  0  0  0  0  0  0  0  0  0  0
    2.3710   -0.2187   -0.1694 C   0  0  0  0  0  0  0  0  0  0  0  0
    1.5397   -1.0736    0.5200 C   0  0  0  0  0  0  0  0  0  0  0  0
    0.2413   -1.3271    0.1198 C   0  0  0  0  0  0  0  0  0  0  0  0
    3.7345    0.0570    0.2410 C   0  0  0  0  0  0  0  0  0  0  0  0
    4.3580    1.2679    0.0369 C   0  0  0  0  0  0  0  0  0  0  0  0
    5.6750    1.4817    0.4516 C   0  0  0  0  0  0  0  0  0  0  0  0
    6.3830    0.4678    1.0817 C   0  0  0  0  0  0  0  0  0  0  0  0
    5.7709   -0.7271    1.2845 C   0  0  0  0  0  0  0  0  0  0  0  0
    4.4704   -0.9210    0.8688 C   0  0  0  0  0  0  0  0  0  0  0  0
   -1.9233    1.2973   -3.2414 H   0  0  0  0  0  0  0  0  0  0  0  0
   -1.7751    2.7352   -2.1956 H   0  0  0  0  0  0  0  0  0  0  0  0
   -3.3201    2.4739   -3.0489 H   0  0  0  0  0  0  0  0  0  0  0  0
   -5.8434    1.4553    1.5538 H   0  0  0  0  0  0  0  0  0  0  0  0
   -5.9151   -0.5450    2.9927 H   0  0  0  0  0  0  0  0  0  0  0  0
   -4.3327   -2.4588    2.5543 H   0  0  0  0  0  0  0  0  0  0  0  0
   -2.7574   -2.2663    0.6854 H   0  0  0  0  0  0  0  0  0  0  0  0
   -1.8161   -1.9797   -1.3948 H   0  0  0  0  0  0  0  0  0  0  0  0
   -1.5297   -0.7884   -2.6683 H   0  0  0  0  0  0  0  0  0  0  0  0
    0.3085    0.6925   -2.6231 H   0  0  0  0  0  0  0  0  0  0  0  0
    2.5268    1.0884   -1.8659 H   0  0  0  0  0  0  0  0  0  0  0  0
    1.9456   -1.5487    1.4027 H   0  0  0  0  0  0  0  0  0  0  0  0
   -0.4022   -2.0036    0.6625 H   0  0  0  0  0  0  0  0  0  0  0  0
    3.7808    2.0415   -0.4585 H   0  0  0  0  0  0  0  0  0  0  0  0
    6.0829    2.4458    0.2556 H   0  0  0  0  0  0  0  0  0  0  0  0
    7.3903    0.7089    1.3717 H   0  0  0  0  0  0  0  0  0  0  0  0
    6.2999   -1.5323    1.7734 H   0  0  0  0  0  0  0  0  0  0  0  0
    3.9707   -1.8871    1.0302 H   0  0  0  0  0  0  0  0  0  0  0  0
  1  2  1  0
  2  3  2  0
  3  4  1  0
  4  5  2  0
  5  6  1  0
  6  7  2  0
  7  8  1  0
  8  9  2  0
  9 10  1  0
 10 11  1  0
 11 12  1  0
 12 13  2  0
 13 14  1  0
 14 15  2  0
 15 16  1  0
 16 17  2  0
 15 18  1  0
 18 19  2  0
 19 20  1  0
 20 21  2  0
 21 22  1  0
 22 23  2  0
 10  2  1  0
 17 12  1  0
 23 18  1  0
  9  4  1  0
  1 24  1  0
  1 25  1  0
  1 26  1  0
  5 27  1  0
  6 28  1  0
  7 29  1  0
  8 30  1  0
 11 31  1  0
 11 32  1  0
 13 33  1  0
 14 34  1  0
 16 35  1  0
 17 36  1  0
 19 37  1  0
 20 38  1  0
 21 39  1  0
 22 40  1  0
 23 41  1  0
M  END
$$$$
[H]N=C(N([H])[H])N([H])C([H])([H])C([H])([H])C([H])([H])[C@@]([H])(C([H])=O)N([H])C(=O)[C@@]([H])(N([H])C(=O)[C@@]([H])(N([H])C(=O)[C@@]([H])(N([H])[H])C([H])([H])c1c([H])c([H])c([H])c([H])c1[H])C([H])([H])C([H])(C([H])([H])[H])C([H])([H])[H])C([H])([H])C([H])([H])C([H])([H])N([H])C(=N[H])N([H])[H]
     RDKit          3D

 87 87  0  0  0  0  0  0  0  0999 V2000
   -2.1639    2.1005   -3.5763 C   0  0  0  0  0  0  0  0  0  0  0  0
   -1.6752    1.0884   -2.5124 C   0  0  0  0  0  0  0  0  0  0  0  0
   -0.9789   -0.0352   -3.2214 C   0  0  0  0  0  0  0  0  0  0  0  0
   -2.8286    0.6864   -1.6964 C   0  0  0  0  0  0  0  0  0  0  0  0
   -2.5725   -0.3626   -0.6084 C   0  0  2  0  0  0  0  0  0  0  0  0
   -3.8616   -0.6083    0.0436 N   0  0  0  0  0  0  0  0  0  0  0  0
   -5.0281   -1.0683   -0.5039 C   0  0  0  0  0  0  0  0  0  0  0  0
   -5.2346   -1.4143   -1.6691 O   0  0  0  0  0  0  0  0  0  0  0  0
   -6.2797   -1.1768    0.4165 C   0  0  1  0  0  0  0  0  0  0  0  0
   -5.9679   -1.9741    1.5571 N   0  0  0  0  0  0  0  0  0  0  0  0
   -6.3935    0.2918    0.7975 C   0  0  0  0  0  0  0  0  0  0  0  0
   -7.4395    0.7302    1.6440 C   0  0  0  0  0  0  0  0  0  0  0  0
   -7.3404    0.6780    3.0172 C   0  0  0  0  0  0  0  0  0  0  0  0
   -8.2923    1.2130    3.8279 C   0  0  0  0  0  0  0  0  0  0  0  0
   -9.4420    1.8493    3.3253 C   0  0  0  0  0  0  0  0  0  0  0  0
   -9.5406    1.8879    1.9178 C   0  0  0  0  0  0  0  0  0  0  0  0
   -8.6027    1.3680    1.1309 C   0  0  0  0  0  0  0  0  0  0  0  0
   -1.7105    0.1829    0.5045 C   0  0  0  0  0  0  0  0  0  0  0  0
   -2.3566    1.0294    1.2603 O   0  0  0  0  0  0  0  0  0  0  0  0
   -0.4344   -0.2305    0.6272 N   0  0  0  0  0  0  0  0  0  0  0  0
    0.8916   -0.6584    0.7570 C   0  0  1  0  0  0  0  0  0  0  0  0
    1.1790   -1.8858   -0.0532 C   0  0  0  0  0  0  0  0  0  0  0  0
    2.5772   -2.3725    0.0762 C   0  0  0  0  0  0  0  0  0  0  0  0
    2.8341   -3.5824   -0.7975 C   0  0  0  0  0  0  0  0  0  0  0  0
    2.0554   -4.7025   -0.4394 N   0  0  0  0  0  0  0  0  0  0  0  0
    2.3140   -5.4513    0.7154 C   0  0  0  0  0  0  0  0  0  0  0  0
    3.6533   -5.9476    0.9034 N   0  0  0  0  0  0  0  0  0  0  0  0
    1.3751   -5.7180    1.5556 N   0  0  0  0  0  0  0  0  0  0  0  0
    1.7817    0.4908    0.2693 C   0  0  0  0  0  0  0  0  0  0  0  0
    1.4437    1.1921   -0.6867 O   0  0  0  0  0  0  0  0  0  0  0  0
    2.9920    0.6501    1.0259 N   0  0  0  0  0  0  0  0  0  0  0  0
    4.1305    0.8860    1.6529 C   0  0  1  0  0  0  0  0  0  0  0  0
    5.4482    0.8535    1.0102 C   0  0  0  0  0  0  0  0  0  0  0  0
    5.6055    1.8553   -0.0796 C   0  0  0  0  0  0  0  0  0  0  0  0
    7.0858    1.9036   -0.5128 C   0  0  0  0  0  0  0  0  0  0  0  0
    7.2008    2.8415   -1.5801 N   0  0  0  0  0  0  0  0  0  0  0  0
    8.5380    3.1515   -2.0975 C   0  0  0  0  0  0  0  0  0  0  0  0
    8.7379    4.4248   -2.6820 N   0  0  0  0  0  0  0  0  0  0  0  0
    9.4321    2.2691   -1.9558 N   0  0  0  0  0  0  0  0  0  0  0  0
    3.9375    2.3481    2.2751 C   0  0  0  0  0  0  0  0  0  0  0  0
    2.9238    2.7137    2.6806 O   0  0  0  0  0  0  0  0  0  0  0  0
   -1.7199    1.8475   -4.5622 H   0  0  0  0  0  0  0  0  0  0  0  0
   -1.9529    3.1312   -3.2736 H   0  0  0  0  0  0  0  0  0  0  0  0
   -3.2673    1.9727   -3.6780 H   0  0  0  0  0  0  0  0  0  0  0  0
   -0.9105    1.6827   -1.9389 H   0  0  0  0  0  0  0  0  0  0  0  0
   -0.0217    0.2571   -3.6771 H   0  0  0  0  0  0  0  0  0  0  0  0
   -1.6208   -0.3653   -4.1119 H   0  0  0  0  0  0  0  0  0  0  0  0
   -0.8660   -0.9377   -2.6224 H   0  0  0  0  0  0  0  0  0  0  0  0
   -3.7353    0.4371   -2.2918 H   0  0  0  0  0  0  0  0  0  0  0  0
   -3.1536    1.6190   -1.1197 H   0  0  0  0  0  0  0  0  0  0  0  0
   -2.1616   -1.2062   -1.0990 H   0  0  0  0  0  0  0  0  0  0  0  0
   -3.8390   -0.4369    1.0949 H   0  0  0  0  0  0  0  0  0  0  0  0
   -7.1574   -1.4987   -0.1059 H   0  0  0  0  0  0  0  0  0  0  0  0
   -4.9417   -2.0030    1.7741 H   0  0  0  0  0  0  0  0  0  0  0  0
   -6.3465   -2.9507    1.4276 H   0  0  0  0  0  0  0  0  0  0  0  0
   -5.3778    0.5644    1.2850 H   0  0  0  0  0  0  0  0  0  0  0  0
   -6.3989    0.9003   -0.1908 H   0  0  0  0  0  0  0  0  0  0  0  0
   -6.4708    0.2072    3.4124 H   0  0  0  0  0  0  0  0  0  0  0  0
   -8.1573    1.1380    4.9264 H   0  0  0  0  0  0  0  0  0  0  0  0
  -10.1570    2.2484    3.9707 H   0  0  0  0  0  0  0  0  0  0  0  0
  -10.4478    2.3957    1.5218 H   0  0  0  0  0  0  0  0  0  0  0  0
   -8.6863    1.4055    0.0198 H   0  0  0  0  0  0  0  0  0  0  0  0
   -0.3193    0.4583    1.8104 H   0  0  0  0  0  0  0  0  0  0  0  0
    1.2591   -0.8561    1.8088 H   0  0  0  0  0  0  0  0  0  0  0  0
    0.4289   -2.7112    0.2482 H   0  0  0  0  0  0  0  0  0  0  0  0
    1.0036   -1.7318   -1.1630 H   0  0  0  0  0  0  0  0  0  0  0  0
    3.2531   -1.5335   -0.1973 H   0  0  0  0  0  0  0  0  0  0  0  0
    2.7567   -2.5738    1.1605 H   0  0  0  0  0  0  0  0  0  0  0  0
    3.9175   -3.8436   -0.7484 H   0  0  0  0  0  0  0  0  0  0  0  0
    2.6480   -3.2559   -1.8646 H   0  0  0  0  0  0  0  0  0  0  0  0
    1.2518   -4.9544   -1.0803 H   0  0  0  0  0  0  0  0  0  0  0  0
    4.4486   -5.3590    0.5406 H   0  0  0  0  0  0  0  0  0  0  0  0
    3.8381   -6.8520    1.3640 H   0  0  0  0  0  0  0  0  0  0  0  0
    1.6586   -6.2963    2.4160 H   0  0  0  0  0  0  0  0  0  0  0  0
    3.3640    1.5719    0.0262 H   0  0  0  0  0  0  0  0  0  0  0  0
    4.2702    0.3651    2.6847 H   0  0  0  0  0  0  0  0  0  0  0  0
    6.3056    0.8086    1.7444 H   0  0  0  0  0  0  0  0  0  0  0  0
    5.5202   -0.2064    0.5343 H   0  0  0  0  0  0  0  0  0  0  0  0
    5.0882    1.4610   -1.0174 H   0  0  0  0  0  0  0  0  0  0  0  0
    5.2742    2.8619    0.0921 H   0  0  0  0  0  0  0  0  0  0  0  0
    7.5227    0.9264   -0.6912 H   0  0  0  0  0  0  0  0  0  0  0  0
    7.6590    2.3822    0.3531 H   0  0  0  0  0  0  0  0  0  0  0  0
    6.4100    3.3586   -2.0503 H   0  0  0  0  0  0  0  0  0  0  0  0
    8.9583    4.5277   -3.6786 H   0  0  0  0  0  0  0  0  0  0  0  0
    8.6806    5.2645   -2.0708 H   0  0  0  0  0  0  0  0  0  0  0  0
    9.2880    1.3691   -1.5223 H   0  0  0  0  0  0  0  0  0  0  0  0
    4.9111    2.9129    2.2206 H   0  0  0  0  0  0  0  0  0  0  0  0
  1  2  1  0
  2  3  1  0
  2  4  1  0
  4  5  1  0
  5  6  1  0
  6  7  1  0
  7  8  2  0
  7  9  1  0
  9 10  1  0
  9 11  1  0
 11 12  1  0
 12 13  2  0
 13 14  1  0
 14 15  2  0
 15 16  1  0
 16 17  2  0
  5 18  1  0
 18 19  2  0
 18 20  1  0
 20 21  1  0
 21 22  1  0
 22 23  1  0
 23 24  1  0
 24 25  1  0
 25 26  1  0
 26 27  1  0
 26 28  2  3
 21 29  1  0
 29 30  2  0
 29 31  1  0
 31 32  1  0
 32 33  1  0
 33 34  1  0
 34 35  1  0
 35 36  1  0
 36 37  1  0
 37 38  1  0
 37 39  2  3
 32 40  1  0
 40 41  2  0
 17 12  1  0
  1 42  1  0
  1 43  1  0
  1 44  1  0
  2 45  1  0
  3 46  1  0
  3 47  1  0
  3 48  1  0
  4 49  1  0
  4 50  1  0
  5 51  1  6
  6 52  1  0
  9 53  1  6
 10 54  1  0
 10 55  1  0
 11 56  1  0
 11 57  1  0
 13 58  1  0
 14 59  1  0
 15 60  1  0
 16 61  1  0
 17 62  1  0
 20 63  1  0
 21 64  1  1
 22 65  1  0
 22 66  1  0
 23 67  1  0
 23 68  1  0
 24 69  1  0
 24 70  1  0
 25 71  1  0
 27 72  1  0
 27 73  1  0
 28 74  1  0
 31 75  1  0
 32 76  1  1
 33 77  1  0
 33 78  1  0
 34 79  1  0
 34 80  1  0
 35 81  1  0
 35 82  1  0
 36 83  1  0
 38 84  1  0
 38 85  1  0
 39 86  1  0
 40 87  1  0
M  END
$$$$
[H]c1c([H])c(Cl)c(Cl)c(N2C([H])([H])C([H])([H])N([C@]3([H])C([H])([H])C([H])([H])[C@@]([H])(N([H])S(=O)(=O)c4c([H])c([H])c(OC([H])([H])[H])c([H])c4[H])C([H])([H])C3([H])[H])C([H])([H])C2([H])[H])c1[H]
     RDKit          3D

 61 64  0  0  0  0  0  0  0  0999 V2000
    7.9395    1.0366    2.7541 C   0  0  0  0  0  0  0  0  0  0  0  0
    7.7908   -0.1352    1.9925 O   0  0  0  0  0  0  0  0  0  0  0  0
    6.9424   -0.1422    0.9155 C   0  0  0  0  0  0  0  0  0  0  0  0
    6.7759   -1.2806    0.1462 C   0  0  0  0  0  0  0  0  0  0  0  0
    5.9208   -1.2744   -0.9327 C   0  0  0  0  0  0  0  0  0  0  0  0
    5.1985   -0.1502   -1.2952 C   0  0  0  0  0  0  0  0  0  0  0  0
    5.3771    0.9722   -0.5189 C   0  0  0  0  0  0  0  0  0  0  0  0
    6.2336    0.9772    0.5676 C   0  0  0  0  0  0  0  0  0  0  0  0
    4.1201   -0.1240   -2.6639 S   0  0  0  0  0  0  0  0  0  0  0  0
    4.6732   -0.9234   -3.8180 O   0  0  0  0  0  0  0  0  0  0  0  0
    3.9887    1.2962   -3.1383 O   0  0  0  0  0  0  0  0  0  0  0  0
    2.5878   -0.7144   -2.1792 N   0  0  0  0  0  0  0  0  0  0  0  0
    1.9665    0.0756   -1.1609 C   0  0  1  0  0  0  0  0  0  0  0  0
    0.6431    0.6645   -1.6163 C   0  0  0  0  0  0  0  0  0  0  0  0
   -0.4644   -0.3570   -1.6311 C   0  0  0  0  0  0  0  0  0  0  0  0
   -0.7031   -1.0138   -0.3200 C   0  0  1  0  0  0  0  0  0  0  0  0
    0.3657   -0.6102    0.6698 C   0  0  0  0  0  0  0  0  0  0  0  0
    1.7433   -0.7533    0.0568 C   0  0  0  0  0  0  0  0  0  0  0  0
   -2.0258   -0.8333    0.2083 N   0  0  0  0  0  0  0  0  0  0  0  0
   -2.3958    0.5129    0.4953 C   0  0  0  0  0  0  0  0  0  0  0  0
   -3.6540    0.4417    1.3763 C   0  0  0  0  0  0  0  0  0  0  0  0
   -4.6633   -0.2880    0.6212 N   0  0  0  0  0  0  0  0  0  0  0  0
   -4.2834   -1.5942    0.1049 C   0  0  0  0  0  0  0  0  0  0  0  0
   -2.9963   -1.4101   -0.6908 C   0  0  0  0  0  0  0  0  0  0  0  0
   -5.9455    0.2888    0.4224 C   0  0  0  0  0  0  0  0  0  0  0  0
   -6.4073    0.5353   -0.8660 C   0  0  0  0  0  0  0  0  0  0  0  0
   -7.6534    1.0958   -1.0512 C   0  0  0  0  0  0  0  0  0  0  0  0
   -8.4771    1.4294   -0.0181 C   0  0  0  0  0  0  0  0  0  0  0  0
   -8.0343    1.1915    1.2675 C   0  0  0  0  0  0  0  0  0  0  0  0
   -9.1021    1.6254    2.5794 Cl  0  0  0  0  0  0  0  0  0  0  0  0
   -6.7852    0.6294    1.4603 C   0  0  0  0  0  0  0  0  0  0  0  0
   -6.2407    0.3346    3.1056 Cl  0  0  0  0  0  0  0  0  0  0  0  0
    8.5728    0.7748    3.6306 H   0  0  0  0  0  0  0  0  0  0  0  0
    6.9402    1.3882    3.0738 H   0  0  0  0  0  0  0  0  0  0  0  0
    8.3924    1.8037    2.1022 H   0  0  0  0  0  0  0  0  0  0  0  0
    7.3506   -2.1456    0.4501 H   0  0  0  0  0  0  0  0  0  0  0  0
    5.7917   -2.1565   -1.5288 H   0  0  0  0  0  0  0  0  0  0  0  0
    4.8202    1.8801   -0.7861 H   0  0  0  0  0  0  0  0  0  0  0  0
    6.3608    1.8624    1.1638 H   0  0  0  0  0  0  0  0  0  0  0  0
    2.6091   -1.7161   -1.8933 H   0  0  0  0  0  0  0  0  0  0  0  0
    2.6529    0.9270   -0.9042 H   0  0  0  0  0  0  0  0  0  0  0  0
    0.3801    1.5865   -1.0556 H   0  0  0  0  0  0  0  0  0  0  0  0
    0.7959    0.9830   -2.6707 H   0  0  0  0  0  0  0  0  0  0  0  0
   -1.3692    0.1581   -2.0073 H   0  0  0  0  0  0  0  0  0  0  0  0
   -0.1942   -1.1183   -2.3852 H   0  0  0  0  0  0  0  0  0  0  0  0
   -0.5860   -2.1061   -0.4713 H   0  0  0  0  0  0  0  0  0  0  0  0
    0.3645   -1.2565    1.5771 H   0  0  0  0  0  0  0  0  0  0  0  0
    0.2635    0.4224    1.0250 H   0  0  0  0  0  0  0  0  0  0  0  0
    2.4706   -0.5031    0.8729 H   0  0  0  0  0  0  0  0  0  0  0  0
    1.9587   -1.8189   -0.1942 H   0  0  0  0  0  0  0  0  0  0  0  0
   -1.6639    1.0865    1.0759 H   0  0  0  0  0  0  0  0  0  0  0  0
   -2.7022    1.1050   -0.3911 H   0  0  0  0  0  0  0  0  0  0  0  0
   -3.3752   -0.2244    2.2290 H   0  0  0  0  0  0  0  0  0  0  0  0
   -3.9857    1.4375    1.6895 H   0  0  0  0  0  0  0  0  0  0  0  0
   -5.0947   -2.0123   -0.5026 H   0  0  0  0  0  0  0  0  0  0  0  0
   -4.0524   -2.2347    0.9687 H   0  0  0  0  0  0  0  0  0  0  0  0
   -3.2636   -0.7076   -1.5186 H   0  0  0  0  0  0  0  0  0  0  0  0
   -2.6626   -2.3415   -1.1471 H   0  0  0  0  0  0  0  0  0  0  0  0
   -5.7475    0.2679   -1.6826 H   0  0  0  0  0  0  0  0  0  0  0  0
   -8.0113    1.2877   -2.0627 H   0  0  0  0  0  0  0  0  0  0  0  0
   -9.4508    1.8676   -0.1874 H   0  0  0  0  0  0  0  0  0  0  0  0
  1  2  1  0
  2  3  1  0
  3  4  2  0
  4  5  1  0
  5  6  2  0
  6  7  1  0
  7  8  2  0
  6  9  1  0
  9 10  2  0
  9 11  2  0
  9 12  1  0
 12 13  1  0
 13 14  1  0
 14 15  1  0
 15 16  1  0
 16 17  1  0
 17 18  1  0
 16 19  1  0
 19 20  1  0
 20 21  1  0
 21 22  1  0
 22 23  1  0
 23 24  1  0
 22 25  1  0
 25 26  2  0
 26 27  1  0
 27 28  2  0
 28 29  1  0
 29 30  1  0
 29 31  2  0
 31 32  1  0
  8  3  1  0
 18 13  1  0
 24 19  1  0
 31 25  1  0
  1 33  1  0
  1 34  1  0
  1 35  1  0
  4 36  1  0
  5 37  1  0
  7 38  1  0
  8 39  1  0
 12 40  1  0
 13 41  1  1
 14 42  1  0
 14 43  1  0
 15 44  1  0
 15 45  1  0
 16 46  1  6
 17 47  1  0
 17 48  1  0
 18 49  1  0
 18 50  1  0
 20 51  1  0
 20 52  1  0
 21 53  1  0
 21 54  1  0
 23 55  1  0
 23 56  1  0
 24 57  1  0
 24 58  1  0
 26 59  1  0
 27 60  1  0
 28 61  1  0
M  END
$$$$
[H]c1c([H])c([H])c(-c2c([H])c([H])c(C([H])([H])N3C(=O)n4c3nc(-c3c([H])c([H])c([H])c(C(F)(F)F)c3[H])c4C([H])([H])[H])c([H])c2[H])c([H])c1[H]
     RDKit          3D

 50 54  0  0  0  0  0  0  0  0999 V2000
    7.9889    1.6825   -0.5821 F   0  0  0  0  0  0  0  0  0  0  0  0
    7.4943    1.9904    0.6809 C   0  0  0  0  0  0  0  0  0  0  0  0
    8.4951    2.0341    1.6050 F   0  0  0  0  0  0  0  0  0  0  0  0
    6.9383    3.2416    0.5703 F   0  0  0  0  0  0  0  0  0  0  0  0
    6.4452    0.9938    1.0808 C   0  0  0  0  0  0  0  0  0  0  0  0
    6.6114    0.1932    2.1717 C   0  0  0  0  0  0  0  0  0  0  0  0
    5.6502   -0.7403    2.5175 C   0  0  0  0  0  0  0  0  0  0  0  0
    4.4874   -0.8885    1.7611 C   0  0  0  0  0  0  0  0  0  0  0  0
    4.3205   -0.0754    0.6554 C   0  0  0  0  0  0  0  0  0  0  0  0
    5.2961    0.8393    0.3449 C   0  0  0  0  0  0  0  0  0  0  0  0
    3.1133   -0.2408   -0.1775 C   0  0  0  0  0  0  0  0  0  0  0  0
    2.2458    0.6889   -0.6015 N   0  0  0  0  0  0  0  0  0  0  0  0
    1.2708    0.1422   -1.3767 C   0  0  0  0  0  0  0  0  0  0  0  0
    0.1214    0.0064   -2.1999 N   0  0  0  0  0  0  0  0  0  0  0  0
   -0.8697    0.9181   -2.7435 C   0  0  0  0  0  0  0  0  0  0  0  0
   -2.0699    0.8112   -1.8806 C   0  0  0  0  0  0  0  0  0  0  0  0
   -2.4019    1.6957   -0.8900 C   0  0  0  0  0  0  0  0  0  0  0  0
   -3.5529    1.5376   -0.1123 C   0  0  0  0  0  0  0  0  0  0  0  0
   -4.4055    0.4819   -0.3093 C   0  0  0  0  0  0  0  0  0  0  0  0
   -4.0685   -0.4151   -1.3145 C   0  0  0  0  0  0  0  0  0  0  0  0
   -2.9415   -0.2687   -2.0830 C   0  0  0  0  0  0  0  0  0  0  0  0
   -5.6127    0.2891    0.4887 C   0  0  0  0  0  0  0  0  0  0  0  0
   -6.3661    1.3117    1.0076 C   0  0  0  0  0  0  0  0  0  0  0  0
   -7.4905    1.0332    1.7535 C   0  0  0  0  0  0  0  0  0  0  0  0
   -7.8841   -0.2623    1.9963 C   0  0  0  0  0  0  0  0  0  0  0  0
   -7.1325   -1.2688    1.4786 C   0  0  0  0  0  0  0  0  0  0  0  0
   -5.9990   -1.0105    0.7258 C   0  0  0  0  0  0  0  0  0  0  0  0
    0.4141   -1.3828   -2.2603 C   0  0  0  0  0  0  0  0  0  0  0  0
   -0.1340   -2.3469   -2.8234 O   0  0  0  0  0  0  0  0  0  0  0  0
    1.5528   -1.1580   -1.4269 N   0  0  0  0  0  0  0  0  0  0  0  0
    2.6588   -1.4433   -0.7177 C   0  0  0  0  0  0  0  0  0  0  0  0
    3.3248   -2.7494   -0.5119 C   0  0  0  0  0  0  0  0  0  0  0  0
    7.5284    0.3182    2.7623 H   0  0  0  0  0  0  0  0  0  0  0  0
    5.8395   -1.3457    3.3967 H   0  0  0  0  0  0  0  0  0  0  0  0
    3.7388   -1.6190    2.0308 H   0  0  0  0  0  0  0  0  0  0  0  0
    5.1562    1.4656   -0.5164 H   0  0  0  0  0  0  0  0  0  0  0  0
   -0.5288    1.9742   -2.6799 H   0  0  0  0  0  0  0  0  0  0  0  0
   -1.0771    0.7477   -3.8162 H   0  0  0  0  0  0  0  0  0  0  0  0
   -1.7449    2.5416   -0.7134 H   0  0  0  0  0  0  0  0  0  0  0  0
   -3.7849    2.2683    0.6778 H   0  0  0  0  0  0  0  0  0  0  0  0
   -4.7235   -1.2499   -1.4874 H   0  0  0  0  0  0  0  0  0  0  0  0
   -2.6686   -0.9619   -2.8720 H   0  0  0  0  0  0  0  0  0  0  0  0
   -6.0798    2.3242    0.8279 H   0  0  0  0  0  0  0  0  0  0  0  0
   -8.0841    1.8330    2.1623 H   0  0  0  0  0  0  0  0  0  0  0  0
   -8.7646   -0.4788    2.5829 H   0  0  0  0  0  0  0  0  0  0  0  0
   -7.4001   -2.3052    1.6386 H   0  0  0  0  0  0  0  0  0  0  0  0
   -5.4094   -1.8336    0.3208 H   0  0  0  0  0  0  0  0  0  0  0  0
    2.9969   -3.2875    0.3978 H   0  0  0  0  0  0  0  0  0  0  0  0
    4.4389   -2.6526   -0.5334 H   0  0  0  0  0  0  0  0  0  0  0  0
    3.0670   -3.3785   -1.3913 H   0  0  0  0  0  0  0  0  0  0  0  0
  1  2  1  0
  2  3  1  0
  2  4  1  0
  2  5  1  0
  5  6  2  0
  6  7  1  0
  7  8  2  0
  8  9  1  0
  9 10  2  0
  9 11  1  0
 11 12  1  0
 12 13  2  0
 13 14  1  0
 14 15  1  0
 15 16  1  0
 16 17  2  0
 17 18  1  0
 18 19  2  0
 19 20  1  0
 20 21  2  0
 19 22  1  0
 22 23  2  0
 23 24  1  0
 24 25  2  0
 25 26  1  0
 26 27  2  0
 14 28  1  0
 28 29  2  0
 28 30  1  0
 30 31  1  0
 31 32  1  0
 10  5  1  0
 31 11  2  0
 30 13  1  0
 21 16  1  0
 27 22  1  0
  6 33  1  0
  7 34  1  0
  8 35  1  0
 10 36  1  0
 15 37  1  0
 15 38  1  0
 17 39  1  0
 18 40  1  0
 20 41  1  0
 21 42  1  0
 23 43  1  0
 24 44  1  0
 25 45  1  0
 26 46  1  0
 27 47  1  0
 32 48  1  0
 32 49  1  0
 32 50  1  0
M  END
$$$$
[H]c1c([H])c([H])c(-c2c([H])c([H])c(C(=O)N([H])[C@]([H])(C(=O)N3C([H])([H])C([H])([H])N(C(=O)C([H])([H])[H])C([H])([H])C3([H])[H])C([H])([H])C([H])(C([H])([H])[H])C([H])([H])[H])c([H])c2[H])c([H])c1[H]
     RDKit          3D

 62 64  0  0  0  0  0  0  0  0999 V2000
   -2.0586   -4.4198   -0.5107 C   0  0  0  0  0  0  0  0  0  0  0  0
   -2.2300   -3.5695    0.7709 C   0  0  0  0  0  0  0  0  0  0  0  0
   -1.9173   -4.6059    1.8892 C   0  0  0  0  0  0  0  0  0  0  0  0
   -1.1627   -2.5449    0.7925 C   0  0  0  0  0  0  0  0  0  0  0  0
   -1.0162   -1.5634   -0.2529 C   0  0  2  0  0  0  0  0  0  0  0  0
    0.2484   -0.8050    0.0558 N   0  0  0  0  0  0  0  0  0  0  0  0
    1.3616   -1.0230   -0.7580 C   0  0  0  0  0  0  0  0  0  0  0  0
    1.2825   -1.8444   -1.7243 O   0  0  0  0  0  0  0  0  0  0  0  0
    2.6203   -0.3464   -0.5488 C   0  0  0  0  0  0  0  0  0  0  0  0
    2.7482    0.5820    0.4501 C   0  0  0  0  0  0  0  0  0  0  0  0
    3.9567    1.2473    0.6665 C   0  0  0  0  0  0  0  0  0  0  0  0
    5.0290    0.9549   -0.1452 C   0  0  0  0  0  0  0  0  0  0  0  0
    4.9039    0.0259   -1.1458 C   0  0  0  0  0  0  0  0  0  0  0  0
    3.7094   -0.6176   -1.3439 C   0  0  0  0  0  0  0  0  0  0  0  0
    6.2853    1.6377    0.0661 C   0  0  0  0  0  0  0  0  0  0  0  0
    6.7019    2.0503    1.3150 C   0  0  0  0  0  0  0  0  0  0  0  0
    7.9071    2.7032    1.5020 C   0  0  0  0  0  0  0  0  0  0  0  0
    8.7391    2.9652    0.4356 C   0  0  0  0  0  0  0  0  0  0  0  0
    8.3402    2.5620   -0.8115 C   0  0  0  0  0  0  0  0  0  0  0  0
    7.1329    1.9096   -0.9880 C   0  0  0  0  0  0  0  0  0  0  0  0
   -1.9659   -0.6301   -0.7660 C   0  0  0  0  0  0  0  0  0  0  0  0
   -1.4188    0.0955   -1.7698 O   0  0  0  0  0  0  0  0  0  0  0  0
   -3.2804   -0.2226   -0.5592 N   0  0  0  0  0  0  0  0  0  0  0  0
   -4.2048   -0.5584    0.4704 C   0  0  0  0  0  0  0  0  0  0  0  0
   -4.8397    0.6765    1.1507 C   0  0  0  0  0  0  0  0  0  0  0  0
   -5.1562    1.6951    0.1991 N   0  0  0  0  0  0  0  0  0  0  0  0
   -5.1154    1.3338   -1.1924 C   0  0  0  0  0  0  0  0  0  0  0  0
   -3.8578    0.6813   -1.6083 C   0  0  0  0  0  0  0  0  0  0  0  0
   -5.4926    2.9961    0.5928 C   0  0  0  0  0  0  0  0  0  0  0  0
   -5.8287    4.0865   -0.3620 C   0  0  0  0  0  0  0  0  0  0  0  0
   -5.5081    3.2471    1.8474 O   0  0  0  0  0  0  0  0  0  0  0  0
   -2.3114   -3.8346   -1.3997 H   0  0  0  0  0  0  0  0  0  0  0  0
   -0.9691   -4.6350   -0.5514 H   0  0  0  0  0  0  0  0  0  0  0  0
   -2.6126   -5.3628   -0.3968 H   0  0  0  0  0  0  0  0  0  0  0  0
   -3.2600   -3.3029    0.8256 H   0  0  0  0  0  0  0  0  0  0  0  0
   -2.7044   -5.3985    1.8859 H   0  0  0  0  0  0  0  0  0  0  0  0
   -0.9611   -5.1214    1.6646 H   0  0  0  0  0  0  0  0  0  0  0  0
   -1.8150   -4.1047    2.8589 H   0  0  0  0  0  0  0  0  0  0  0  0
   -1.0879   -2.0734    1.8478 H   0  0  0  0  0  0  0  0  0  0  0  0
   -0.1773   -3.1454    0.8104 H   0  0  0  0  0  0  0  0  0  0  0  0
   -0.6701   -2.1819   -1.1871 H   0  0  0  0  0  0  0  0  0  0  0  0
    0.2128   -0.1568    0.8683 H   0  0  0  0  0  0  0  0  0  0  0  0
    1.9148    0.8306    1.1050 H   0  0  0  0  0  0  0  0  0  0  0  0
    4.0434    1.9804    1.4620 H   0  0  0  0  0  0  0  0  0  0  0  0
    5.7409   -0.2120   -1.7901 H   0  0  0  0  0  0  0  0  0  0  0  0
    3.6616   -1.3532   -2.1590 H   0  0  0  0  0  0  0  0  0  0  0  0
    6.0992    1.8776    2.1967 H   0  0  0  0  0  0  0  0  0  0  0  0
    8.2280    3.0254    2.4915 H   0  0  0  0  0  0  0  0  0  0  0  0
    9.6776    3.4798    0.6222 H   0  0  0  0  0  0  0  0  0  0  0  0
    9.0023    2.7702   -1.6576 H   0  0  0  0  0  0  0  0  0  0  0  0
    6.8972    1.6265   -2.0076 H   0  0  0  0  0  0  0  0  0  0  0  0
   -5.0606   -1.1469    0.0940 H   0  0  0  0  0  0  0  0  0  0  0  0
   -3.6987   -1.0512    1.3576 H   0  0  0  0  0  0  0  0  0  0  0  0
   -4.1922    1.0625    1.9495 H   0  0  0  0  0  0  0  0  0  0  0  0
   -5.8186    0.3548    1.6124 H   0  0  0  0  0  0  0  0  0  0  0  0
   -5.9585    0.5946   -1.3406 H   0  0  0  0  0  0  0  0  0  0  0  0
   -5.4006    2.1938   -1.8420 H   0  0  0  0  0  0  0  0  0  0  0  0
   -3.9751    0.0596   -2.5423 H   0  0  0  0  0  0  0  0  0  0  0  0
   -3.1009    1.4523   -1.8513 H   0  0  0  0  0  0  0  0  0  0  0  0
   -6.8097    3.9629   -0.8338 H   0  0  0  0  0  0  0  0  0  0  0  0
   -5.7872    5.0406    0.1699 H   0  0  0  0  0  0  0  0  0  0  0  0
   -5.0198    4.0698   -1.1505 H   0  0  0  0  0  0  0  0  0  0  0  0
  1  2  1  0
  2  3  1  0
  2  4  1  0
  4  5  1  0
  5  6  1  0
  6  7  1  0
  7  8  2  0
  7  9  1  0
  9 10  2  0
 10 11  1  0
 11 12  2  0
 12 13  1  0
 13 14  2  0
 12 15  1  0
 15 16  2  0
 16 17  1  0
 17 18  2  0
 18 19  1  0
 19 20  2  0
  5 21  1  0
 21 22  2  0
 21 23  1  0
 23 24  1  0
 24 25  1  0
 25 26  1  0
 26 27  1  0
 27 28  1  0
 26 29  1  0
 29 30  1  0
 29 31  2  0
 14  9  1  0
 20 15  1  0
 28 23  1  0
  1 32  1  0
  1 33  1  0
  1 34  1  0
  2 35  1  0
  3 36  1  0
  3 37  1  0
  3 38  1  0
  4 39  1  0
  4 40  1  0
  5 41  1  6
  6 42  1  0
 10 43  1  0
 11 44  1  0
 13 45  1  0
 14 46  1  0
 16 47  1  0
 17 48  1  0
 18 49  1  0
 19 50  1  0
 20 51  1  0
 24 52  1  0
 24 53  1  0
 25 54  1  0
 25 55  1  0
 27 56  1  0
 27 57  1  0
 28 58  1  0
 28 59  1  0
 30 60  1  0
 30 61  1  0
 30 62  1  0
M  END
$$$$
[H]N=C(N([H])[H])N([H])C([H])([H])C([H])([H])C([H])([H])[C@@]1([H])C(=O)c2c([H])c([H])c([H])c([H])c2[C@]([H])(N([H])C(=O)OC(C([H])([H])[H])(C([H])([H])[H])C([H])([H])[H])[C@@]([H])(C([H])([H])C([H])([H])C([H])([H])N=C(N([H])[H])N([H])[H])C(=O)N([H])[C@@]([H])(C([H])([H])C([H])([H])C([H])([H])N([H])C(=N[H])N([H])[H])C(=O)N1[H]
     RDKit          3D

 97 98  0  0  0  0  0  0  0  0999 V2000
   -1.3199   -5.8616   -2.5183 C   0  0  0  0  0  0  0  0  0  0  0  0
   -1.6632   -4.3632   -2.6065 C   0  0  0  0  0  0  0  0  0  0  0  0
   -0.4074   -3.7608   -3.3005 C   0  0  0  0  0  0  0  0  0  0  0  0
   -2.8702   -4.1959   -3.4545 C   0  0  0  0  0  0  0  0  0  0  0  0
   -1.7560   -3.8639   -1.3193 O   0  0  0  0  0  0  0  0  0  0  0  0
   -2.1642   -2.5622   -0.9604 C   0  0  0  0  0  0  0  0  0  0  0  0
   -2.5035   -1.8675   -1.9705 O   0  0  0  0  0  0  0  0  0  0  0  0
   -2.1492   -2.2156    0.3628 N   0  0  0  0  0  0  0  0  0  0  0  0
   -2.4983   -1.0565    1.1368 C   0  0  2  0  0  0  0  0  0  0  0  0
   -2.3421    0.2119    0.3703 C   0  0  1  0  0  0  0  0  0  0  0  0
   -3.6984    0.6124   -0.1808 C   0  0  0  0  0  0  0  0  0  0  0  0
   -3.8941    1.7967   -0.9949 C   0  0  0  0  0  0  0  0  0  0  0  0
   -3.7568    3.1692   -0.4279 C   0  0  0  0  0  0  0  0  0  0  0  0
   -4.7595    3.4244    0.6108 N   0  0  0  0  0  0  0  0  0  0  0  0
   -4.6804    4.4477    1.3702 C   0  0  0  0  0  0  0  0  0  0  0  0
   -5.7009    4.6160    2.3504 N   0  0  0  0  0  0  0  0  0  0  0  0
   -3.6406    5.3872    1.2842 N   0  0  0  0  0  0  0  0  0  0  0  0
   -1.6897    1.3047    1.0807 C   0  0  0  0  0  0  0  0  0  0  0  0
   -2.1679    1.8002    2.1621 O   0  0  0  0  0  0  0  0  0  0  0  0
   -0.4746    1.8489    0.5662 N   0  0  0  0  0  0  0  0  0  0  0  0
    0.1074    1.4957   -0.6778 C   0  0  1  0  0  0  0  0  0  0  0  0
    0.9437    2.6037   -1.2816 C   0  0  0  0  0  0  0  0  0  0  0  0
    2.0991    3.0471   -0.4571 C   0  0  0  0  0  0  0  0  0  0  0  0
    2.7687    4.1861   -1.2483 C   0  0  0  0  0  0  0  0  0  0  0  0
    3.2355    3.7502   -2.5405 N   0  0  0  0  0  0  0  0  0  0  0  0
    3.8687    4.6301   -3.4474 C   0  0  0  0  0  0  0  0  0  0  0  0
    4.6961    5.6909   -3.0171 N   0  0  0  0  0  0  0  0  0  0  0  0
    3.7078    4.4873   -4.7153 N   0  0  0  0  0  0  0  0  0  0  0  0
    0.8939    0.2443   -0.6979 C   0  0  0  0  0  0  0  0  0  0  0  0
    1.5881    0.1529   -1.7847 O   0  0  0  0  0  0  0  0  0  0  0  0
    1.0055   -0.7975    0.2113 N   0  0  0  0  0  0  0  0  0  0  0  0
    1.3706   -0.9164    1.5632 C   0  0  1  0  0  0  0  0  0  0  0  0
    2.7123   -0.2094    1.8526 C   0  0  0  0  0  0  0  0  0  0  0  0
    3.8616   -0.6870    1.0765 C   0  0  0  0  0  0  0  0  0  0  0  0
    4.1903   -2.1443    1.2549 C   0  0  0  0  0  0  0  0  0  0  0  0
    5.3679   -2.4318    0.4401 N   0  0  0  0  0  0  0  0  0  0  0  0
    5.8028   -3.7874    0.4462 C   0  0  0  0  0  0  0  0  0  0  0  0
    6.9830   -4.1190    1.1361 N   0  0  0  0  0  0  0  0  0  0  0  0
    5.1044   -4.6523   -0.1785 N   0  0  0  0  0  0  0  0  0  0  0  0
    0.4661   -0.5326    2.6361 C   0  0  0  0  0  0  0  0  0  0  0  0
    0.9165    0.4795    3.3711 O   0  0  0  0  0  0  0  0  0  0  0  0
   -0.8421   -0.9690    3.1507 C   0  0  0  0  0  0  0  0  0  0  0  0
   -0.7440   -1.2020    4.5666 C   0  0  0  0  0  0  0  0  0  0  0  0
   -1.7921   -1.6305    5.3485 C   0  0  0  0  0  0  0  0  0  0  0  0
   -2.9837   -1.8411    4.7250 C   0  0  0  0  0  0  0  0  0  0  0  0
   -3.0862   -1.6215    3.3779 C   0  0  0  0  0  0  0  0  0  0  0  0
   -2.0383   -1.1794    2.5336 C   0  0  0  0  0  0  0  0  0  0  0  0
   -0.6005   -6.1430   -3.3320 H   0  0  0  0  0  0  0  0  0  0  0  0
   -2.2473   -6.4747   -2.7351 H   0  0  0  0  0  0  0  0  0  0  0  0
   -0.8749   -6.1472   -1.5674 H   0  0  0  0  0  0  0  0  0  0  0  0
   -0.0752   -4.4606   -4.0825 H   0  0  0  0  0  0  0  0  0  0  0  0
    0.4039   -3.7217   -2.5365 H   0  0  0  0  0  0  0  0  0  0  0  0
   -0.7171   -2.8009   -3.7083 H   0  0  0  0  0  0  0  0  0  0  0  0
   -2.6066   -3.5785   -4.3579 H   0  0  0  0  0  0  0  0  0  0  0  0
   -3.7110   -3.7579   -2.8843 H   0  0  0  0  0  0  0  0  0  0  0  0
   -3.2689   -5.1566   -3.8726 H   0  0  0  0  0  0  0  0  0  0  0  0
   -1.7949   -3.0157    1.0266 H   0  0  0  0  0  0  0  0  0  0  0  0
   -3.6666   -1.1392    1.0610 H   0  0  0  0  0  0  0  0  0  0  0  0
   -1.7598   -0.0520   -0.5444 H   0  0  0  0  0  0  0  0  0  0  0  0
   -4.3942    0.7714    0.7552 H   0  0  0  0  0  0  0  0  0  0  0  0
   -4.2532   -0.2243   -0.6607 H   0  0  0  0  0  0  0  0  0  0  0  0
   -4.9785    1.8081   -1.4012 H   0  0  0  0  0  0  0  0  0  0  0  0
   -3.3604    1.7823   -1.9928 H   0  0  0  0  0  0  0  0  0  0  0  0
   -2.8120    3.4884   -0.0332 H   0  0  0  0  0  0  0  0  0  0  0  0
   -4.0027    3.9618   -1.2166 H   0  0  0  0  0  0  0  0  0  0  0  0
   -6.4381    5.3744    2.2287 H   0  0  0  0  0  0  0  0  0  0  0  0
   -5.7504    4.0184    3.1817 H   0  0  0  0  0  0  0  0  0  0  0  0
   -3.6921    6.2805    0.7020 H   0  0  0  0  0  0  0  0  0  0  0  0
   -2.7096    5.2930    1.7933 H   0  0  0  0  0  0  0  0  0  0  0  0
    0.0057    2.5588    1.1668 H   0  0  0  0  0  0  0  0  0  0  0  0
   -0.7558    1.4228   -1.4312 H   0  0  0  0  0  0  0  0  0  0  0  0
    1.3036    2.1808   -2.2681 H   0  0  0  0  0  0  0  0  0  0  0  0
    0.2703    3.4456   -1.5751 H   0  0  0  0  0  0  0  0  0  0  0  0
    2.8683    2.2285   -0.4249 H   0  0  0  0  0  0  0  0  0  0  0  0
    1.8735    3.3480    0.5600 H   0  0  0  0  0  0  0  0  0  0  0  0
    1.9718    4.9543   -1.4372 H   0  0  0  0  0  0  0  0  0  0  0  0
    3.5507    4.6004   -0.6139 H   0  0  0  0  0  0  0  0  0  0  0  0
    3.1326    2.7499   -2.8806 H   0  0  0  0  0  0  0  0  0  0  0  0
    4.4433    6.3569   -2.2665 H   0  0  0  0  0  0  0  0  0  0  0  0
    5.6322    5.8219   -3.4839 H   0  0  0  0  0  0  0  0  0  0  0  0
    3.1420    3.7681   -5.1777 H   0  0  0  0  0  0  0  0  0  0  0  0
    0.7571   -1.7720   -0.2468 H   0  0  0  0  0  0  0  0  0  0  0  0
    1.7480   -1.9923    1.7323 H   0  0  0  0  0  0  0  0  0  0  0  0
    2.8980   -0.4628    2.9342 H   0  0  0  0  0  0  0  0  0  0  0  0
    2.6144    0.8828    1.8308 H   0  0  0  0  0  0  0  0  0  0  0  0
    4.7852   -0.1169    1.4107 H   0  0  0  0  0  0  0  0  0  0  0  0
    3.7863   -0.4241   -0.0143 H   0  0  0  0  0  0  0  0  0  0  0  0
    3.3299   -2.7673    0.8891 H   0  0  0  0  0  0  0  0  0  0  0  0
    4.3751   -2.4326    2.2816 H   0  0  0  0  0  0  0  0  0  0  0  0
    5.8102   -1.6691   -0.0783 H   0  0  0  0  0  0  0  0  0  0  0  0
    7.7956   -4.5727    0.7132 H   0  0  0  0  0  0  0  0  0  0  0  0
    7.0472   -3.8925    2.1680 H   0  0  0  0  0  0  0  0  0  0  0  0
    4.2476   -4.4057   -0.6806 H   0  0  0  0  0  0  0  0  0  0  0  0
    0.1788   -1.0394    5.1203 H   0  0  0  0  0  0  0  0  0  0  0  0
   -1.6606   -1.7921    6.4270 H   0  0  0  0  0  0  0  0  0  0  0  0
   -3.8230   -2.1765    5.3259 H   0  0  0  0  0  0  0  0  0  0  0  0
   -4.0847   -1.8272    2.9915 H   0  0  0  0  0  0  0  0  0  0  0  0
  1  2  1  0
  2  3  1  0
  2  4  1  0
  2  5  1  0
  5  6  1  0
  6  7  2  0
  6  8  1  0
  8  9  1  0
  9 10  1  0
 10 11  1  0
 11 12  1  0
 12 13  1  0
 13 14  1  0
 14 15  2  3
 15 16  1  0
 15 17  1  0
 10 18  1  0
 18 19  2  0
 18 20  1  0
 20 21  1  0
 21 22  1  0
 22 23  1  0
 23 24  1  0
 24 25  1  0
 25 26  1  0
 26 27  1  0
 26 28  2  3
 21 29  1  0
 29 30  2  0
 29 31  1  0
 31 32  1  0
 32 33  1  0
 33 34  1  0
 34 35  1  0
 35 36  1  0
 36 37  1  0
 37 38  1  0
 37 39  2  3
 32 40  1  0
 40 41  2  0
 40 42  1  0
 42 43  2  0
 43 44  1  0
 44 45  2  0
 45 46  1  0
 46 47  2  0
 47  9  1  0
 47 42  1  0
  1 48  1  0
  1 49  1  0
  1 50  1  0
  3 51  1  0
  3 52  1  0
  3 53  1  0
  4 54  1  0
  4 55  1  0
  4 56  1  0
  8 57  1  0
  9 58  1  1
 10 59  1  6
 11 60  1  0
 11 61  1  0
 12 62  1  0
 12 63  1  0
 13 64  1  0
 13 65  1  0
 16 66  1  0
 16 67  1  0
 17 68  1  0
 17 69  1  0
 20 70  1  0
 21 71  1  6
 22 72  1  0
 22 73  1  0
 23 74  1  0
 23 75  1  0
 24 76  1  0
 24 77  1  0
 25 78  1  0
 27 79  1  0
 27 80  1  0
 28 81  1  0
 31 82  1  0
 32 83  1  1
 33 84  1  0
 33 85  1  0
 34 86  1  0
 34 87  1  0
 35 88  1  0
 35 89  1  0
 36 90  1  0
 38 91  1  0
 38 92  1  0
 39 93  1  0
 43 94  1  0
 44 95  1  0
 45 96  1  0
 46 97  1  0
M  END
$$$$
[H]c1nc(N([H])c2c([H])c([H])c(N3C([H])([H])C([H])([H])OC([H])([H])C3([H])[H])c([H])c2OC([H])([H])[H])nc(N([H])c2c([H])c([H])c([H])c([H])c2S(=O)(=O)C([H])([H])[H])c1Cl
     RDKit          3D

 57 60  0  0  0  0  0  0  0  0999 V2000
   -4.1690    2.1084   -3.3338 C   0  0  0  0  0  0  0  0  0  0  0  0
   -2.8691    1.7566   -2.9499 O   0  0  0  0  0  0  0  0  0  0  0  0
   -2.5674    1.1667   -1.7515 C   0  0  0  0  0  0  0  0  0  0  0  0
   -3.5634    0.9004   -0.8670 C   0  0  0  0  0  0  0  0  0  0  0  0
   -3.2946    0.2992    0.3635 C   0  0  0  0  0  0  0  0  0  0  0  0
   -2.0038   -0.0065    0.6344 C   0  0  0  0  0  0  0  0  0  0  0  0
   -0.9706    0.2696   -0.2797 C   0  0  0  0  0  0  0  0  0  0  0  0
   -1.2147    0.8593   -1.4889 C   0  0  0  0  0  0  0  0  0  0  0  0
   -0.2701    1.1580   -2.4546 N   0  0  0  0  0  0  0  0  0  0  0  0
    1.1499    1.0909   -2.4140 C   0  0  0  0  0  0  0  0  0  0  0  0
    1.8625    1.4249   -3.5076 N   0  0  0  0  0  0  0  0  0  0  0  0
    3.1878    1.4122   -3.4959 C   0  0  0  0  0  0  0  0  0  0  0  0
    3.8960    1.0656   -2.3952 C   0  0  0  0  0  0  0  0  0  0  0  0
    5.5981    1.1951   -2.3505 Cl  0  0  0  0  0  0  0  0  0  0  0  0
    3.1937    0.7038   -1.2261 C   0  0  0  0  0  0  0  0  0  0  0  0
    3.8963    0.2784   -0.1198 N   0  0  0  0  0  0  0  0  0  0  0  0
    4.5739   -0.1320    0.9474 C   0  0  0  0  0  0  0  0  0  0  0  0
    4.5447    0.6947    2.0914 C   0  0  0  0  0  0  0  0  0  0  0  0
    5.3607    0.5281    3.1526 C   0  0  0  0  0  0  0  0  0  0  0  0
    6.2679   -0.4988    3.1259 C   0  0  0  0  0  0  0  0  0  0  0  0
    6.3404   -1.3375    2.0430 C   0  0  0  0  0  0  0  0  0  0  0  0
    5.5020   -1.1574    0.9696 C   0  0  0  0  0  0  0  0  0  0  0  0
    5.5604   -2.3986   -0.2564 S   0  0  0  0  0  0  0  0  0  0  0  0
    3.9713   -3.2677   -0.2757 C   0  0  0  0  0  0  0  0  0  0  0  0
    6.0255   -2.0205   -1.5869 O   0  0  0  0  0  0  0  0  0  0  0  0
    6.5361   -3.4980    0.2067 O   0  0  0  0  0  0  0  0  0  0  0  0
    1.8740    0.7513   -1.3437 N   0  0  0  0  0  0  0  0  0  0  0  0
   -4.3380    0.0684    1.2848 N   0  0  0  0  0  0  0  0  0  0  0  0
   -4.6007   -1.2469    1.8110 C   0  0  0  0  0  0  0  0  0  0  0  0
   -6.0782   -1.5558    1.6455 C   0  0  0  0  0  0  0  0  0  0  0  0
   -6.7900   -0.4978    1.1105 O   0  0  0  0  0  0  0  0  0  0  0  0
   -6.6118    0.7023    1.7484 C   0  0  0  0  0  0  0  0  0  0  0  0
   -5.1740    1.1552    1.7545 C   0  0  0  0  0  0  0  0  0  0  0  0
   -4.7209    2.7435   -2.6459 H   0  0  0  0  0  0  0  0  0  0  0  0
   -4.7421    1.1462   -3.4071 H   0  0  0  0  0  0  0  0  0  0  0  0
   -4.1136    2.6189   -4.3249 H   0  0  0  0  0  0  0  0  0  0  0  0
   -4.6125    1.1327   -1.0572 H   0  0  0  0  0  0  0  0  0  0  0  0
   -1.6936   -0.4779    1.5729 H   0  0  0  0  0  0  0  0  0  0  0  0
    0.0309   -0.0020   -0.0018 H   0  0  0  0  0  0  0  0  0  0  0  0
   -0.6436    1.4953   -3.4105 H   0  0  0  0  0  0  0  0  0  0  0  0
    3.7035    1.6986   -4.4349 H   0  0  0  0  0  0  0  0  0  0  0  0
    2.7434    0.1618    0.5982 H   0  0  0  0  0  0  0  0  0  0  0  0
    3.8210    1.5247    2.1272 H   0  0  0  0  0  0  0  0  0  0  0  0
    5.3158    1.1979    4.0418 H   0  0  0  0  0  0  0  0  0  0  0  0
    6.9362   -0.6304    3.9818 H   0  0  0  0  0  0  0  0  0  0  0  0
    7.0974   -2.1381    2.0956 H   0  0  0  0  0  0  0  0  0  0  0  0
    3.8691   -3.6625    0.7635 H   0  0  0  0  0  0  0  0  0  0  0  0
    3.1535   -2.6314   -0.6106 H   0  0  0  0  0  0  0  0  0  0  0  0
    4.1277   -4.1494   -0.9348 H   0  0  0  0  0  0  0  0  0  0  0  0
   -3.9635   -2.0237    1.3166 H   0  0  0  0  0  0  0  0  0  0  0  0
   -4.3263   -1.2473    2.8620 H   0  0  0  0  0  0  0  0  0  0  0  0
   -6.1847   -2.4363    0.9757 H   0  0  0  0  0  0  0  0  0  0  0  0
   -6.4935   -1.8184    2.6366 H   0  0  0  0  0  0  0  0  0  0  0  0
   -6.9396    0.5793    2.8006 H   0  0  0  0  0  0  0  0  0  0  0  0
   -7.2613    1.4924    1.3114 H   0  0  0  0  0  0  0  0  0  0  0  0
   -5.0630    1.9862    1.0411 H   0  0  0  0  0  0  0  0  0  0  0  0
   -4.8663    1.4685    2.7776 H   0  0  0  0  0  0  0  0  0  0  0  0
  1  2  1  0
  2  3  1  0
  3  4  2  0
  4  5  1  0
  5  6  2  0
  6  7  1  0
  7  8  2  0
  8  9  1  0
  9 10  1  0
 10 11  2  0
 11 12  1  0
 12 13  2  0
 13 14  1  0
 13 15  1  0
 15 16  1  0
 16 17  1  0
 17 18  2  0
 18 19  1  0
 19 20  2  0
 20 21  1  0
 21 22  2  0
 22 23  1  0
 23 24  1  0
 23 25  2  0
 23 26  2  0
 15 27  2  0
  5 28  1  0
 28 29  1  0
 29 30  1  0
 30 31  1  0
 31 32  1  0
 32 33  1  0
  8  3  1  0
 27 10  1  0
 33 28  1  0
 22 17  1  0
  1 34  1  0
  1 35  1  0
  1 36  1  0
  4 37  1  0
  6 38  1  0
  7 39  1  0
  9 40  1  0
 12 41  1  0
 16 42  1  0
 18 43  1  0
 19 44  1  0
 20 45  1  0
 21 46  1  0
 24 47  1  0
 24 48  1  0
 24 49  1  0
 29 50  1  0
 29 51  1  0
 30 52  1  0
 30 53  1  0
 32 54  1  0
 32 55  1  0
 33 56  1  0
 33 57  1  0
M  END
$$$$
[H]OC(=O)c1c([H])c(C(=O)N2C([H])([H])C([H])([H])N(S(=O)(=O)c3c([H])c([H])c(OC([H])([H])[H])c([H])c3[H])C([H])([H])C2([H])[H])c([H])c(C(F)(F)F)c1[H]
     RDKit          3D

 51 53  0  0  0  0  0  0  0  0999 V2000
   -8.2604   -0.1689   -0.4854 C   0  0  0  0  0  0  0  0  0  0  0  0
   -7.7295   -0.1943    0.8017 O   0  0  0  0  0  0  0  0  0  0  0  0
   -6.3774   -0.1354    1.0927 C   0  0  0  0  0  0  0  0  0  0  0  0
   -5.9062   -0.1741    2.4101 C   0  0  0  0  0  0  0  0  0  0  0  0
   -4.5635   -0.1094    2.6320 C   0  0  0  0  0  0  0  0  0  0  0  0
   -3.6145   -0.0039    1.6055 C   0  0  0  0  0  0  0  0  0  0  0  0
   -4.1332    0.0279    0.3432 C   0  0  0  0  0  0  0  0  0  0  0  0
   -5.4909   -0.0348    0.0428 C   0  0  0  0  0  0  0  0  0  0  0  0
   -1.9239    0.1137    2.0108 S   0  0  0  0  0  0  0  0  0  0  0  0
   -1.6516   -0.9691    3.0440 O   0  0  0  0  0  0  0  0  0  0  0  0
   -1.6798    1.4612    2.7166 O   0  0  0  0  0  0  0  0  0  0  0  0
   -0.9412    0.0315    0.6845 N   0  0  0  0  0  0  0  0  0  0  0  0
   -0.8550   -1.0621   -0.1548 C   0  0  0  0  0  0  0  0  0  0  0  0
   -0.2823   -0.6121   -1.5208 C   0  0  0  0  0  0  0  0  0  0  0  0
    1.0141   -0.0682   -1.2053 N   0  0  0  0  0  0  0  0  0  0  0  0
    0.9933    1.1442   -0.3935 C   0  0  0  0  0  0  0  0  0  0  0  0
   -0.3433    1.2711    0.2996 C   0  0  0  0  0  0  0  0  0  0  0  0
    2.1711   -0.7576   -1.6108 C   0  0  0  0  0  0  0  0  0  0  0  0
    2.0603   -1.8704   -2.2311 O   0  0  0  0  0  0  0  0  0  0  0  0
    3.5482   -0.2835   -1.3451 C   0  0  0  0  0  0  0  0  0  0  0  0
    3.8811    1.0380   -1.1641 C   0  0  0  0  0  0  0  0  0  0  0  0
    5.1089    1.4948   -0.7035 C   0  0  0  0  0  0  0  0  0  0  0  0
    6.0474    0.5419   -0.4183 C   0  0  0  0  0  0  0  0  0  0  0  0
    5.7810   -0.8152   -0.5843 C   0  0  0  0  0  0  0  0  0  0  0  0
    4.5422   -1.2129   -1.0453 C   0  0  0  0  0  0  0  0  0  0  0  0
    6.7917   -1.8275   -0.2342 C   0  0  0  0  0  0  0  0  0  0  0  0
    7.8804   -1.2672    0.3936 F   0  0  0  0  0  0  0  0  0  0  0  0
    7.2267   -2.5217   -1.3517 F   0  0  0  0  0  0  0  0  0  0  0  0
    6.2151   -2.7197    0.6609 F   0  0  0  0  0  0  0  0  0  0  0  0
    5.2888    2.9213   -0.5416 C   0  0  0  0  0  0  0  0  0  0  0  0
    6.4228    3.3826    0.1305 O   0  0  0  0  0  0  0  0  0  0  0  0
    4.4634    3.7197   -0.9805 O   0  0  0  0  0  0  0  0  0  0  0  0
   -9.2984   -0.5485   -0.5116 H   0  0  0  0  0  0  0  0  0  0  0  0
   -7.6741   -0.8541   -1.1762 H   0  0  0  0  0  0  0  0  0  0  0  0
   -8.2708    0.7926   -1.0097 H   0  0  0  0  0  0  0  0  0  0  0  0
   -6.6381   -0.2547    3.1948 H   0  0  0  0  0  0  0  0  0  0  0  0
   -4.2104   -0.1243    3.6433 H   0  0  0  0  0  0  0  0  0  0  0  0
   -3.4321    0.1139   -0.4924 H   0  0  0  0  0  0  0  0  0  0  0  0
   -5.7765   -0.0273   -0.9927 H   0  0  0  0  0  0  0  0  0  0  0  0
   -1.8055   -1.6028   -0.3565 H   0  0  0  0  0  0  0  0  0  0  0  0
   -0.0735   -1.8270    0.1967 H   0  0  0  0  0  0  0  0  0  0  0  0
   -0.2514   -1.4543   -2.2063 H   0  0  0  0  0  0  0  0  0  0  0  0
   -0.9267    0.2155   -1.8569 H   0  0  0  0  0  0  0  0  0  0  0  0
    1.0952    2.0624   -1.0045 H   0  0  0  0  0  0  0  0  0  0  0  0
    1.8005    1.0152    0.3707 H   0  0  0  0  0  0  0  0  0  0  0  0
   -0.1714    1.9185    1.1874 H   0  0  0  0  0  0  0  0  0  0  0  0
   -1.0292    1.7916   -0.3644 H   0  0  0  0  0  0  0  0  0  0  0  0
    3.1736    1.8227   -1.4540 H   0  0  0  0  0  0  0  0  0  0  0  0
    7.0177    0.8631   -0.0648 H   0  0  0  0  0  0  0  0  0  0  0  0
    4.3070   -2.2542   -1.1682 H   0  0  0  0  0  0  0  0  0  0  0  0
    6.4804    3.3722    1.1672 H   0  0  0  0  0  0  0  0  0  0  0  0
  1  2  1  0
  2  3  1  0
  3  4  2  0
  4  5  1  0
  5  6  2  0
  6  7  1  0
  7  8  2  0
  6  9  1  0
  9 10  2  0
  9 11  2  0
  9 12  1  0
 12 13  1  0
 13 14  1  0
 14 15  1  0
 15 16  1  0
 16 17  1  0
 15 18  1  0
 18 19  2  0
 18 20  1  0
 20 21  2  0
 21 22  1  0
 22 23  2  0
 23 24  1  0
 24 25  2  0
 24 26  1  0
 26 27  1  0
 26 28  1  0
 26 29  1  0
 22 30  1  0
 30 31  1  0
 30 32  2  0
  8  3  1  0
 17 12  1  0
 25 20  1  0
  1 33  1  0
  1 34  1  0
  1 35  1  0
  4 36  1  0
  5 37  1  0
  7 38  1  0
  8 39  1  0
 13 40  1  0
 13 41  1  0
 14 42  1  0
 14 43  1  0
 16 44  1  0
 16 45  1  0
 17 46  1  0
 17 47  1  0
 21 48  1  0
 23 49  1  0
 25 50  1  0
 31 51  1  0
M  END
$$$$
[H]c1c([H])c(N([H])C(=O)c2c([H])c([H])c(N([H])C(=O)OC(C([H])([H])[H])(C([H])([H])[H])C([H])([H])[H])c([H])c2[H])c([H])c(C(F)(F)F)c1[H]
     RDKit          3D

 46 47  0  0  0  0  0  0  0  0999 V2000
   -5.8480    2.2227   -0.7322 C   0  0  0  0  0  0  0  0  0  0  0  0
   -6.1525    0.8231   -0.2316 C   0  0  0  0  0  0  0  0  0  0  0  0
   -7.0992    1.0763    0.9843 C   0  0  0  0  0  0  0  0  0  0  0  0
   -6.9570    0.0788   -1.2488 C   0  0  0  0  0  0  0  0  0  0  0  0
   -5.0690    0.1479    0.2918 O   0  0  0  0  0  0  0  0  0  0  0  0
   -3.8303   -0.0476   -0.3468 C   0  0  0  0  0  0  0  0  0  0  0  0
   -3.6860    0.4582   -1.4683 O   0  0  0  0  0  0  0  0  0  0  0  0
   -2.8751   -0.7791    0.3485 N   0  0  0  0  0  0  0  0  0  0  0  0
   -1.5165   -1.0522   -0.0169 C   0  0  0  0  0  0  0  0  0  0  0  0
   -1.0222   -2.3219    0.2492 C   0  0  0  0  0  0  0  0  0  0  0  0
    0.3506   -2.5149    0.1287 C   0  0  0  0  0  0  0  0  0  0  0  0
    1.1500   -1.4325   -0.2471 C   0  0  0  0  0  0  0  0  0  0  0  0
    0.6123   -0.2171   -0.5043 C   0  0  0  0  0  0  0  0  0  0  0  0
   -0.7571    0.0189   -0.3972 C   0  0  0  0  0  0  0  0  0  0  0  0
    2.6229   -1.5667   -0.0555 C   0  0  0  0  0  0  0  0  0  0  0  0
    3.0427   -2.7318    0.2716 O   0  0  0  0  0  0  0  0  0  0  0  0
    3.4827   -0.5147   -0.1865 N   0  0  0  0  0  0  0  0  0  0  0  0
    4.8730   -0.4416    0.1027 C   0  0  0  0  0  0  0  0  0  0  0  0
    5.4211   -1.2202    1.1151 C   0  0  0  0  0  0  0  0  0  0  0  0
    6.7172   -1.0844    1.5422 C   0  0  0  0  0  0  0  0  0  0  0  0
    7.5273   -0.1381    0.9626 C   0  0  0  0  0  0  0  0  0  0  0  0
    7.0159    0.6496   -0.0399 C   0  0  0  0  0  0  0  0  0  0  0  0
    5.6835    0.5046   -0.4805 C   0  0  0  0  0  0  0  0  0  0  0  0
    7.9006    1.6796   -0.6448 C   0  0  0  0  0  0  0  0  0  0  0  0
    7.2105    2.8752   -0.6535 F   0  0  0  0  0  0  0  0  0  0  0  0
    9.0754    1.7749    0.0855 F   0  0  0  0  0  0  0  0  0  0  0  0
    8.2355    1.3025   -1.9099 F   0  0  0  0  0  0  0  0  0  0  0  0
   -5.1572    2.7753   -0.1015 H   0  0  0  0  0  0  0  0  0  0  0  0
   -6.8214    2.7479   -0.7791 H   0  0  0  0  0  0  0  0  0  0  0  0
   -5.4764    2.1650   -1.7923 H   0  0  0  0  0  0  0  0  0  0  0  0
   -6.7511    1.9785    1.4908 H   0  0  0  0  0  0  0  0  0  0  0  0
   -8.1420    1.1553    0.6086 H   0  0  0  0  0  0  0  0  0  0  0  0
   -6.9543    0.2274    1.6553 H   0  0  0  0  0  0  0  0  0  0  0  0
   -8.0396    0.3753   -1.1117 H   0  0  0  0  0  0  0  0  0  0  0  0
   -6.8444   -1.0275   -1.0948 H   0  0  0  0  0  0  0  0  0  0  0  0
   -6.7336    0.3472   -2.2974 H   0  0  0  0  0  0  0  0  0  0  0  0
   -3.1376   -1.2208    1.2952 H   0  0  0  0  0  0  0  0  0  0  0  0
   -1.7134   -3.1032    0.5346 H   0  0  0  0  0  0  0  0  0  0  0  0
    0.7181   -3.4985    0.3201 H   0  0  0  0  0  0  0  0  0  0  0  0
    1.1877    0.6611   -0.8211 H   0  0  0  0  0  0  0  0  0  0  0  0
   -1.1685    0.9990   -0.6097 H   0  0  0  0  0  0  0  0  0  0  0  0
    3.0828    0.4110   -0.5675 H   0  0  0  0  0  0  0  0  0  0  0  0
    4.7996   -1.9621    1.5907 H   0  0  0  0  0  0  0  0  0  0  0  0
    7.1467   -1.7036    2.3192 H   0  0  0  0  0  0  0  0  0  0  0  0
    8.5746   -0.0049    1.3041 H   0  0  0  0  0  0  0  0  0  0  0  0
    5.3218    1.1281   -1.2824 H   0  0  0  0  0  0  0  0  0  0  0  0
  1  2  1  0
  2  3  1  0
  2  4  1  0
  2  5  1  0
  5  6  1  0
  6  7  2  0
  6  8  1  0
  8  9  1  0
  9 10  2  0
 10 11  1  0
 11 12  2  0
 12 13  1  0
 13 14  2  0
 12 15  1  0
 15 16  2  0
 15 17  1  0
 17 18  1  0
 18 19  2  0
 19 20  1  0
 20 21  2  0
 21 22  1  0
 22 23  2  0
 22 24  1  0
 24 25  1  0
 24 26  1  0
 24 27  1  0
 14  9  1  0
 23 18  1  0
  1 28  1  0
  1 29  1  0
  1 30  1  0
  3 31  1  0
  3 32  1  0
  3 33  1  0
  4 34  1  0
  4 35  1  0
  4 36  1  0
  8 37  1  0
 10 38  1  0
 11 39  1  0
 13 40  1  0
 14 41  1  0
 17 42  1  0
 19 43  1  0
 20 44  1  0
 21 45  1  0
 23 46  1  0
M  END
$$$$
[H]O[C@@]([H])(C(=O)N1C([H])([H])C([H])([H])C([H])(c2c([H])c([H])c(-c3c([H])nc4c(c3[H])c([H])c(C#N)n4[H])c([H])c2[H])C([H])([H])C1([H])[H])C([H])([H])[H]
     RDKit          3D

 50 53  0  0  0  0  0  0  0  0999 V2000
   -5.2343    2.2301   -2.5648 C   0  0  0  0  0  0  0  0  0  0  0  0
   -5.7848    1.0281   -1.7555 C   0  0  1  0  0  0  0  0  0  0  0  0
   -5.5358   -0.0665   -2.5169 O   0  0  0  0  0  0  0  0  0  0  0  0
   -5.2722    1.1212   -0.4168 C   0  0  0  0  0  0  0  0  0  0  0  0
   -5.5690    2.2238    0.2105 O   0  0  0  0  0  0  0  0  0  0  0  0
   -4.5118    0.2150    0.3019 N   0  0  0  0  0  0  0  0  0  0  0  0
   -4.0398   -1.0712   -0.1176 C   0  0  0  0  0  0  0  0  0  0  0  0
   -2.5171   -1.1477   -0.0710 C   0  0  0  0  0  0  0  0  0  0  0  0
   -1.9938   -0.6619    1.2632 C   0  0  0  0  0  0  0  0  0  0  0  0
   -2.5889    0.6469    1.6725 C   0  0  0  0  0  0  0  0  0  0  0  0
   -4.0820    0.5435    1.7044 C   0  0  0  0  0  0  0  0  0  0  0  0
   -0.5117   -0.6016    1.1583 C   0  0  0  0  0  0  0  0  0  0  0  0
    0.1268    0.2606    0.2827 C   0  0  0  0  0  0  0  0  0  0  0  0
    1.5034    0.3052    0.1964 C   0  0  0  0  0  0  0  0  0  0  0  0
    2.3016   -0.5065    0.9780 C   0  0  0  0  0  0  0  0  0  0  0  0
    1.6560   -1.3688    1.8539 C   0  0  0  0  0  0  0  0  0  0  0  0
    0.2858   -1.4242    1.9507 C   0  0  0  0  0  0  0  0  0  0  0  0
    3.7656   -0.4740    0.9007 C   0  0  0  0  0  0  0  0  0  0  0  0
    4.5286   -0.7489    2.0195 C   0  0  0  0  0  0  0  0  0  0  0  0
    5.8694   -0.7331    2.0038 N   0  0  0  0  0  0  0  0  0  0  0  0
    6.4843   -0.4297    0.8201 C   0  0  0  0  0  0  0  0  0  0  0  0
    7.7915   -0.3389    0.5045 N   0  0  0  0  0  0  0  0  0  0  0  0
    7.9455   -0.0135   -0.7833 C   0  0  0  0  0  0  0  0  0  0  0  0
    6.6916    0.1137   -1.3321 C   0  0  0  0  0  0  0  0  0  0  0  0
    5.7701   -0.1486   -0.3220 C   0  0  0  0  0  0  0  0  0  0  0  0
    4.3891   -0.1694   -0.2873 C   0  0  0  0  0  0  0  0  0  0  0  0
    9.1951    0.1792   -1.5055 C   0  0  0  0  0  0  0  0  0  0  0  0
   10.1886    0.3413   -2.0769 N   0  0  0  0  0  0  0  0  0  0  0  0
   -5.8909    2.4056   -3.4318 H   0  0  0  0  0  0  0  0  0  0  0  0
   -4.2255    2.0213   -2.9388 H   0  0  0  0  0  0  0  0  0  0  0  0
   -5.1680    3.1187   -1.9024 H   0  0  0  0  0  0  0  0  0  0  0  0
   -6.9158    1.2186   -1.7928 H   0  0  0  0  0  0  0  0  0  0  0  0
   -6.2604   -0.7405   -2.5594 H   0  0  0  0  0  0  0  0  0  0  0  0
   -4.3527   -1.3518   -1.0981 H   0  0  0  0  0  0  0  0  0  0  0  0
   -4.4152   -1.8717    0.6055 H   0  0  0  0  0  0  0  0  0  0  0  0
   -2.0619   -0.5908   -0.9085 H   0  0  0  0  0  0  0  0  0  0  0  0
   -2.2427   -2.2170   -0.1781 H   0  0  0  0  0  0  0  0  0  0  0  0
   -2.2590   -1.4190    2.0257 H   0  0  0  0  0  0  0  0  0  0  0  0
   -2.2338    1.4477    0.9909 H   0  0  0  0  0  0  0  0  0  0  0  0
   -2.2128    0.8801    2.6918 H   0  0  0  0  0  0  0  0  0  0  0  0
   -4.5875    1.4658    2.0169 H   0  0  0  0  0  0  0  0  0  0  0  0
   -4.3678   -0.3524    2.2877 H   0  0  0  0  0  0  0  0  0  0  0  0
   -0.5045    0.9107   -0.3435 H   0  0  0  0  0  0  0  0  0  0  0  0
    2.0077    0.9767   -0.4858 H   0  0  0  0  0  0  0  0  0  0  0  0
    2.2404   -2.0256    2.4882 H   0  0  0  0  0  0  0  0  0  0  0  0
   -0.2372   -2.0881    2.6259 H   0  0  0  0  0  0  0  0  0  0  0  0
    4.0596   -0.9922    2.9697 H   0  0  0  0  0  0  0  0  0  0  0  0
    8.5733   -0.5084    1.2049 H   0  0  0  0  0  0  0  0  0  0  0  0
    6.3977    0.3654   -2.3427 H   0  0  0  0  0  0  0  0  0  0  0  0
    3.8050    0.0423   -1.1488 H   0  0  0  0  0  0  0  0  0  0  0  0
  1  2  1  0
  2  3  1  0
  2  4  1  0
  4  5  2  0
  4  6  1  0
  6  7  1  0
  7  8  1  0
  8  9  1  0
  9 10  1  0
 10 11  1  0
  9 12  1  0
 12 13  2  0
 13 14  1  0
 14 15  2  0
 15 16  1  0
 16 17  2  0
 15 18  1  0
 18 19  2  0
 19 20  1  0
 20 21  2  0
 21 22  1  0
 22 23  1  0
 23 24  2  0
 24 25  1  0
 25 26  2  0
 23 27  1  0
 27 28  3  0
 11  6  1  0
 17 12  1  0
 26 18  1  0
 25 21  1  0
  1 29  1  0
  1 30  1  0
  1 31  1  0
  2 32  1  1
  3 33  1  0
  7 34  1  0
  7 35  1  0
  8 36  1  0
  8 37  1  0
  9 38  1  0
 10 39  1  0
 10 40  1  0
 11 41  1  0
 11 42  1  0
 13 43  1  0
 14 44  1  0
 16 45  1  0
 17 46  1  0
 19 47  1  0
 22 48  1  0
 24 49  1  0
 26 50  1  0
M  END
$$$$
[H]c1c([H])c(N2C([H])([H])C([H])([H])N(c3nc4c([H])c(C#N)c([H])c([H])c4n3[H])C([H])([H])[C@@]2([H])C([H])([H])[H])c([H])c([H])c1F
     RDKit          3D

 43 46  0  0  0  0  0  0  0  0999 V2000
    2.4841    1.9482   -2.3333 C   0  0  0  0  0  0  0  0  0  0  0  0
    1.6119    0.7556   -2.2031 C   0  0  2  0  0  0  0  0  0  0  0  0
    0.1870    1.1294   -1.7804 C   0  0  0  0  0  0  0  0  0  0  0  0
   -0.4919   -0.1115   -1.4884 N   0  0  0  0  0  0  0  0  0  0  0  0
    0.0019   -1.3479   -2.0505 C   0  0  0  0  0  0  0  0  0  0  0  0
    1.4330   -1.5922   -1.5422 C   0  0  0  0  0  0  0  0  0  0  0  0
    2.0329   -0.2531   -1.2724 N   0  0  0  0  0  0  0  0  0  0  0  0
    2.8855   -0.1230   -0.1711 C   0  0  0  0  0  0  0  0  0  0  0  0
    3.5334   -1.2757    0.2872 C   0  0  0  0  0  0  0  0  0  0  0  0
    4.3738   -1.2301    1.3759 C   0  0  0  0  0  0  0  0  0  0  0  0
    4.6026   -0.0562    2.0448 C   0  0  0  0  0  0  0  0  0  0  0  0
    5.4252   -0.0483    3.0983 F   0  0  0  0  0  0  0  0  0  0  0  0
    3.9893    1.1014    1.6328 C   0  0  0  0  0  0  0  0  0  0  0  0
    3.1478    1.0279    0.5341 C   0  0  0  0  0  0  0  0  0  0  0  0
   -1.6494   -0.1145   -0.6456 C   0  0  0  0  0  0  0  0  0  0  0  0
   -2.2433    0.9275   -0.0436 N   0  0  0  0  0  0  0  0  0  0  0  0
   -3.3144    0.5419    0.6739 C   0  0  0  0  0  0  0  0  0  0  0  0
   -4.2504    1.1895    1.4607 C   0  0  0  0  0  0  0  0  0  0  0  0
   -5.2761    0.5259    2.0998 C   0  0  0  0  0  0  0  0  0  0  0  0
   -5.3452   -0.8411    1.9278 C   0  0  0  0  0  0  0  0  0  0  0  0
   -4.4179   -1.5088    1.1439 C   0  0  0  0  0  0  0  0  0  0  0  0
   -3.4003   -0.8238    0.5143 C   0  0  0  0  0  0  0  0  0  0  0  0
   -2.3724   -1.1935   -0.2945 N   0  0  0  0  0  0  0  0  0  0  0  0
   -6.2515    1.2144    2.9219 C   0  0  0  0  0  0  0  0  0  0  0  0
   -7.0407    1.7670    3.5637 N   0  0  0  0  0  0  0  0  0  0  0  0
    3.5164    1.7568   -2.0121 H   0  0  0  0  0  0  0  0  0  0  0  0
    2.0277    2.8511   -1.8718 H   0  0  0  0  0  0  0  0  0  0  0  0
    2.5602    2.2171   -3.4268 H   0  0  0  0  0  0  0  0  0  0  0  0
    1.5416    0.2427   -3.2184 H   0  0  0  0  0  0  0  0  0  0  0  0
    0.2260    1.7079   -0.8380 H   0  0  0  0  0  0  0  0  0  0  0  0
   -0.3241    1.6812   -2.5956 H   0  0  0  0  0  0  0  0  0  0  0  0
    0.0993   -1.2895   -3.1591 H   0  0  0  0  0  0  0  0  0  0  0  0
   -0.5849   -2.2343   -1.7471 H   0  0  0  0  0  0  0  0  0  0  0  0
    1.9981   -2.1384   -2.2883 H   0  0  0  0  0  0  0  0  0  0  0  0
    1.3359   -2.1547   -0.5955 H   0  0  0  0  0  0  0  0  0  0  0  0
    3.3413   -2.1884   -0.2522 H   0  0  0  0  0  0  0  0  0  0  0  0
    4.8488   -2.1478    1.6885 H   0  0  0  0  0  0  0  0  0  0  0  0
    4.1605    2.0377    2.1519 H   0  0  0  0  0  0  0  0  0  0  0  0
    2.6775    1.9437    0.2458 H   0  0  0  0  0  0  0  0  0  0  0  0
   -4.1914    2.2604    1.5919 H   0  0  0  0  0  0  0  0  0  0  0  0
   -6.1471   -1.3831    2.4237 H   0  0  0  0  0  0  0  0  0  0  0  0
   -4.5053   -2.5736    1.0344 H   0  0  0  0  0  0  0  0  0  0  0  0
   -2.2352   -2.1979   -0.5577 H   0  0  0  0  0  0  0  0  0  0  0  0
  1  2  1  0
  2  3  1  0
  3  4  1  0
  4  5  1  0
  5  6  1  0
  6  7  1  0
  7  8  1  0
  8  9  2  0
  9 10  1  0
 10 11  2  0
 11 12  1  0
 11 13  1  0
 13 14  2  0
  4 15  1  0
 15 16  2  0
 16 17  1  0
 17 18  2  0
 18 19  1  0
 19 20  2  0
 20 21  1  0
 21 22  2  0
 22 23  1  0
 19 24  1  0
 24 25  3  0
  7  2  1  0
 14  8  1  0
 23 15  1  0
 22 17  1  0
  1 26  1  0
  1 27  1  0
  1 28  1  0
  2 29  1  6
  3 30  1  0
  3 31  1  0
  5 32  1  0
  5 33  1  0
  6 34  1  0
  6 35  1  0
  9 36  1  0
 10 37  1  0
 13 38  1  0
 14 39  1  0
 18 40  1  0
 20 41  1  0
 21 42  1  0
 23 43  1  0
M  END
$$$$
[H]c1nc(C(=O)N([H])c2c([H])c([H])c(N3C([H])([H])C([H])([H])N(C([H])([H])[H])C([H])([H])C3([H])[H])c([H])c2[H])n([H])c1C#Cc1c([H])c([H])c(F)c([H])c1[H]
     RDKit          3D

 52 55  0  0  0  0  0  0  0  0999 V2000
   -9.3146    0.5561   -0.7456 C   0  0  0  0  0  0  0  0  0  0  0  0
   -7.8916    0.6781   -0.8967 N   0  0  0  0  0  0  0  0  0  0  0  0
   -7.2797   -0.5545   -1.3308 C   0  0  0  0  0  0  0  0  0  0  0  0
   -6.2952   -1.0737   -0.2745 C   0  0  0  0  0  0  0  0  0  0  0  0
   -5.2804   -0.0739   -0.0789 N   0  0  0  0  0  0  0  0  0  0  0  0
   -5.7540    1.3076   -0.0022 C   0  0  0  0  0  0  0  0  0  0  0  0
   -7.2570    1.2276    0.2676 C   0  0  0  0  0  0  0  0  0  0  0  0
   -3.8979   -0.3157    0.0469 C   0  0  0  0  0  0  0  0  0  0  0  0
   -3.3941   -1.6105    0.0937 C   0  0  0  0  0  0  0  0  0  0  0  0
   -2.0593   -1.8541    0.2104 C   0  0  0  0  0  0  0  0  0  0  0  0
   -1.1725   -0.7685    0.2852 C   0  0  0  0  0  0  0  0  0  0  0  0
    0.1959   -1.0598    0.4332 N   0  0  0  0  0  0  0  0  0  0  0  0
    1.2382   -0.2198    0.0803 C   0  0  0  0  0  0  0  0  0  0  0  0
    1.0383    0.9130   -0.4298 O   0  0  0  0  0  0  0  0  0  0  0  0
    2.6269   -0.6649    0.3086 C   0  0  0  0  0  0  0  0  0  0  0  0
    2.9601   -1.8413    0.8420 N   0  0  0  0  0  0  0  0  0  0  0  0
    4.3287   -1.8675    0.8823 C   0  0  0  0  0  0  0  0  0  0  0  0
    4.8269   -0.6903    0.3660 C   0  0  0  0  0  0  0  0  0  0  0  0
    3.7281    0.0364    0.0179 N   0  0  0  0  0  0  0  0  0  0  0  0
    6.1922   -0.2874    0.2141 C   0  0  0  0  0  0  0  0  0  0  0  0
    7.3439    0.0436    0.0668 C   0  0  0  0  0  0  0  0  0  0  0  0
    8.7143    0.4267   -0.1315 C   0  0  0  0  0  0  0  0  0  0  0  0
    9.6005    0.5879    0.9199 C   0  0  0  0  0  0  0  0  0  0  0  0
   10.9150    0.9560    0.7208 C   0  0  0  0  0  0  0  0  0  0  0  0
   11.4007    1.1797   -0.5502 C   0  0  0  0  0  0  0  0  0  0  0  0
   12.7094    1.5464   -0.7523 F   0  0  0  0  0  0  0  0  0  0  0  0
   10.5323    1.0239   -1.6102 C   0  0  0  0  0  0  0  0  0  0  0  0
    9.2200    0.6555   -1.3968 C   0  0  0  0  0  0  0  0  0  0  0  0
   -1.6497    0.5046    0.2416 C   0  0  0  0  0  0  0  0  0  0  0  0
   -3.0171    0.7340    0.1216 C   0  0  0  0  0  0  0  0  0  0  0  0
   -9.6470    1.0714    0.1985 H   0  0  0  0  0  0  0  0  0  0  0  0
   -9.6292   -0.5140   -0.6579 H   0  0  0  0  0  0  0  0  0  0  0  0
   -9.8772    1.0385   -1.5672 H   0  0  0  0  0  0  0  0  0  0  0  0
   -8.0137   -1.3415   -1.4950 H   0  0  0  0  0  0  0  0  0  0  0  0
   -6.7153   -0.4026   -2.2735 H   0  0  0  0  0  0  0  0  0  0  0  0
   -5.8971   -2.0102   -0.6937 H   0  0  0  0  0  0  0  0  0  0  0  0
   -6.8665   -1.2443    0.6710 H   0  0  0  0  0  0  0  0  0  0  0  0
   -5.5658    1.8660   -0.9283 H   0  0  0  0  0  0  0  0  0  0  0  0
   -5.2478    1.7660    0.8953 H   0  0  0  0  0  0  0  0  0  0  0  0
   -7.4253    0.6461    1.1931 H   0  0  0  0  0  0  0  0  0  0  0  0
   -7.6287    2.2632    0.4253 H   0  0  0  0  0  0  0  0  0  0  0  0
   -4.0729   -2.4538    0.0380 H   0  0  0  0  0  0  0  0  0  0  0  0
   -1.6362   -2.8489    0.2490 H   0  0  0  0  0  0  0  0  0  0  0  0
    0.4538   -2.0096    0.8571 H   0  0  0  0  0  0  0  0  0  0  0  0
    4.9024   -2.6979    1.2658 H   0  0  0  0  0  0  0  0  0  0  0  0
    3.7535    0.9877   -0.4072 H   0  0  0  0  0  0  0  0  0  0  0  0
    9.2211    0.4121    1.9258 H   0  0  0  0  0  0  0  0  0  0  0  0
   11.6171    1.0845    1.5423 H   0  0  0  0  0  0  0  0  0  0  0  0
   10.8788    1.1914   -2.6237 H   0  0  0  0  0  0  0  0  0  0  0  0
    8.5173    0.5273   -2.2249 H   0  0  0  0  0  0  0  0  0  0  0  0
   -1.0399    1.4034    0.3102 H   0  0  0  0  0  0  0  0  0  0  0  0
   -3.3894    1.7703    0.0855 H   0  0  0  0  0  0  0  0  0  0  0  0
  1  2  1  0
  2  3  1  0
  3  4  1  0
  4  5  1  0
  5  6  1  0
  6  7  1  0
  5  8  1  0
  8  9  2  0
  9 10  1  0
 10 11  2  0
 11 12  1  0
 12 13  1  0
 13 14  2  0
 13 15  1  0
 15 16  2  0
 16 17  1  0
 17 18  2  0
 18 19  1  0
 18 20  1  0
 20 21  3  0
 21 22  1  0
 22 23  2  0
 23 24  1  0
 24 25  2  0
 25 26  1  0
 25 27  1  0
 27 28  2  0
 11 29  1  0
 29 30  2  0
  7  2  1  0
 30  8  1  0
 19 15  1  0
 28 22  1  0
  1 31  1  0
  1 32  1  0
  1 33  1  0
  3 34  1  0
  3 35  1  0
  4 36  1  0
  4 37  1  0
  6 38  1  0
  6 39  1  0
  7 40  1  0
  7 41  1  0
  9 42  1  0
 10 43  1  0
 12 44  1  0
 17 45  1  0
 19 46  1  0
 23 47  1  0
 24 48  1  0
 27 49  1  0
 28 50  1  0
 29 51  1  0
 30 52  1  0
M  END
$$$$
[H]OC(=O)c1c([H])c([H])c(-c2c([H])c([H])c(C([H])([H])[C@@]([H])(C(=O)N([H])[C@]([H])(C(=O)O[H])C([H])([H])c3c([H])c([H])c([H])c([H])c3[H])N([H])[H])c([H])c2[H])c([H])c1[H]
     RDKit          3D

 56 58  0  0  0  0  0  0  0  0999 V2000
   -0.9359   -0.2068    0.7095 N   0  0  0  0  0  0  0  0  0  0  0  0
   -1.0514   -0.5901   -0.6629 C   0  0  1  0  0  0  0  0  0  0  0  0
   -0.0098   -1.6143   -1.0698 C   0  0  0  0  0  0  0  0  0  0  0  0
    1.3584   -1.0737   -0.8782 C   0  0  0  0  0  0  0  0  0  0  0  0
    2.0115   -1.2470    0.3297 C   0  0  0  0  0  0  0  0  0  0  0  0
    3.2792   -0.7531    0.5240 C   0  0  0  0  0  0  0  0  0  0  0  0
    3.8956   -0.0723   -0.5230 C   0  0  0  0  0  0  0  0  0  0  0  0
    3.2299    0.0895   -1.7158 C   0  0  0  0  0  0  0  0  0  0  0  0
    1.9583   -0.4000   -1.9258 C   0  0  0  0  0  0  0  0  0  0  0  0
    5.2365    0.4369   -0.2786 C   0  0  0  0  0  0  0  0  0  0  0  0
    5.7065    1.5822   -0.8839 C   0  0  0  0  0  0  0  0  0  0  0  0
    6.9848    2.0439   -0.6328 C   0  0  0  0  0  0  0  0  0  0  0  0
    7.8445    1.3890    0.2264 C   0  0  0  0  0  0  0  0  0  0  0  0
    7.3628    0.2457    0.8252 C   0  0  0  0  0  0  0  0  0  0  0  0
    6.0857   -0.2267    0.5822 C   0  0  0  0  0  0  0  0  0  0  0  0
    9.2001    1.8878    0.4861 C   0  0  0  0  0  0  0  0  0  0  0  0
    9.9864    1.1558    1.3668 O   0  0  0  0  0  0  0  0  0  0  0  0
    9.6282    2.9342   -0.0676 O   0  0  0  0  0  0  0  0  0  0  0  0
   -2.4066   -1.1180   -0.9201 C   0  0  0  0  0  0  0  0  0  0  0  0
   -2.6841   -1.5029   -2.0739 O   0  0  0  0  0  0  0  0  0  0  0  0
   -3.3577   -1.1857    0.1034 N   0  0  0  0  0  0  0  0  0  0  0  0
   -4.6966   -1.6698    0.0350 C   0  0  1  0  0  0  0  0  0  0  0  0
   -5.6755   -0.7446   -0.6087 C   0  0  0  0  0  0  0  0  0  0  0  0
   -5.7415    0.5411    0.1389 C   0  0  0  0  0  0  0  0  0  0  0  0
   -4.9072    1.5914   -0.1895 C   0  0  0  0  0  0  0  0  0  0  0  0
   -4.9664    2.7932    0.5073 C   0  0  0  0  0  0  0  0  0  0  0  0
   -5.8522    2.9859    1.5462 C   0  0  0  0  0  0  0  0  0  0  0  0
   -6.6850    1.9372    1.8739 C   0  0  0  0  0  0  0  0  0  0  0  0
   -6.6264    0.7396    1.1800 C   0  0  0  0  0  0  0  0  0  0  0  0
   -4.8084   -3.0555   -0.5499 C   0  0  0  0  0  0  0  0  0  0  0  0
   -6.0865   -3.6096   -0.7158 O   0  0  0  0  0  0  0  0  0  0  0  0
   -3.8548   -3.7462   -0.8973 O   0  0  0  0  0  0  0  0  0  0  0  0
   -1.5685    0.5872    0.8978 H   0  0  0  0  0  0  0  0  0  0  0  0
   -1.0334   -0.9899    1.3816 H   0  0  0  0  0  0  0  0  0  0  0  0
   -0.8430    0.3183   -1.2811 H   0  0  0  0  0  0  0  0  0  0  0  0
   -0.1011   -2.5193   -0.4279 H   0  0  0  0  0  0  0  0  0  0  0  0
   -0.1179   -1.9176   -2.1228 H   0  0  0  0  0  0  0  0  0  0  0  0
    1.5104   -1.7794    1.1263 H   0  0  0  0  0  0  0  0  0  0  0  0
    3.7536   -0.9068    1.4735 H   0  0  0  0  0  0  0  0  0  0  0  0
    3.7341    0.6228   -2.5103 H   0  0  0  0  0  0  0  0  0  0  0  0
    1.4377   -0.2630   -2.8855 H   0  0  0  0  0  0  0  0  0  0  0  0
    5.0552    2.1374   -1.5778 H   0  0  0  0  0  0  0  0  0  0  0  0
    7.3611    2.9550   -1.1136 H   0  0  0  0  0  0  0  0  0  0  0  0
    8.0327   -0.2890    1.5122 H   0  0  0  0  0  0  0  0  0  0  0  0
    5.7422   -1.1393    1.0787 H   0  0  0  0  0  0  0  0  0  0  0  0
    9.6352    0.9826    2.3070 H   0  0  0  0  0  0  0  0  0  0  0  0
   -3.0406   -0.8256    1.0588 H   0  0  0  0  0  0  0  0  0  0  0  0
   -5.0387   -1.8582    1.1097 H   0  0  0  0  0  0  0  0  0  0  0  0
   -6.6995   -1.1781   -0.5505 H   0  0  0  0  0  0  0  0  0  0  0  0
   -5.4807   -0.5887   -1.6847 H   0  0  0  0  0  0  0  0  0  0  0  0
   -4.2037    1.4666   -1.0000 H   0  0  0  0  0  0  0  0  0  0  0  0
   -4.3177    3.6221    0.2585 H   0  0  0  0  0  0  0  0  0  0  0  0
   -5.9155    3.9144    2.1034 H   0  0  0  0  0  0  0  0  0  0  0  0
   -7.4004    2.0645    2.6977 H   0  0  0  0  0  0  0  0  0  0  0  0
   -7.2815   -0.0905    1.4351 H   0  0  0  0  0  0  0  0  0  0  0  0
   -6.6424   -3.8625    0.1143 H   0  0  0  0  0  0  0  0  0  0  0  0
  1  2  1  0
  2  3  1  0
  3  4  1  0
  4  5  2  0
  5  6  1  0
  6  7  2  0
  7  8  1  0
  8  9  2  0
  7 10  1  0
 10 11  2  0
 11 12  1  0
 12 13  2  0
 13 14  1  0
 14 15  2  0
 13 16  1  0
 16 17  1  0
 16 18  2  0
  2 19  1  0
 19 20  2  0
 19 21  1  0
 21 22  1  0
 22 23  1  0
 23 24  1  0
 24 25  2  0
 25 26  1  0
 26 27  2  0
 27 28  1  0
 28 29  2  0
 22 30  1  0
 30 31  1  0
 30 32  2  0
  9  4  1  0
 15 10  1  0
 29 24  1  0
  1 33  1  0
  1 34  1  0
  2 35  1  6
  3 36  1  0
  3 37  1  0
  5 38  1  0
  6 39  1  0
  8 40  1  0
  9 41  1  0
 11 42  1  0
 12 43  1  0
 14 44  1  0
 15 45  1  0
 17 46  1  0
 21 47  1  0
 22 48  1  1
 23 49  1  0
 23 50  1  0
 25 51  1  0
 26 52  1  0
 27 53  1  0
 28 54  1  0
 29 55  1  0
 31 56  1  0
M  END
$$$$
[H]N=C(N([H])[H])N([H])C([H])([H])C([H])([H])C([H])([H])[C@@]([H])(C(=O)N([H])[C@]([H])(C(=O)N([H])[C@]([H])(C(=O)N([H])[C@]([H])(C(=O)N([H])[H])C([H])([H])c1c([H])c([H])c([H])c([H])c1[H])C([H])([H])[H])C([H])([H])c1c([H])c([H])c([H])c([H])c1[H])N([H])C(=O)[C@@]([H])(N([H])C(=O)[C@@]([H])(N([H])C(=O)[C@@]([H])(N([H])[H])C([H])([H])c1c([H])c([H])c([H])c([H])c1[H])C([H])([H])C([H])(C([H])([H])[H])C([H])([H])[H])C([H])([H])C([H])([H])C([H])([H])N([H])C(=N[H])N([H])[H]
     RDKit          2D

139141  0  0  0  0  0  0  0  0999 V2000
   -0.3481   -7.9952    0.0000 C   0  0  0  0  0  0  0  0  0  0  0  0
    0.4019   -9.2942    0.0000 C   0  0  0  0  0  0  0  0  0  0  0  0
    1.1519  -10.5933    0.0000 C   0  0  0  0  0  0  0  0  0  0  0  0
    1.7010   -8.5442    0.0000 C   0  0  0  0  0  0  0  0  0  0  0  0
    3.0000   -7.7942    0.0000 C   0  0  0  0  0  0  0  0  0  0  0  0
    3.7500   -9.0933    0.0000 N   0  0  0  0  0  0  0  0  0  0  0  0
    3.0000  -10.3923    0.0000 C   0  0  0  0  0  0  0  0  0  0  0  0
    2.0451  -10.6304    0.0000 O   0  0  0  0  0  0  0  0  0  0  0  0
    3.7500  -11.6913    0.0000 C   0  0  0  0  0  0  0  0  0  0  0  0
    5.0490  -10.9413    0.0000 N   0  0  0  0  0  0  0  0  0  0  0  0
    4.5000  -12.9904    0.0000 C   0  0  0  0  0  0  0  0  0  0  0  0
    5.2500  -14.2894    0.0000 C   0  0  0  0  0  0  0  0  0  0  0  0
    4.5000  -15.5885    0.0000 C   0  0  0  0  0  0  0  0  0  0  0  0
    5.2500  -16.8875    0.0000 C   0  0  0  0  0  0  0  0  0  0  0  0
    6.7500  -16.8875    0.0000 C   0  0  0  0  0  0  0  0  0  0  0  0
    7.5000  -15.5885    0.0000 C   0  0  0  0  0  0  0  0  0  0  0  0
    6.7500  -14.2894    0.0000 C   0  0  0  0  0  0  0  0  0  0  0  0
    4.2990   -7.0442    0.0000 C   0  0  0  0  0  0  0  0  0  0  0  0
    4.4070   -6.1651    0.0000 O   0  0  0  0  0  0  0  0  0  0  0  0
    5.5981   -7.7942    0.0000 N   0  0  0  0  0  0  0  0  0  0  0  0
    6.8971   -7.0442    0.0000 C   0  0  0  0  0  0  0  0  0  0  0  0
    7.6471   -8.3433    0.0000 C   0  0  0  0  0  0  0  0  0  0  0  0
    8.3971   -9.6423    0.0000 C   0  0  0  0  0  0  0  0  0  0  0  0
    9.1471  -10.9413    0.0000 C   0  0  0  0  0  0  0  0  0  0  0  0
    9.8971  -12.2404    0.0000 N   0  0  0  0  0  0  0  0  0  0  0  0
    9.1471  -13.5394    0.0000 C   0  0  0  0  0  0  0  0  0  0  0  0
    7.6471  -13.5394    0.0000 N   0  0  0  0  0  0  0  0  0  0  0  0
    9.8971  -14.8385    0.0000 N   0  0  0  0  0  0  0  0  0  0  0  0
    6.1471   -5.7452    0.0000 C   0  0  0  0  0  0  0  0  0  0  0  0
    5.4029   -5.4595    0.0000 O   0  0  0  0  0  0  0  0  0  0  0  0
    6.8971   -4.4462    0.0000 N   0  0  0  0  0  0  0  0  0  0  0  0
    6.1471   -3.1471    0.0000 C   0  0  0  0  0  0  0  0  0  0  0  0
    7.4462   -2.3971    0.0000 C   0  0  0  0  0  0  0  0  0  0  0  0
    8.7452   -1.6471    0.0000 C   0  0  0  0  0  0  0  0  0  0  0  0
   10.0442   -0.8971    0.0000 C   0  0  0  0  0  0  0  0  0  0  0  0
   11.3433   -0.1471    0.0000 N   0  0  0  0  0  0  0  0  0  0  0  0
   12.6423   -0.8971    0.0000 C   0  0  0  0  0  0  0  0  0  0  0  0
   12.6423   -2.3971    0.0000 N   0  0  0  0  0  0  0  0  0  0  0  0
   13.9413   -0.1471    0.0000 N   0  0  0  0  0  0  0  0  0  0  0  0
    4.8481   -3.8971    0.0000 C   0  0  0  0  0  0  0  0  0  0  0  0
    4.7401   -4.7762    0.0000 O   0  0  0  0  0  0  0  0  0  0  0  0
    3.5490   -3.1471    0.0000 N   0  0  0  0  0  0  0  0  0  0  0  0
    2.2500   -3.8971    0.0000 C   0  0  0  0  0  0  0  0  0  0  0  0
    1.5000   -2.5981    0.0000 C   0  0  0  0  0  0  0  0  0  0  0  0
    0.7500   -1.2990    0.0000 C   0  0  0  0  0  0  0  0  0  0  0  0
    1.5000    0.0000    0.0000 C   0  0  0  0  0  0  0  0  0  0  0  0
    0.7500    1.2990    0.0000 C   0  0  0  0  0  0  0  0  0  0  0  0
   -0.7500    1.2990    0.0000 C   0  0  0  0  0  0  0  0  0  0  0  0
   -1.5000    0.0000    0.0000 C   0  0  0  0  0  0  0  0  0  0  0  0
   -0.7500   -1.2990    0.0000 C   0  0  0  0  0  0  0  0  0  0  0  0
    3.0000   -5.1962    0.0000 C   0  0  0  0  0  0  0  0  0  0  0  0
    4.4888   -5.0133    0.0000 O   0  0  0  0  0  0  0  0  0  0  0  0
    2.2500   -6.4952    0.0000 N   0  0  0  0  0  0  0  0  0  0  0  0
    3.0000   -7.7942    0.0000 C   0  0  0  0  0  0  0  0  0  0  0  0
    1.7010   -8.5442    0.0000 C   0  0  0  0  0  0  0  0  0  0  0  0
    4.2990   -7.0442    0.0000 C   0  0  0  0  0  0  0  0  0  0  0  0
    3.7614   -5.6439    0.0000 O   0  0  0  0  0  0  0  0  0  0  0  0
    5.5981   -7.7942    0.0000 N   0  0  0  0  0  0  0  0  0  0  0  0
    6.8971   -7.0442    0.0000 C   0  0  0  0  0  0  0  0  0  0  0  0
    7.6471   -8.3433    0.0000 C   0  0  0  0  0  0  0  0  0  0  0  0
    8.3971   -9.6423    0.0000 C   0  0  0  0  0  0  0  0  0  0  0  0
    7.6471  -10.9413    0.0000 C   0  0  0  0  0  0  0  0  0  0  0  0
    8.3971  -12.2404    0.0000 C   0  0  0  0  0  0  0  0  0  0  0  0
    9.8971  -12.2404    0.0000 C   0  0  0  0  0  0  0  0  0  0  0  0
   10.6471  -10.9413    0.0000 C   0  0  0  0  0  0  0  0  0  0  0  0
    9.8971   -9.6423    0.0000 C   0  0  0  0  0  0  0  0  0  0  0  0
    6.1471   -5.7452    0.0000 C   0  0  0  0  0  0  0  0  0  0  0  0
    6.8971   -4.4462    0.0000 N   0  0  0  0  0  0  0  0  0  0  0  0
    4.6583   -5.9280    0.0000 O   0  0  0  0  0  0  0  0  0  0  0  0
   -1.0981   -6.6962    0.0000 H   0  0  0  0  0  0  0  0  0  0  0  0
   -1.6471   -8.7452    0.0000 H   0  0  0  0  0  0  0  0  0  0  0  0
    0.5958   -6.8294    0.0000 H   0  0  0  0  0  0  0  0  0  0  0  0
   -0.8971  -10.0442    0.0000 H   0  0  0  0  0  0  0  0  0  0  0  0
    1.7380  -11.9740    0.0000 H   0  0  0  0  0  0  0  0  0  0  0  0
   -0.1471  -11.3433    0.0000 H   0  0  0  0  0  0  0  0  0  0  0  0
    2.4510   -9.8433    0.0000 H   0  0  0  0  0  0  0  0  0  0  0  0
    1.1149   -7.1635    0.0000 H   0  0  0  0  0  0  0  0  0  0  0  0
    2.4510   -9.8433    0.0000 H   0  0  0  0  0  0  0  0  0  0  0  0
    1.9580   -6.7153    0.0000 H   0  0  0  0  0  0  0  0  0  0  0  0
    5.2388   -9.2761    0.0000 H   0  0  0  0  0  0  0  0  0  0  0  0
    2.5521  -12.5941    0.0000 H   0  0  0  0  0  0  0  0  0  0  0  0
    5.5867   -9.5410    0.0000 H   0  0  0  0  0  0  0  0  0  0  0  0
    6.4298  -11.5274    0.0000 H   0  0  0  0  0  0  0  0  0  0  0  0
    5.8808  -12.4043    0.0000 H   0  0  0  0  0  0  0  0  0  0  0  0
    3.2010  -13.7404    0.0000 H   0  0  0  0  0  0  0  0  0  0  0  0
    3.0000  -15.5885    0.0000 H   0  0  0  0  0  0  0  0  0  0  0  0
    4.5000  -18.1865    0.0000 H   0  0  0  0  0  0  0  0  0  0  0  0
    7.5000  -18.1865    0.0000 H   0  0  0  0  0  0  0  0  0  0  0  0
    8.9888  -15.7713    0.0000 H   0  0  0  0  0  0  0  0  0  0  0  0
    6.9845  -12.8079    0.0000 H   0  0  0  0  0  0  0  0  0  0  0  0
    5.7809   -9.2830    0.0000 H   0  0  0  0  0  0  0  0  0  0  0  0
    8.0950   -6.1415    0.0000 H   0  0  0  0  0  0  0  0  0  0  0  0
    8.8450   -7.4405    0.0000 H   0  0  0  0  0  0  0  0  0  0  0  0
    6.4492   -9.2460    0.0000 H   0  0  0  0  0  0  0  0  0  0  0  0
    6.9552  -10.0557    0.0000 H   0  0  0  0  0  0  0  0  0  0  0  0
    9.4761   -8.6003    0.0000 H   0  0  0  0  0  0  0  0  0  0  0  0
   10.6462  -10.8892    0.0000 H   0  0  0  0  0  0  0  0  0  0  0  0
    8.3524  -12.2135    0.0000 H   0  0  0  0  0  0  0  0  0  0  0  0
   11.3971  -12.2404    0.0000 H   0  0  0  0  0  0  0  0  0  0  0  0
    7.2337  -14.9813    0.0000 H   0  0  0  0  0  0  0  0  0  0  0  0
    7.0611  -12.1586    0.0000 H   0  0  0  0  0  0  0  0  0  0  0  0
    9.3111  -16.2192    0.0000 H   0  0  0  0  0  0  0  0  0  0  0  0
    8.3971   -4.4462    0.0000 H   0  0  0  0  0  0  0  0  0  0  0  0
    5.3971   -1.8481    0.0000 H   0  0  0  0  0  0  0  0  0  0  0  0
    6.6962   -1.0981    0.0000 H   0  0  0  0  0  0  0  0  0  0  0  0
    8.4882   -3.4761    0.0000 H   0  0  0  0  0  0  0  0  0  0  0  0
    9.4952   -2.9462    0.0000 H   0  0  0  0  0  0  0  0  0  0  0  0
    7.9952   -0.3481    0.0000 H   0  0  0  0  0  0  0  0  0  0  0  0
    9.2942    0.4019    0.0000 H   0  0  0  0  0  0  0  0  0  0  0  0
   10.7942   -2.1962    0.0000 H   0  0  0  0  0  0  0  0  0  0  0  0
   11.3433    1.3529    0.0000 H   0  0  0  0  0  0  0  0  0  0  0  0
   13.9413   -3.1471    0.0000 H   0  0  0  0  0  0  0  0  0  0  0  0
   11.3433   -3.1471    0.0000 H   0  0  0  0  0  0  0  0  0  0  0  0
   15.2404   -0.8971    0.0000 H   0  0  0  0  0  0  0  0  0  0  0  0
    3.7319   -1.6583    0.0000 H   0  0  0  0  0  0  0  0  0  0  0  0
    0.9510   -4.6471    0.0000 H   0  0  0  0  0  0  0  0  0  0  0  0
    2.6979   -1.6953    0.0000 H   0  0  0  0  0  0  0  0  0  0  0  0
    0.2010   -3.3481    0.0000 H   0  0  0  0  0  0  0  0  0  0  0  0
    3.0000    0.0000    0.0000 H   0  0  0  0  0  0  0  0  0  0  0  0
    1.5000    2.5981    0.0000 H   0  0  0  0  0  0  0  0  0  0  0  0
   -1.5000    2.5981    0.0000 H   0  0  0  0  0  0  0  0  0  0  0  0
   -3.0000    0.0000    0.0000 H   0  0  0  0  0  0  0  0  0  0  0  0
   -1.5000   -2.5981    0.0000 H   0  0  0  0  0  0  0  0  0  0  0  0
    0.8497   -5.9575    0.0000 H   0  0  0  0  0  0  0  0  0  0  0  0
    3.4134   -9.2361    0.0000 H   0  0  0  0  0  0  0  0  0  0  0  0
    0.2590   -8.9576    0.0000 H   0  0  0  0  0  0  0  0  0  0  0  0
    2.1143   -9.9861    0.0000 H   0  0  0  0  0  0  0  0  0  0  0  0
    0.7982   -7.3463    0.0000 H   0  0  0  0  0  0  0  0  0  0  0  0
    5.4152   -9.2830    0.0000 H   0  0  0  0  0  0  0  0  0  0  0  0
    8.2779   -6.4582    0.0000 H   0  0  0  0  0  0  0  0  0  0  0  0
    6.7032   -9.5091    0.0000 H   0  0  0  0  0  0  0  0  0  0  0  0
    9.0279   -7.7572    0.0000 H   0  0  0  0  0  0  0  0  0  0  0  0
    6.1583  -11.1242    0.0000 H   0  0  0  0  0  0  0  0  0  0  0  0
    7.2313  -13.1843    0.0000 H   0  0  0  0  0  0  0  0  0  0  0  0
   10.6471  -13.5394    0.0000 H   0  0  0  0  0  0  0  0  0  0  0  0
   12.1471  -10.9413    0.0000 H   0  0  0  0  0  0  0  0  0  0  0  0
   10.6471   -8.3433    0.0000 H   0  0  0  0  0  0  0  0  0  0  0  0
    6.4837   -3.0042    0.0000 H   0  0  0  0  0  0  0  0  0  0  0  0
    8.3525   -4.8091    0.0000 H   0  0  0  0  0  0  0  0  0  0  0  0
  1  2  1  0
  2  3  1  0
  2  4  1  0
  4  5  1  0
  5  6  1  0
  6  7  1  0
  7  8  2  0
  7  9  1  0
  9 10  1  0
  9 11  1  0
 11 12  1  0
 12 13  2  0
 13 14  1  0
 14 15  2  0
 15 16  1  0
 16 17  2  0
  5 18  1  0
 18 19  2  0
 18 20  1  0
 20 21  1  0
 21 22  1  0
 22 23  1  0
 23 24  1  0
 24 25  1  0
 25 26  1  0
 26 27  1  0
 26 28  2  3
 21 29  1  0
 29 30  2  0
 29 31  1  0
 31 32  1  0
 32 33  1  0
 33 34  1  0
 34 35  1  0
 35 36  1  0
 36 37  1  0
 37 38  1  0
 37 39  2  3
 32 40  1  0
 40 41  2  0
 40 42  1  0
 42 43  1  0
 43 44  1  0
 44 45  1  0
 45 46  2  0
 46 47  1  0
 47 48  2  0
 48 49  1  0
 49 50  2  0
 43 51  1  0
 51 52  2  0
 51 53  1  0
 53 54  1  0
 54 55  1  0
 54 56  1  0
 56 57  2  0
 56 58  1  0
 58 59  1  0
 59 60  1  0
 60 61  1  0
 61 62  2  0
 62 63  1  0
 63 64  2  0
 64 65  1  0
 65 66  2  0
 59 67  1  0
 67 68  1  0
 67 69  2  0
 17 12  1  0
 50 45  1  0
 66 61  1  0
  1 70  1  0
  1 71  1  0
  1 72  1  0
  2 73  1  0
  3 74  1  0
  3 75  1  0
  3 76  1  0
  4 77  1  0
  4 78  1  0
  5 79  1  6
  6 80  1  0
  9 81  1  6
 10 82  1  0
 10 83  1  0
 11 84  1  0
 11 85  1  0
 13 86  1  0
 14 87  1  0
 15 88  1  0
 16 89  1  0
 17 90  1  0
 20 91  1  0
 21 92  1  1
 22 93  1  0
 22 94  1  0
 23 95  1  0
 23 96  1  0
 24 97  1  0
 24 98  1  0
 25 99  1  0
 27100  1  0
 27101  1  0
 28102  1  0
 31103  1  0
 32104  1  1
 33105  1  0
 33106  1  0
 34107  1  0
 34108  1  0
 35109  1  0
 35110  1  0
 36111  1  0
 38112  1  0
 38113  1  0
 39114  1  0
 42115  1  0
 43116  1  1
 44117  1  0
 44118  1  0
 46119  1  0
 47120  1  0
 48121  1  0
 49122  1  0
 50123  1  0
 53124  1  0
 54125  1  1
 55126  1  0
 55127  1  0
 55128  1  0
 58129  1  0
 59130  1  1
 60131  1  0
 60132  1  0
 62133  1  0
 63134  1  0
 64135  1  0
 65136  1  0
 66137  1  0
 68138  1  0
 68139  1  0
M  END
$$$$
[H]N=C(N([H])[H])N([H])C([H])([H])C([H])([H])C([H])([H])[C@]([H])(C(=O)N([H])[C@]([H])(C(=O)N1C([H])([H])C([H])([H])C([H])([H])[C@@]1([H])C(=O)N([H])[C@]([H])(C(=O)N([H])[H])C([H])([H])[H])C([H])([H])c1c([H])c([H])c([H])c([H])c1[H])N([H])C(=O)[C@@]([H])(N([H])C(=O)[C@@]([H])(N([H])C(=O)C([H])([H])[H])C([H])([H])c1c([H])c([H])c([H])c([H])c1[H])C([H])([H])c1c([H])c([H])c([H])c([H])c1[H]
     RDKit          3D

116119  0  0  0  0  0  0  0  0999 V2000
   -9.9096    3.9971   -1.4292 C   0  0  0  0  0  0  0  0  0  0  0  0
   -8.9974    3.2714   -0.4426 C   0  0  2  0  0  0  0  0  0  0  0  0
   -7.7955    2.8044   -1.1285 N   0  0  0  0  0  0  0  0  0  0  0  0
   -6.5305    3.3730   -0.9107 C   0  0  0  0  0  0  0  0  0  0  0  0
   -6.4770    4.3592   -0.0661 O   0  0  0  0  0  0  0  0  0  0  0  0
   -5.2875    2.9738   -1.5336 C   0  0  2  0  0  0  0  0  0  0  0  0
   -5.4503    3.1852   -3.0420 C   0  0  0  0  0  0  0  0  0  0  0  0
   -5.7303    1.8248   -3.6142 C   0  0  0  0  0  0  0  0  0  0  0  0
   -5.5284    0.8440   -2.4939 C   0  0  0  0  0  0  0  0  0  0  0  0
   -4.8794    1.6110   -1.4662 N   0  0  0  0  0  0  0  0  0  0  0  0
   -3.9125    1.0518   -0.5322 C   0  0  0  0  0  0  0  0  0  0  0  0
   -3.3876    1.8462    0.2710 O   0  0  0  0  0  0  0  0  0  0  0  0
   -3.5453   -0.3711   -0.5130 C   0  0  2  0  0  0  0  0  0  0  0  0
   -4.6761   -1.2935   -0.1109 C   0  0  0  0  0  0  0  0  0  0  0  0
   -5.2066   -1.0273    1.2432 C   0  0  0  0  0  0  0  0  0  0  0  0
   -6.2316   -0.1445    1.4868 C   0  0  0  0  0  0  0  0  0  0  0  0
   -6.7414    0.1051    2.7420 C   0  0  0  0  0  0  0  0  0  0  0  0
   -6.2157   -0.5472    3.8118 C   0  0  0  0  0  0  0  0  0  0  0  0
   -5.1863   -1.4419    3.6176 C   0  0  0  0  0  0  0  0  0  0  0  0
   -4.6884   -1.6783    2.3494 C   0  0  0  0  0  0  0  0  0  0  0  0
   -2.3857   -0.5895    0.3656 N   0  0  0  0  0  0  0  0  0  0  0  0
   -1.1240   -0.9238   -0.1206 C   0  0  0  0  0  0  0  0  0  0  0  0
   -1.0205   -1.0289   -1.3928 O   0  0  0  0  0  0  0  0  0  0  0  0
    0.1059   -1.1708    0.6391 C   0  0  1  0  0  0  0  0  0  0  0  0
   -0.0239   -1.9581    1.8780 C   0  0  0  0  0  0  0  0  0  0  0  0
   -0.5640   -3.3173    1.8688 C   0  0  0  0  0  0  0  0  0  0  0  0
    0.2504   -4.2621    1.0354 C   0  0  0  0  0  0  0  0  0  0  0  0
   -0.3314   -5.6117    1.1063 N   0  0  0  0  0  0  0  0  0  0  0  0
   -0.2378   -6.2514    2.3678 C   0  0  0  0  0  0  0  0  0  0  0  0
    1.0341   -6.3891    2.9798 N   0  0  0  0  0  0  0  0  0  0  0  0
   -1.2720   -6.7045    2.9629 N   0  0  0  0  0  0  0  0  0  0  0  0
    1.2491   -1.4162   -0.2024 N   0  0  0  0  0  0  0  0  0  0  0  0
    2.4991   -0.8113   -0.0531 C   0  0  0  0  0  0  0  0  0  0  0  0
    2.6912   -0.0033    0.8857 O   0  0  0  0  0  0  0  0  0  0  0  0
    3.6194   -1.0842   -0.9717 C   0  0  2  0  0  0  0  0  0  0  0  0
    3.7787   -2.5157   -1.2986 C   0  0  0  0  0  0  0  0  0  0  0  0
    4.8933   -2.7887   -2.2101 C   0  0  0  0  0  0  0  0  0  0  0  0
    4.7754   -2.7872   -3.5776 C   0  0  0  0  0  0  0  0  0  0  0  0
    5.8286   -3.0457   -4.4201 C   0  0  0  0  0  0  0  0  0  0  0  0
    7.0694   -3.3227   -3.9082 C   0  0  0  0  0  0  0  0  0  0  0  0
    7.2226   -3.3332   -2.5361 C   0  0  0  0  0  0  0  0  0  0  0  0
    6.1414   -3.0678   -1.7010 C   0  0  0  0  0  0  0  0  0  0  0  0
    4.8344   -0.4065   -0.5478 N   0  0  0  0  0  0  0  0  0  0  0  0
    5.1357    0.9264   -0.9403 C   0  0  0  0  0  0  0  0  0  0  0  0
    4.3054    1.5208   -1.6729 O   0  0  0  0  0  0  0  0  0  0  0  0
    6.3548    1.6397   -0.5341 C   0  0  2  0  0  0  0  0  0  0  0  0
    7.1045    0.9431    0.5751 C   0  0  0  0  0  0  0  0  0  0  0  0
    8.3075    1.6793    0.9807 C   0  0  0  0  0  0  0  0  0  0  0  0
    9.5106    1.4699    0.3823 C   0  0  0  0  0  0  0  0  0  0  0  0
   10.6421    2.1551    0.7694 C   0  0  0  0  0  0  0  0  0  0  0  0
   10.5781    3.0838    1.7888 C   0  0  0  0  0  0  0  0  0  0  0  0
    9.3483    3.2757    2.3770 C   0  0  0  0  0  0  0  0  0  0  0  0
    8.2213    2.6066    2.0058 C   0  0  0  0  0  0  0  0  0  0  0  0
    6.1772    3.0378   -0.2839 N   0  0  0  0  0  0  0  0  0  0  0  0
    6.7295    4.0826   -1.0697 C   0  0  0  0  0  0  0  0  0  0  0  0
    6.4931    5.5086   -0.7336 C   0  0  0  0  0  0  0  0  0  0  0  0
    7.4318    3.8046   -2.0685 O   0  0  0  0  0  0  0  0  0  0  0  0
   -9.7557    2.1702    0.1553 C   0  0  0  0  0  0  0  0  0  0  0  0
  -10.9339    2.4586    0.8915 N   0  0  0  0  0  0  0  0  0  0  0  0
   -9.4159    0.9531    0.0526 O   0  0  0  0  0  0  0  0  0  0  0  0
   -9.6570    3.6424   -2.4544 H   0  0  0  0  0  0  0  0  0  0  0  0
   -9.7322    5.0806   -1.3050 H   0  0  0  0  0  0  0  0  0  0  0  0
  -10.9441    3.7786   -1.1405 H   0  0  0  0  0  0  0  0  0  0  0  0
   -8.7085    3.9925    0.3349 H   0  0  0  0  0  0  0  0  0  0  0  0
   -7.9225    2.0336   -1.8024 H   0  0  0  0  0  0  0  0  0  0  0  0
   -4.4683    3.6661   -1.1633 H   0  0  0  0  0  0  0  0  0  0  0  0
   -6.3230    3.8372   -3.2469 H   0  0  0  0  0  0  0  0  0  0  0  0
   -4.5104    3.5915   -3.4678 H   0  0  0  0  0  0  0  0  0  0  0  0
   -5.0654    1.6040   -4.4822 H   0  0  0  0  0  0  0  0  0  0  0  0
   -6.7997    1.7608   -3.9715 H   0  0  0  0  0  0  0  0  0  0  0  0
   -4.8293    0.0080   -2.8327 H   0  0  0  0  0  0  0  0  0  0  0  0
   -6.4801    0.3886   -2.2322 H   0  0  0  0  0  0  0  0  0  0  0  0
   -3.2110   -0.6307   -1.5328 H   0  0  0  0  0  0  0  0  0  0  0  0
   -4.3265   -2.3709   -0.1598 H   0  0  0  0  0  0  0  0  0  0  0  0
   -5.5053   -1.2582   -0.8405 H   0  0  0  0  0  0  0  0  0  0  0  0
   -6.6581    0.3779    0.6446 H   0  0  0  0  0  0  0  0  0  0  0  0
   -7.5460    0.8096    2.8615 H   0  0  0  0  0  0  0  0  0  0  0  0
   -6.6145   -0.3552    4.8109 H   0  0  0  0  0  0  0  0  0  0  0  0
   -4.7884   -1.9436    4.4840 H   0  0  0  0  0  0  0  0  0  0  0  0
   -3.8770   -2.3904    2.2424 H   0  0  0  0  0  0  0  0  0  0  0  0
   -2.5429   -0.4771    1.3755 H   0  0  0  0  0  0  0  0  0  0  0  0
    0.3554   -0.1066    1.0609 H   0  0  0  0  0  0  0  0  0  0  0  0
   -0.7047   -1.3477    2.5683 H   0  0  0  0  0  0  0  0  0  0  0  0
    0.9598   -1.8822    2.4167 H   0  0  0  0  0  0  0  0  0  0  0  0
   -0.5595   -3.7677    2.9143 H   0  0  0  0  0  0  0  0  0  0  0  0
   -1.6307   -3.4005    1.5651 H   0  0  0  0  0  0  0  0  0  0  0  0
    1.3089   -4.3001    1.3480 H   0  0  0  0  0  0  0  0  0  0  0  0
    0.2560   -3.9405   -0.0479 H   0  0  0  0  0  0  0  0  0  0  0  0
   -0.7653   -6.0226    0.2684 H   0  0  0  0  0  0  0  0  0  0  0  0
    1.1541   -6.5023    4.0164 H   0  0  0  0  0  0  0  0  0  0  0  0
    1.9246   -6.3853    2.4202 H   0  0  0  0  0  0  0  0  0  0  0  0
   -1.2476   -7.1796    3.8871 H   0  0  0  0  0  0  0  0  0  0  0  0
    1.1459   -2.0789   -0.9983 H   0  0  0  0  0  0  0  0  0  0  0  0
    3.3272   -0.5093   -1.9216 H   0  0  0  0  0  0  0  0  0  0  0  0
    3.7872   -3.1401   -0.3834 H   0  0  0  0  0  0  0  0  0  0  0  0
    2.8453   -2.8224   -1.8601 H   0  0  0  0  0  0  0  0  0  0  0  0
    3.7922   -2.5687   -4.0235 H   0  0  0  0  0  0  0  0  0  0  0  0
    5.6823   -3.0311   -5.4843 H   0  0  0  0  0  0  0  0  0  0  0  0
    7.9328   -3.5332   -4.5517 H   0  0  0  0  0  0  0  0  0  0  0  0
    8.2166   -3.5561   -2.1506 H   0  0  0  0  0  0  0  0  0  0  0  0
    6.2745   -3.0804   -0.6156 H   0  0  0  0  0  0  0  0  0  0  0  0
    5.5099   -0.9122    0.0691 H   0  0  0  0  0  0  0  0  0  0  0  0
    7.0739    1.5990   -1.4243 H   0  0  0  0  0  0  0  0  0  0  0  0
    6.3825    0.8656    1.4391 H   0  0  0  0  0  0  0  0  0  0  0  0
    7.3423   -0.1049    0.2790 H   0  0  0  0  0  0  0  0  0  0  0  0
    9.5874    0.7368   -0.4313 H   0  0  0  0  0  0  0  0  0  0  0  0
   11.5893    1.9929    0.3036 H   0  0  0  0  0  0  0  0  0  0  0  0
   11.4444    3.6471    2.1264 H   0  0  0  0  0  0  0  0  0  0  0  0
    9.2975    4.0062    3.1812 H   0  0  0  0  0  0  0  0  0  0  0  0
    7.2871    2.8128    2.5165 H   0  0  0  0  0  0  0  0  0  0  0  0
    5.5985    3.3101    0.5429 H   0  0  0  0  0  0  0  0  0  0  0  0
    6.1374    5.5561    0.3269 H   0  0  0  0  0  0  0  0  0  0  0  0
    5.6938    5.9557   -1.3490 H   0  0  0  0  0  0  0  0  0  0  0  0
    7.4103    6.1219   -0.7691 H   0  0  0  0  0  0  0  0  0  0  0  0
  -10.9267    3.1826    1.6348 H   0  0  0  0  0  0  0  0  0  0  0  0
  -11.8635    1.9711    0.7350 H   0  0  0  0  0  0  0  0  0  0  0  0
  1  2  1  0
  2  3  1  0
  3  4  1  0
  4  5  2  0
  4  6  1  0
  6  7  1  0
  7  8  1  0
  8  9  1  0
  9 10  1  0
 10 11  1  0
 11 12  2  0
 11 13  1  0
 13 14  1  0
 14 15  1  0
 15 16  2  0
 16 17  1  0
 17 18  2  0
 18 19  1  0
 19 20  2  0
 13 21  1  0
 21 22  1  0
 22 23  2  0
 22 24  1  0
 24 25  1  0
 25 26  1  0
 26 27  1  0
 27 28  1  0
 28 29  1  0
 29 30  1  0
 29 31  2  3
 24 32  1  0
 32 33  1  0
 33 34  2  0
 33 35  1  0
 35 36  1  0
 36 37  1  0
 37 38  2  0
 38 39  1  0
 39 40  2  0
 40 41  1  0
 41 42  2  0
 35 43  1  0
 43 44  1  0
 44 45  2  0
 44 46  1  0
 46 47  1  0
 47 48  1  0
 48 49  2  0
 49 50  1  0
 50 51  2  0
 51 52  1  0
 52 53  2  0
 46 54  1  0
 54 55  1  0
 55 56  1  0
 55 57  2  0
  2 58  1  0
 58 59  1  0
 58 60  2  0
 10  6  1  0
 20 15  1  0
 42 37  1  0
 53 48  1  0
  1 61  1  0
  1 62  1  0
  1 63  1  0
  2 64  1  1
  3 65  1  0
  6 66  1  1
  7 67  1  0
  7 68  1  0
  8 69  1  0
  8 70  1  0
  9 71  1  0
  9 72  1  0
 13 73  1  6
 14 74  1  0
 14 75  1  0
 16 76  1  0
 17 77  1  0
 18 78  1  0
 19 79  1  0
 20 80  1  0
 21 81  1  0
 24 82  1  1
 25 83  1  0
 25 84  1  0
 26 85  1  0
 26 86  1  0
 27 87  1  0
 27 88  1  0
 28 89  1  0
 30 90  1  0
 30 91  1  0
 31 92  1  0
 32 93  1  0
 35 94  1  6
 36 95  1  0
 36 96  1  0
 38 97  1  0
 39 98  1  0
 40 99  1  0
 41100  1  0
 42101  1  0
 43102  1  0
 46103  1  6
 47104  1  0
 47105  1  0
 49106  1  0
 50107  1  0
 51108  1  0
 52109  1  0
 53110  1  0
 54111  1  0
 56112  1  0
 56113  1  0
 56114  1  0
 59115  1  0
 59116  1  0
M  END
$$$$
[H]N=C(N([H])[H])N([H])C([H])([H])C([H])([H])C([H])([H])[C@@]([H])(C(=O)N([H])[C@]([H])(C(=O)N([H])[C@]([H])(C(=O)O[H])C([H])([H])c1c([H])c([H])c([H])c([H])c1[H])C([H])([H])C([H])(C([H])([H])[H])C([H])([H])[H])N([H])C(=O)[C@@]([H])(N([H])C(=O)[C@@]([H])(N([H])C(=O)OC([H])([H])c1c([H])c([H])c([H])c([H])c1[H])C([H])([H])c1c([H])c([H])c([H])c([H])c1[H])C([H])([H])C([H])(C([H])([H])[H])C([H])([H])[H]
     RDKit          3D

120122  0  0  0  0  0  0  0  0999 V2000
    4.5247    0.5712    4.0509 C   0  0  0  0  0  0  0  0  0  0  0  0
    4.2125   -0.6277    3.1986 C   0  0  0  0  0  0  0  0  0  0  0  0
    4.6935   -1.8752    3.9226 C   0  0  0  0  0  0  0  0  0  0  0  0
    2.7563   -0.7210    2.8462 C   0  0  0  0  0  0  0  0  0  0  0  0
    2.3848   -1.8933    2.0208 C   0  0  2  0  0  0  0  0  0  0  0  0
    2.9425   -2.0405    0.7281 N   0  0  0  0  0  0  0  0  0  0  0  0
    3.3416   -1.0112   -0.1410 C   0  0  0  0  0  0  0  0  0  0  0  0
    3.1394    0.1689    0.3063 O   0  0  0  0  0  0  0  0  0  0  0  0
    3.9348   -1.1867   -1.4673 C   0  0  2  0  0  0  0  0  0  0  0  0
    5.1865   -1.9756   -1.5910 C   0  0  0  0  0  0  0  0  0  0  0  0
    5.2785   -3.3426   -1.1890 C   0  0  0  0  0  0  0  0  0  0  0  0
    5.9226   -3.7340   -0.0527 C   0  0  0  0  0  0  0  0  0  0  0  0
    6.0423   -5.0436    0.3618 C   0  0  0  0  0  0  0  0  0  0  0  0
    5.4982   -6.0249   -0.3859 C   0  0  0  0  0  0  0  0  0  0  0  0
    4.8141   -5.6717   -1.5768 C   0  0  0  0  0  0  0  0  0  0  0  0
    4.7146   -4.3468   -1.9567 C   0  0  0  0  0  0  0  0  0  0  0  0
    4.2224    0.0685   -2.1696 N   0  0  0  0  0  0  0  0  0  0  0  0
    4.4508    1.2094   -2.7444 C   0  0  0  0  0  0  0  0  0  0  0  0
    4.1529    2.3681   -2.3161 O   0  0  0  0  0  0  0  0  0  0  0  0
    5.1311    1.2816   -4.0057 O   0  0  0  0  0  0  0  0  0  0  0  0
    5.4529    2.5557   -4.6017 C   0  0  0  0  0  0  0  0  0  0  0  0
    6.4341    3.2162   -3.6749 C   0  0  0  0  0  0  0  0  0  0  0  0
    6.1604    4.3387   -2.9432 C   0  0  0  0  0  0  0  0  0  0  0  0
    7.0918    4.8614   -2.0342 C   0  0  0  0  0  0  0  0  0  0  0  0
    8.3100    4.1966   -1.9036 C   0  0  0  0  0  0  0  0  0  0  0  0
    8.5795    3.0551   -2.6552 C   0  0  0  0  0  0  0  0  0  0  0  0
    7.6565    2.5692   -3.5296 C   0  0  0  0  0  0  0  0  0  0  0  0
    0.9362   -2.1482    2.1061 C   0  0  0  0  0  0  0  0  0  0  0  0
    0.4527   -3.1769    1.5875 O   0  0  0  0  0  0  0  0  0  0  0  0
    0.0851   -1.2474    2.7527 N   0  0  0  0  0  0  0  0  0  0  0  0
   -1.3654   -1.5083    2.8567 C   0  0  1  0  0  0  0  0  0  0  0  0
   -1.9870   -0.7489    3.9320 C   0  0  0  0  0  0  0  0  0  0  0  0
   -1.8836    0.7309    3.9335 C   0  0  0  0  0  0  0  0  0  0  0  0
   -2.4863    1.4752    2.8023 C   0  0  0  0  0  0  0  0  0  0  0  0
   -2.2637    2.8933    3.0665 N   0  0  0  0  0  0  0  0  0  0  0  0
   -2.7634    3.9567    2.2878 C   0  0  0  0  0  0  0  0  0  0  0  0
   -4.1610    4.1963    2.3454 N   0  0  0  0  0  0  0  0  0  0  0  0
   -2.0300    4.7309    1.5355 N   0  0  0  0  0  0  0  0  0  0  0  0
   -1.9875   -1.4510    1.5312 C   0  0  0  0  0  0  0  0  0  0  0  0
   -1.2335   -1.1304    0.5127 O   0  0  0  0  0  0  0  0  0  0  0  0
   -3.3538   -1.7218    1.2568 N   0  0  0  0  0  0  0  0  0  0  0  0
   -3.8098   -1.6718   -0.1104 C   0  0  1  0  0  0  0  0  0  0  0  0
   -4.8659   -2.7046   -0.3798 C   0  0  0  0  0  0  0  0  0  0  0  0
   -4.4491   -4.1249   -0.2272 C   0  0  0  0  0  0  0  0  0  0  0  0
   -3.3526   -4.5419   -1.1630 C   0  0  0  0  0  0  0  0  0  0  0  0
   -5.6738   -4.9874   -0.4943 C   0  0  0  0  0  0  0  0  0  0  0  0
   -4.4366   -0.3274   -0.3811 C   0  0  0  0  0  0  0  0  0  0  0  0
   -4.8655    0.3202    0.5704 O   0  0  0  0  0  0  0  0  0  0  0  0
   -4.5156    0.1512   -1.7143 N   0  0  0  0  0  0  0  0  0  0  0  0
   -5.0923    1.4440   -2.0204 C   0  0  1  0  0  0  0  0  0  0  0  0
   -6.5321    1.4735   -1.6229 C   0  0  0  0  0  0  0  0  0  0  0  0
   -7.2220    2.7472   -1.8764 C   0  0  0  0  0  0  0  0  0  0  0  0
   -7.3468    3.7045   -0.9034 C   0  0  0  0  0  0  0  0  0  0  0  0
   -7.9785    4.8875   -1.1912 C   0  0  0  0  0  0  0  0  0  0  0  0
   -8.4820    5.1178   -2.4413 C   0  0  0  0  0  0  0  0  0  0  0  0
   -8.3590    4.1534   -3.4319 C   0  0  0  0  0  0  0  0  0  0  0  0
   -7.7231    2.9720   -3.1271 C   0  0  0  0  0  0  0  0  0  0  0  0
   -4.2323    2.4918   -1.4756 C   0  0  0  0  0  0  0  0  0  0  0  0
   -4.4704    3.8602   -1.6811 O   0  0  0  0  0  0  0  0  0  0  0  0
   -3.2195    2.1785   -0.7833 O   0  0  0  0  0  0  0  0  0  0  0  0
    5.4413    0.3540    4.6312 H   0  0  0  0  0  0  0  0  0  0  0  0
    3.6272    0.6988    4.7270 H   0  0  0  0  0  0  0  0  0  0  0  0
    4.6682    1.4631    3.3843 H   0  0  0  0  0  0  0  0  0  0  0  0
    4.8428   -0.5563    2.3012 H   0  0  0  0  0  0  0  0  0  0  0  0
    5.0026   -2.6646    3.1546 H   0  0  0  0  0  0  0  0  0  0  0  0
    5.6267   -1.6002    4.4403 H   0  0  0  0  0  0  0  0  0  0  0  0
    3.9759   -2.2397    4.6493 H   0  0  0  0  0  0  0  0  0  0  0  0
    2.2242   -0.8580    3.8556 H   0  0  0  0  0  0  0  0  0  0  0  0
    2.3312    0.2075    2.4679 H   0  0  0  0  0  0  0  0  0  0  0  0
    2.8204   -2.8230    2.6140 H   0  0  0  0  0  0  0  0  0  0  0  0
    3.0431   -3.0418    0.3751 H   0  0  0  0  0  0  0  0  0  0  0  0
    3.0676   -1.6300   -2.1223 H   0  0  0  0  0  0  0  0  0  0  0  0
    5.9714   -1.3235   -1.0399 H   0  0  0  0  0  0  0  0  0  0  0  0
    5.5040   -1.8790   -2.6616 H   0  0  0  0  0  0  0  0  0  0  0  0
    6.3951   -3.0022    0.5866 H   0  0  0  0  0  0  0  0  0  0  0  0
    6.5924   -5.2685    1.2954 H   0  0  0  0  0  0  0  0  0  0  0  0
    5.5916   -7.0759   -0.0912 H   0  0  0  0  0  0  0  0  0  0  0  0
    4.4076   -6.4920   -2.1280 H   0  0  0  0  0  0  0  0  0  0  0  0
    4.1869   -4.1316   -2.8542 H   0  0  0  0  0  0  0  0  0  0  0  0
    3.9117    0.6937   -0.9757 H   0  0  0  0  0  0  0  0  0  0  0  0
    5.9794    2.2997   -5.5496 H   0  0  0  0  0  0  0  0  0  0  0  0
    4.5438    3.1459   -4.7244 H   0  0  0  0  0  0  0  0  0  0  0  0
    5.2059    4.8523   -3.0581 H   0  0  0  0  0  0  0  0  0  0  0  0
    6.8274    5.7386   -1.5026 H   0  0  0  0  0  0  0  0  0  0  0  0
    9.0331    4.5841   -1.1962 H   0  0  0  0  0  0  0  0  0  0  0  0
    9.5285    2.5672   -2.5732 H   0  0  0  0  0  0  0  0  0  0  0  0
    7.8558    1.6444   -4.1216 H   0  0  0  0  0  0  0  0  0  0  0  0
    0.4418   -0.3795    3.1851 H   0  0  0  0  0  0  0  0  0  0  0  0
   -1.3638   -2.6551    3.0908 H   0  0  0  0  0  0  0  0  0  0  0  0
   -3.0820   -1.0318    4.1055 H   0  0  0  0  0  0  0  0  0  0  0  0
   -1.5113   -1.0923    4.9054 H   0  0  0  0  0  0  0  0  0  0  0  0
   -0.8122    1.0772    4.0117 H   0  0  0  0  0  0  0  0  0  0  0  0
   -2.3556    1.1849    4.8665 H   0  0  0  0  0  0  0  0  0  0  0  0
   -2.1514    1.2008    1.7953 H   0  0  0  0  0  0  0  0  0  0  0  0
   -3.5903    1.3460    2.8568 H   0  0  0  0  0  0  0  0  0  0  0  0
   -1.6762    3.1971    3.9093 H   0  0  0  0  0  0  0  0  0  0  0  0
   -4.5148    4.9583    2.9383 H   0  0  0  0  0  0  0  0  0  0  0  0
   -4.7939    3.5878    1.7955 H   0  0  0  0  0  0  0  0  0  0  0  0
   -2.5240    5.4894    0.9986 H   0  0  0  0  0  0  0  0  0  0  0  0
   -4.0287   -1.9626    2.0044 H   0  0  0  0  0  0  0  0  0  0  0  0
   -2.9318   -1.7179   -0.8065 H   0  0  0  0  0  0  0  0  0  0  0  0
   -5.2846   -2.5554   -1.4143 H   0  0  0  0  0  0  0  0  0  0  0  0
   -5.6792   -2.5230    0.3683 H   0  0  0  0  0  0  0  0  0  0  0  0
   -4.1376   -4.3443    0.8271 H   0  0  0  0  0  0  0  0  0  0  0  0
   -3.8288   -5.1187   -1.9989 H   0  0  0  0  0  0  0  0  0  0  0  0
   -2.6202   -5.1724   -0.6689 H   0  0  0  0  0  0  0  0  0  0  0  0
   -2.9066   -3.6146   -1.6130 H   0  0  0  0  0  0  0  0  0  0  0  0
   -6.6150   -4.3688   -0.4418 H   0  0  0  0  0  0  0  0  0  0  0  0
   -5.6210   -5.4894   -1.4715 H   0  0  0  0  0  0  0  0  0  0  0  0
   -5.8046   -5.7699    0.2941 H   0  0  0  0  0  0  0  0  0  0  0  0
   -4.1461   -0.4207   -2.5159 H   0  0  0  0  0  0  0  0  0  0  0  0
   -5.1005    1.5489   -3.1621 H   0  0  0  0  0  0  0  0  0  0  0  0
   -6.7059    1.2251   -0.5545 H   0  0  0  0  0  0  0  0  0  0  0  0
   -7.0239    0.6088   -2.1791 H   0  0  0  0  0  0  0  0  0  0  0  0
   -6.9521    3.5648    0.1197 H   0  0  0  0  0  0  0  0  0  0  0  0
   -8.0849    5.6404   -0.4074 H   0  0  0  0  0  0  0  0  0  0  0  0
   -9.0057    6.0552   -2.6965 H   0  0  0  0  0  0  0  0  0  0  0  0
   -8.7501    4.3260   -4.4115 H   0  0  0  0  0  0  0  0  0  0  0  0
   -7.6342    2.2172   -3.9228 H   0  0  0  0  0  0  0  0  0  0  0  0
   -3.7714    4.3663   -2.2407 H   0  0  0  0  0  0  0  0  0  0  0  0
  1  2  1  0
  2  3  1  0
  2  4  1  0
  4  5  1  0
  5  6  1  0
  6  7  1  0
  7  8  2  0
  7  9  1  0
  9 10  1  0
 10 11  1  0
 11 12  2  0
 12 13  1  0
 13 14  2  0
 14 15  1  0
 15 16  2  0
  9 17  1  0
 17 18  1  0
 18 19  2  0
 18 20  1  0
 20 21  1  0
 21 22  1  0
 22 23  2  0
 23 24  1  0
 24 25  2  0
 25 26  1  0
 26 27  2  0
  5 28  1  0
 28 29  2  0
 28 30  1  0
 30 31  1  0
 31 32  1  0
 32 33  1  0
 33 34  1  0
 34 35  1  0
 35 36  1  0
 36 37  1  0
 36 38  2  3
 31 39  1  0
 39 40  2  0
 39 41  1  0
 41 42  1  0
 42 43  1  0
 43 44  1  0
 44 45  1  0
 44 46  1  0
 42 47  1  0
 47 48  2  0
 47 49  1  0
 49 50  1  0
 50 51  1  0
 51 52  1  0
 52 53  2  0
 53 54  1  0
 54 55  2  0
 55 56  1  0
 56 57  2  0
 50 58  1  0
 58 59  1  0
 58 60  2  0
 16 11  1  0
 27 22  1  0
 57 52  1  0
  1 61  1  0
  1 62  1  0
  1 63  1  0
  2 64  1  0
  3 65  1  0
  3 66  1  0
  3 67  1  0
  4 68  1  0
  4 69  1  0
  5 70  1  1
  6 71  1  0
  9 72  1  6
 10 73  1  0
 10 74  1  0
 12 75  1  0
 13 76  1  0
 14 77  1  0
 15 78  1  0
 16 79  1  0
 17 80  1  0
 21 81  1  0
 21 82  1  0
 23 83  1  0
 24 84  1  0
 25 85  1  0
 26 86  1  0
 27 87  1  0
 30 88  1  0
 31 89  1  1
 32 90  1  0
 32 91  1  0
 33 92  1  0
 33 93  1  0
 34 94  1  0
 34 95  1  0
 35 96  1  0
 37 97  1  0
 37 98  1  0
 38 99  1  0
 41100  1  0
 42101  1  6
 43102  1  0
 43103  1  0
 44104  1  0
 45105  1  0
 45106  1  0
 45107  1  0
 46108  1  0
 46109  1  0
 46110  1  0
 49111  1  0
 50112  1  6
 51113  1  0
 51114  1  0
 53115  1  0
 54116  1  0
 55117  1  0
 56118  1  0
 57119  1  0
 59120  1  0
M  END
$$$$
[H]c1c([H])c([H])c(C([H])([H])[C@@]([H])(C(=O)N([H])[C@]([H])(C(=O)N([H])[C@]([H])(C(=O)N([H])[C@]([H])(C(=O)N([H])[C@]([H])(C(=O)N([H])[C@]([H])(C(=O)N([H])[H])C([H])([H])C([H])(C([H])([H])[H])C([H])([H])[H])C([H])([H])c2c([H])c([H])c([H])c([H])c2[H])C([H])([H])c2c([H])c([H])c([H])c([H])c2[H])C([H])([H])c2c([H])c([H])c([H])c([H])c2[H])C([H])([H])C([H])(C([H])([H])[H])C([H])([H])[H])N([H])[H])c([H])c1[H]
     RDKit          3D

122125  0  0  0  0  0  0  0  0999 V2000
  -11.3776    1.3436    0.5532 C   0  0  0  0  0  0  0  0  0  0  0  0
  -10.0880    2.1510    0.6995 C   0  0  0  0  0  0  0  0  0  0  0  0
  -10.1334    2.6329    2.1902 C   0  0  0  0  0  0  0  0  0  0  0  0
   -8.8763    1.2833    0.6466 C   0  0  0  0  0  0  0  0  0  0  0  0
   -8.6456    0.4644   -0.5564 C   0  0  2  0  0  0  0  0  0  0  0  0
   -7.4473   -0.3086   -0.3735 N   0  0  0  0  0  0  0  0  0  0  0  0
   -6.1176    0.1249   -0.3043 C   0  0  0  0  0  0  0  0  0  0  0  0
   -5.9180    1.3829   -0.4264 O   0  0  0  0  0  0  0  0  0  0  0  0
   -4.9587   -0.7534   -0.1067 C   0  0  2  0  0  0  0  0  0  0  0  0
   -4.8530   -1.3216    1.3106 C   0  0  0  0  0  0  0  0  0  0  0  0
   -5.9957   -2.0883    1.7985 C   0  0  0  0  0  0  0  0  0  0  0  0
   -6.2023   -3.4216    1.5037 C   0  0  0  0  0  0  0  0  0  0  0  0
   -7.2722   -4.1613    2.0238 C   0  0  0  0  0  0  0  0  0  0  0  0
   -8.1685   -3.5504    2.8654 C   0  0  0  0  0  0  0  0  0  0  0  0
   -7.9914   -2.2342    3.1753 C   0  0  0  0  0  0  0  0  0  0  0  0
   -6.9408   -1.5148    2.6645 C   0  0  0  0  0  0  0  0  0  0  0  0
   -3.7537    0.0550   -0.3075 N   0  0  0  0  0  0  0  0  0  0  0  0
   -2.5632   -0.2664   -0.9283 C   0  0  0  0  0  0  0  0  0  0  0  0
   -2.3263   -1.3586   -1.4385 O   0  0  0  0  0  0  0  0  0  0  0  0
   -1.5000    0.8103   -0.9598 C   0  0  2  0  0  0  0  0  0  0  0  0
   -1.9436    1.9106   -1.9188 C   0  0  0  0  0  0  0  0  0  0  0  0
   -2.1004    1.4168   -3.2993 C   0  0  0  0  0  0  0  0  0  0  0  0
   -1.0671    1.4977   -4.2145 C   0  0  0  0  0  0  0  0  0  0  0  0
   -1.1490    1.0156   -5.4943 C   0  0  0  0  0  0  0  0  0  0  0  0
   -2.3175    0.4168   -5.9060 C   0  0  0  0  0  0  0  0  0  0  0  0
   -3.3724    0.3163   -5.0298 C   0  0  0  0  0  0  0  0  0  0  0  0
   -3.2493    0.8229   -3.7251 C   0  0  0  0  0  0  0  0  0  0  0  0
   -0.1936    0.3606   -1.2635 N   0  0  0  0  0  0  0  0  0  0  0  0
    0.8480    0.0063   -0.3731 C   0  0  0  0  0  0  0  0  0  0  0  0
    0.5759    0.0958    0.8510 O   0  0  0  0  0  0  0  0  0  0  0  0
    2.1892   -0.4369   -0.8474 C   0  0  2  0  0  0  0  0  0  0  0  0
    2.2253   -1.9317   -1.1623 C   0  0  0  0  0  0  0  0  0  0  0  0
    1.8928   -2.7287    0.0185 C   0  0  0  0  0  0  0  0  0  0  0  0
    0.6120   -3.1559    0.2871 C   0  0  0  0  0  0  0  0  0  0  0  0
    0.3112   -3.8554    1.4411 C   0  0  0  0  0  0  0  0  0  0  0  0
    1.2996   -4.1500    2.3746 C   0  0  0  0  0  0  0  0  0  0  0  0
    2.5665   -3.7317    2.1133 C   0  0  0  0  0  0  0  0  0  0  0  0
    2.8514   -3.0293    0.9429 C   0  0  0  0  0  0  0  0  0  0  0  0
    3.2922    0.0367   -0.1812 N   0  0  0  0  0  0  0  0  0  0  0  0
    4.3148    0.5403    0.5880 C   0  0  0  0  0  0  0  0  0  0  0  0
    4.2246    0.9944    1.7569 O   0  0  0  0  0  0  0  0  0  0  0  0
    5.7391    0.5968    0.0482 C   0  0  2  0  0  0  0  0  0  0  0  0
    6.1430   -0.7635   -0.4212 C   0  0  0  0  0  0  0  0  0  0  0  0
    7.5463   -0.7554   -1.0029 C   0  0  0  0  0  0  0  0  0  0  0  0
    7.9775   -2.1157   -1.4819 C   0  0  0  0  0  0  0  0  0  0  0  0
    7.6246    0.2109   -2.1718 C   0  0  0  0  0  0  0  0  0  0  0  0
    6.5678    1.0828    1.1085 N   0  0  0  0  0  0  0  0  0  0  0  0
    7.3116    2.2839    1.1385 C   0  0  0  0  0  0  0  0  0  0  0  0
    7.2727    3.0338    0.1334 O   0  0  0  0  0  0  0  0  0  0  0  0
    8.1053    2.6264    2.3365 C   0  0  1  0  0  0  0  0  0  0  0  0
    7.9779    1.5783    3.3371 N   0  0  0  0  0  0  0  0  0  0  0  0
    9.5025    3.0576    2.1101 C   0  0  0  0  0  0  0  0  0  0  0  0
   10.3970    2.1143    1.4494 C   0  0  0  0  0  0  0  0  0  0  0  0
   11.1107    1.1805    2.1631 C   0  0  0  0  0  0  0  0  0  0  0  0
   11.9825    0.3180    1.5109 C   0  0  0  0  0  0  0  0  0  0  0  0
   12.1533    0.3781    0.1419 C   0  0  0  0  0  0  0  0  0  0  0  0
   11.4306    1.3241   -0.5861 C   0  0  0  0  0  0  0  0  0  0  0  0
   10.5781    2.1598    0.0899 C   0  0  0  0  0  0  0  0  0  0  0  0
   -8.5866    1.2740   -1.7905 C   0  0  0  0  0  0  0  0  0  0  0  0
   -9.6323    2.1546   -2.1886 N   0  0  0  0  0  0  0  0  0  0  0  0
   -7.6025    1.2530   -2.5983 O   0  0  0  0  0  0  0  0  0  0  0  0
  -11.9829    1.3119    1.4768 H   0  0  0  0  0  0  0  0  0  0  0  0
  -11.1849    0.3259    0.1801 H   0  0  0  0  0  0  0  0  0  0  0  0
  -12.0290    1.8389   -0.2248 H   0  0  0  0  0  0  0  0  0  0  0  0
  -10.0521    3.0466    0.0635 H   0  0  0  0  0  0  0  0  0  0  0  0
  -11.0089    3.2857    2.3305 H   0  0  0  0  0  0  0  0  0  0  0  0
  -10.1791    1.6992    2.7951 H   0  0  0  0  0  0  0  0  0  0  0  0
   -9.1530    3.0968    2.3758 H   0  0  0  0  0  0  0  0  0  0  0  0
   -7.9838    1.9507    0.7855 H   0  0  0  0  0  0  0  0  0  0  0  0
   -8.9079    0.6117    1.5387 H   0  0  0  0  0  0  0  0  0  0  0  0
   -9.5241   -0.2411   -0.7594 H   0  0  0  0  0  0  0  0  0  0  0  0
   -7.6011   -1.3571   -0.2991 H   0  0  0  0  0  0  0  0  0  0  0  0
   -4.9476   -1.5767   -0.8035 H   0  0  0  0  0  0  0  0  0  0  0  0
   -4.6996   -0.4386    1.9678 H   0  0  0  0  0  0  0  0  0  0  0  0
   -3.8944   -1.9031    1.3978 H   0  0  0  0  0  0  0  0  0  0  0  0
   -5.5539   -3.9560    0.8540 H   0  0  0  0  0  0  0  0  0  0  0  0
   -7.3870   -5.2022    1.7594 H   0  0  0  0  0  0  0  0  0  0  0  0
   -8.9870   -4.1358    3.2583 H   0  0  0  0  0  0  0  0  0  0  0  0
   -8.7232   -1.7873    3.8551 H   0  0  0  0  0  0  0  0  0  0  0  0
   -6.8069   -0.4659    2.9173 H   0  0  0  0  0  0  0  0  0  0  0  0
   -3.8479    1.0353    0.1105 H   0  0  0  0  0  0  0  0  0  0  0  0
   -1.5114    1.2170    0.0632 H   0  0  0  0  0  0  0  0  0  0  0  0
   -2.8715    2.3428   -1.5229 H   0  0  0  0  0  0  0  0  0  0  0  0
   -1.1453    2.6748   -1.9190 H   0  0  0  0  0  0  0  0  0  0  0  0
   -0.1380    1.9668   -3.9287 H   0  0  0  0  0  0  0  0  0  0  0  0
   -0.2921    1.1044   -6.1680 H   0  0  0  0  0  0  0  0  0  0  0  0
   -2.3848    0.0287   -6.9329 H   0  0  0  0  0  0  0  0  0  0  0  0
   -4.2790   -0.1554   -5.3723 H   0  0  0  0  0  0  0  0  0  0  0  0
   -4.1319    0.7048   -3.1204 H   0  0  0  0  0  0  0  0  0  0  0  0
    0.1029    0.2504   -2.2948 H   0  0  0  0  0  0  0  0  0  0  0  0
    2.2086    0.0698   -1.8993 H   0  0  0  0  0  0  0  0  0  0  0  0
    1.4759   -2.0715   -1.9701 H   0  0  0  0  0  0  0  0  0  0  0  0
    3.1950   -2.1557   -1.5931 H   0  0  0  0  0  0  0  0  0  0  0  0
   -0.1732   -2.9375   -0.4253 H   0  0  0  0  0  0  0  0  0  0  0  0
   -0.6831   -4.1977    1.6618 H   0  0  0  0  0  0  0  0  0  0  0  0
    1.0178   -4.7001    3.2817 H   0  0  0  0  0  0  0  0  0  0  0  0
    3.3404   -3.9514    2.8276 H   0  0  0  0  0  0  0  0  0  0  0  0
    3.8537   -2.7276    0.7884 H   0  0  0  0  0  0  0  0  0  0  0  0
    2.5007    0.1497    0.9540 H   0  0  0  0  0  0  0  0  0  0  0  0
    5.7115    1.3515   -0.7572 H   0  0  0  0  0  0  0  0  0  0  0  0
    5.4716   -1.0719   -1.2614 H   0  0  0  0  0  0  0  0  0  0  0  0
    6.0815   -1.5488    0.3473 H   0  0  0  0  0  0  0  0  0  0  0  0
    8.2636   -0.3967   -0.2495 H   0  0  0  0  0  0  0  0  0  0  0  0
    8.7658   -2.4950   -0.8235 H   0  0  0  0  0  0  0  0  0  0  0  0
    7.1102   -2.8256   -1.3512 H   0  0  0  0  0  0  0  0  0  0  0  0
    8.2813   -2.0872   -2.5521 H   0  0  0  0  0  0  0  0  0  0  0  0
    8.2025    1.1177   -1.9470 H   0  0  0  0  0  0  0  0  0  0  0  0
    6.5794    0.4315   -2.4848 H   0  0  0  0  0  0  0  0  0  0  0  0
    8.1031   -0.3122   -3.0127 H   0  0  0  0  0  0  0  0  0  0  0  0
    6.6224    0.4605    1.9757 H   0  0  0  0  0  0  0  0  0  0  0  0
    7.5659    3.5119    2.7957 H   0  0  0  0  0  0  0  0  0  0  0  0
    8.7878    1.6929    3.9709 H   0  0  0  0  0  0  0  0  0  0  0  0
    7.0784    1.6871    3.8122 H   0  0  0  0  0  0  0  0  0  0  0  0
    9.9489    3.2261    3.1430 H   0  0  0  0  0  0  0  0  0  0  0  0
    9.5261    4.0935    1.6680 H   0  0  0  0  0  0  0  0  0  0  0  0
   10.9908    1.1236    3.2425 H   0  0  0  0  0  0  0  0  0  0  0  0
   12.5101   -0.3949    2.1134 H   0  0  0  0  0  0  0  0  0  0  0  0
   12.8243   -0.2808   -0.3819 H   0  0  0  0  0  0  0  0  0  0  0  0
   11.5756    1.3567   -1.6570 H   0  0  0  0  0  0  0  0  0  0  0  0
   10.0498    2.8802   -0.5456 H   0  0  0  0  0  0  0  0  0  0  0  0
   -9.3662    3.1796   -2.2162 H   0  0  0  0  0  0  0  0  0  0  0  0
  -10.5944    1.8768   -2.4433 H   0  0  0  0  0  0  0  0  0  0  0  0
  1  2  1  0
  2  3  1  0
  2  4  1  0
  4  5  1  0
  5  6  1  0
  6  7  1  0
  7  8  2  0
  7  9  1  0
  9 10  1  0
 10 11  1  0
 11 12  2  0
 12 13  1  0
 13 14  2  0
 14 15  1  0
 15 16  2  0
  9 17  1  0
 17 18  1  0
 18 19  2  0
 18 20  1  0
 20 21  1  0
 21 22  1  0
 22 23  2  0
 23 24  1  0
 24 25  2  0
 25 26  1  0
 26 27  2  0
 20 28  1  0
 28 29  1  0
 29 30  2  0
 29 31  1  0
 31 32  1  0
 32 33  1  0
 33 34  2  0
 34 35  1  0
 35 36  2  0
 36 37  1  0
 37 38  2  0
 31 39  1  0
 39 40  1  0
 40 41  2  0
 40 42  1  0
 42 43  1  0
 43 44  1  0
 44 45  1  0
 44 46  1  0
 42 47  1  0
 47 48  1  0
 48 49  2  0
 48 50  1  0
 50 51  1  0
 50 52  1  0
 52 53  1  0
 53 54  2  0
 54 55  1  0
 55 56  2  0
 56 57  1  0
 57 58  2  0
  5 59  1  0
 59 60  1  0
 59 61  2  0
 16 11  1  0
 27 22  1  0
 38 33  1  0
 58 53  1  0
  1 62  1  0
  1 63  1  0
  1 64  1  0
  2 65  1  0
  3 66  1  0
  3 67  1  0
  3 68  1  0
  4 69  1  0
  4 70  1  0
  5 71  1  6
  6 72  1  0
  9 73  1  6
 10 74  1  0
 10 75  1  0
 12 76  1  0
 13 77  1  0
 14 78  1  0
 15 79  1  0
 16 80  1  0
 17 81  1  0
 20 82  1  1
 21 83  1  0
 21 84  1  0
 23 85  1  0
 24 86  1  0
 25 87  1  0
 26 88  1  0
 27 89  1  0
 28 90  1  0
 31 91  1  6
 32 92  1  0
 32 93  1  0
 34 94  1  0
 35 95  1  0
 36 96  1  0
 37 97  1  0
 38 98  1  0
 39 99  1  0
 42100  1  6
 43101  1  0
 43102  1  0
 44103  1  0
 45104  1  0
 45105  1  0
 45106  1  0
 46107  1  0
 46108  1  0
 46109  1  0
 47110  1  0
 50111  1  1
 51112  1  0
 51113  1  0
 52114  1  0
 52115  1  0
 54116  1  0
 55117  1  0
 56118  1  0
 57119  1  0
 58120  1  0
 60121  1  0
 60122  1  0
M  END
$$$$
[H]c1nc2c([H])c(OC([H])([H])C([H])([H])C([H])([H])N3C([H])([H])C([H])([H])C([H])([H])C([H])([H])C3([H])[H])c(OC([H])([H])[H])c([H])c2c(Oc2c([H])c([H])c(N([H])C(=O)c3nn(C([H])([H])[H])c(=O)c4c([H])c([H])c([H])c([H])c4c3=O)c([H])c2F)c1[H]
     RDKit          3D

 81 86  0  0  0  0  0  0  0  0999 V2000
   -2.3761    2.3766   -2.8073 C   0  0  0  0  0  0  0  0  0  0  0  0
   -3.3393    1.9225   -1.8970 O   0  0  0  0  0  0  0  0  0  0  0  0
   -2.9876    1.2980   -0.7324 C   0  0  0  0  0  0  0  0  0  0  0  0
   -1.6857    1.0808   -0.3372 C   0  0  0  0  0  0  0  0  0  0  0  0
   -1.3464    0.4496    0.8509 C   0  0  0  0  0  0  0  0  0  0  0  0
    0.0235    0.3068    1.1539 C   0  0  0  0  0  0  0  0  0  0  0  0
    0.8739    0.7788    0.2618 O   0  0  0  0  0  0  0  0  0  0  0  0
    2.1497    0.9944    0.0529 C   0  0  0  0  0  0  0  0  0  0  0  0
    2.8284    0.3866   -0.9758 C   0  0  0  0  0  0  0  0  0  0  0  0
    4.1536    0.6115   -1.2141 C   0  0  0  0  0  0  0  0  0  0  0  0
    4.8786    1.4910   -0.3948 C   0  0  0  0  0  0  0  0  0  0  0  0
    6.1873    1.7530   -0.6324 N   0  0  0  0  0  0  0  0  0  0  0  0
    7.4785    2.0146   -0.8674 C   0  0  0  0  0  0  0  0  0  0  0  0
    7.9856    3.1814   -1.1432 O   0  0  0  0  0  0  0  0  0  0  0  0
    8.5418    0.9656   -0.8394 C   0  0  0  0  0  0  0  0  0  0  0  0
    9.7457    1.3422   -1.3678 N   0  0  0  0  0  0  0  0  0  0  0  0
   10.7436    0.6267   -1.8694 N   0  0  0  0  0  0  0  0  0  0  0  0
   11.6388    1.3095   -2.7913 C   0  0  0  0  0  0  0  0  0  0  0  0
   11.0025   -0.6612   -1.6138 C   0  0  0  0  0  0  0  0  0  0  0  0
   11.9249   -1.1728   -2.3075 O   0  0  0  0  0  0  0  0  0  0  0  0
   10.4062   -1.5235   -0.6938 C   0  0  0  0  0  0  0  0  0  0  0  0
   11.1897   -2.6243   -0.4380 C   0  0  0  0  0  0  0  0  0  0  0  0
   10.6897   -3.5691    0.4677 C   0  0  0  0  0  0  0  0  0  0  0  0
    9.4677   -3.3852    1.0635 C   0  0  0  0  0  0  0  0  0  0  0  0
    8.7197   -2.2530    0.7662 C   0  0  0  0  0  0  0  0  0  0  0  0
    9.1688   -1.3103   -0.1081 C   0  0  0  0  0  0  0  0  0  0  0  0
    8.3030   -0.2369   -0.2625 C   0  0  0  0  0  0  0  0  0  0  0  0
    7.1703   -0.4399    0.2030 O   0  0  0  0  0  0  0  0  0  0  0  0
    4.1799    2.1045    0.6573 C   0  0  0  0  0  0  0  0  0  0  0  0
    2.8611    1.8721    0.8836 C   0  0  0  0  0  0  0  0  0  0  0  0
    2.1566    2.4501    1.8863 F   0  0  0  0  0  0  0  0  0  0  0  0
    0.3050   -0.3056    2.3543 C   0  0  0  0  0  0  0  0  0  0  0  0
   -0.7313   -0.7357    3.1752 C   0  0  0  0  0  0  0  0  0  0  0  0
   -2.0293   -0.5863    2.8611 N   0  0  0  0  0  0  0  0  0  0  0  0
   -2.3266    0.0089    1.6936 C   0  0  0  0  0  0  0  0  0  0  0  0
   -3.6506    0.2264    1.2963 C   0  0  0  0  0  0  0  0  0  0  0  0
   -4.0087    0.8470    0.1257 C   0  0  0  0  0  0  0  0  0  0  0  0
   -5.3268    1.0445   -0.2451 O   0  0  0  0  0  0  0  0  0  0  0  0
   -6.4701    0.6743    0.4561 C   0  0  0  0  0  0  0  0  0  0  0  0
   -7.7166    1.0299   -0.3399 C   0  0  0  0  0  0  0  0  0  0  0  0
   -8.9626    0.6190    0.3637 C   0  0  0  0  0  0  0  0  0  0  0  0
   -9.0433   -0.7812    0.6261 N   0  0  0  0  0  0  0  0  0  0  0  0
   -9.1859   -1.5505   -0.5656 C   0  0  0  0  0  0  0  0  0  0  0  0
  -10.5293   -1.3663   -1.2344 C   0  0  0  0  0  0  0  0  0  0  0  0
  -11.6206   -1.6082   -0.2427 C   0  0  0  0  0  0  0  0  0  0  0  0
  -11.1421   -1.9600    1.1361 C   0  0  0  0  0  0  0  0  0  0  0  0
  -10.0228   -1.0821    1.6330 C   0  0  0  0  0  0  0  0  0  0  0  0
   -1.6520    1.5511   -2.9308 H   0  0  0  0  0  0  0  0  0  0  0  0
   -1.8623    3.2878   -2.4004 H   0  0  0  0  0  0  0  0  0  0  0  0
   -2.8032    2.6706   -3.7635 H   0  0  0  0  0  0  0  0  0  0  0  0
   -0.8680    1.4215   -0.9922 H   0  0  0  0  0  0  0  0  0  0  0  0
    2.2897   -0.3112   -1.6309 H   0  0  0  0  0  0  0  0  0  0  0  0
    4.7177    0.1503   -2.0137 H   0  0  0  0  0  0  0  0  0  0  0  0
    5.8609    3.0439   -0.9763 H   0  0  0  0  0  0  0  0  0  0  0  0
   11.1375    1.4727   -3.7564 H   0  0  0  0  0  0  0  0  0  0  0  0
   12.0029    2.2030   -2.2862 H   0  0  0  0  0  0  0  0  0  0  0  0
   12.5223    0.6523   -3.0135 H   0  0  0  0  0  0  0  0  0  0  0  0
   12.1466   -2.7388   -0.9234 H   0  0  0  0  0  0  0  0  0  0  0  0
   11.3042   -4.4345    0.6789 H   0  0  0  0  0  0  0  0  0  0  0  0
    9.0883   -4.1142    1.7586 H   0  0  0  0  0  0  0  0  0  0  0  0
    7.7538   -2.1301    1.2433 H   0  0  0  0  0  0  0  0  0  0  0  0
    4.7367    2.7840    1.2937 H   0  0  0  0  0  0  0  0  0  0  0  0
    1.3531   -0.4292    2.6190 H   0  0  0  0  0  0  0  0  0  0  0  0
   -0.4133   -1.2082    4.0992 H   0  0  0  0  0  0  0  0  0  0  0  0
   -4.4144   -0.1142    1.9639 H   0  0  0  0  0  0  0  0  0  0  0  0
   -6.4619   -0.3603    0.7919 H   0  0  0  0  0  0  0  0  0  0  0  0
   -6.5142    1.3083    1.3776 H   0  0  0  0  0  0  0  0  0  0  0  0
   -7.6143    0.6013   -1.3370 H   0  0  0  0  0  0  0  0  0  0  0  0
   -7.7398    2.1431   -0.4511 H   0  0  0  0  0  0  0  0  0  0  0  0
   -9.0907    1.1807    1.3210 H   0  0  0  0  0  0  0  0  0  0  0  0
   -9.8215    0.9695   -0.2772 H   0  0  0  0  0  0  0  0  0  0  0  0
   -9.0152   -2.6300   -0.3685 H   0  0  0  0  0  0  0  0  0  0  0  0
   -8.4192   -1.2335   -1.2961 H   0  0  0  0  0  0  0  0  0  0  0  0
  -10.5641   -2.0576   -2.0978 H   0  0  0  0  0  0  0  0  0  0  0  0
  -10.6025   -0.3407   -1.6552 H   0  0  0  0  0  0  0  0  0  0  0  0
  -12.1957   -2.5058   -0.6200 H   0  0  0  0  0  0  0  0  0  0  0  0
  -12.3152   -0.7654   -0.2606 H   0  0  0  0  0  0  0  0  0  0  0  0
  -10.8854   -3.0425    1.2507 H   0  0  0  0  0  0  0  0  0  0  0  0
  -12.0072   -1.7744    1.8272 H   0  0  0  0  0  0  0  0  0  0  0  0
  -10.4366   -0.1891    2.1412 H   0  0  0  0  0  0  0  0  0  0  0  0
   -9.4895   -1.6747    2.4141 H   0  0  0  0  0  0  0  0  0  0  0  0
  1  2  1  0
  2  3  1  0
  3  4  2  0
  4  5  1  0
  5  6  2  0
  6  7  1  0
  7  8  1  0
  8  9  2  0
  9 10  1  0
 10 11  2  0
 11 12  1  0
 12 13  1  0
 13 14  2  0
 13 15  1  0
 15 16  2  0
 16 17  1  0
 17 18  1  0
 17 19  1  0
 19 20  2  0
 19 21  1  0
 21 22  2  0
 22 23  1  0
 23 24  2  0
 24 25  1  0
 25 26  2  0
 26 27  1  0
 27 28  2  0
 11 29  1  0
 29 30  2  0
 30 31  1  0
  6 32  1  0
 32 33  2  0
 33 34  1  0
 34 35  2  0
 35 36  1  0
 36 37  2  0
 37 38  1  0
 38 39  1  0
 39 40  1  0
 40 41  1  0
 41 42  1  0
 42 43  1  0
 43 44  1  0
 44 45  1  0
 45 46  1  0
 46 47  1  0
 37  3  1  0
 47 42  1  0
 35  5  1  0
 30  8  1  0
 27 15  1  0
 26 21  1  0
  1 48  1  0
  1 49  1  0
  1 50  1  0
  4 51  1  0
  9 52  1  0
 10 53  1  0
 12 54  1  0
 18 55  1  0
 18 56  1  0
 18 57  1  0
 22 58  1  0
 23 59  1  0
 24 60  1  0
 25 61  1  0
 29 62  1  0
 32 63  1  0
 33 64  1  0
 36 65  1  0
 39 66  1  0
 39 67  1  0
 40 68  1  0
 40 69  1  0
 41 70  1  0
 41 71  1  0
 43 72  1  0
 43 73  1  0
 44 74  1  0
 44 75  1  0
 45 76  1  0
 45 77  1  0
 46 78  1  0
 46 79  1  0
 47 80  1  0
 47 81  1  0
M  END
$$$$
[H]c1c([H])c([H])c(C([H])([H])[C@]([H])(C(=O)N2C([H])([H])C([H])([H])C([H])([H])[C@@]2([H])C(=O)N([H])[C@]([H])(C(=O)N([H])[C@]([H])(C(=O)C(=O)N([H])[H])C([H])([H])C([H])([H])C([H])([H])N=C(N([H])[H])N([H])[H])C([H])([H])[H])N([H])C(=O)[C@@]([H])(N([H])[H])C([H])([H])C([H])([H])C([H])([H])N=C(N([H])[H])N([H])[H])c([H])c1[H]
     RDKit          3D

 96 97  0  0  0  0  0  0  0  0999 V2000
    2.0839    1.6280    0.9689 C   0  0  0  0  0  0  0  0  0  0  0  0
    2.4261    0.4410    0.0408 C   0  0  2  0  0  0  0  0  0  0  0  0
    1.8018   -0.7202    0.6111 N   0  0  0  0  0  0  0  0  0  0  0  0
    0.6447   -1.2925    0.0127 C   0  0  0  0  0  0  0  0  0  0  0  0
    0.1837   -0.7562   -1.0156 O   0  0  0  0  0  0  0  0  0  0  0  0
    0.0144   -2.5109    0.6251 C   0  0  2  0  0  0  0  0  0  0  0  0
    0.9779   -3.6465    0.3113 C   0  0  0  0  0  0  0  0  0  0  0  0
    0.5562   -4.0957   -1.0813 C   0  0  0  0  0  0  0  0  0  0  0  0
   -0.9458   -3.8958   -0.9996 C   0  0  0  0  0  0  0  0  0  0  0  0
   -1.2269   -2.8263   -0.0879 N   0  0  0  0  0  0  0  0  0  0  0  0
   -2.4771   -2.1852    0.0944 C   0  0  0  0  0  0  0  0  0  0  0  0
   -2.4616   -1.2611    1.0025 O   0  0  0  0  0  0  0  0  0  0  0  0
   -3.7354   -2.4585   -0.6271 C   0  0  1  0  0  0  0  0  0  0  0  0
   -4.2460   -3.8632   -0.5406 C   0  0  0  0  0  0  0  0  0  0  0  0
   -4.5408   -4.3355    0.8286 C   0  0  0  0  0  0  0  0  0  0  0  0
   -5.8328   -4.1558    1.3303 C   0  0  0  0  0  0  0  0  0  0  0  0
   -6.1612   -4.5809    2.6086 C   0  0  0  0  0  0  0  0  0  0  0  0
   -5.2479   -5.1881    3.4270 C   0  0  0  0  0  0  0  0  0  0  0  0
   -3.9644   -5.3764    2.9518 C   0  0  0  0  0  0  0  0  0  0  0  0
   -3.6407   -4.9452    1.6626 C   0  0  0  0  0  0  0  0  0  0  0  0
   -4.7484   -1.5060   -0.1722 N   0  0  0  0  0  0  0  0  0  0  0  0
   -5.2242   -0.4079   -0.8927 C   0  0  0  0  0  0  0  0  0  0  0  0
   -4.7417   -0.2042   -2.0463 O   0  0  0  0  0  0  0  0  0  0  0  0
   -6.2396    0.5368   -0.4291 C   0  0  1  0  0  0  0  0  0  0  0  0
   -6.7117    0.1100    0.8756 N   0  0  0  0  0  0  0  0  0  0  0  0
   -5.7314    1.9725   -0.3207 C   0  0  0  0  0  0  0  0  0  0  0  0
   -6.8961    2.7990    0.1805 C   0  0  0  0  0  0  0  0  0  0  0  0
   -6.5273    4.2584    0.3351 C   0  0  0  0  0  0  0  0  0  0  0  0
   -7.7067    4.9336    0.8252 N   0  0  0  0  0  0  0  0  0  0  0  0
   -8.6099    5.4906    0.0985 C   0  0  0  0  0  0  0  0  0  0  0  0
   -8.5554    5.5118   -1.3461 N   0  0  0  0  0  0  0  0  0  0  0  0
   -9.7383    6.1333    0.6686 N   0  0  0  0  0  0  0  0  0  0  0  0
    3.8988    0.2575    0.0030 C   0  0  0  0  0  0  0  0  0  0  0  0
    4.4382   -0.7698    0.4714 O   0  0  0  0  0  0  0  0  0  0  0  0
    4.7176    1.2361   -0.5611 N   0  0  0  0  0  0  0  0  0  0  0  0
    6.2546    1.0332   -0.5833 C   0  0  1  0  0  0  0  0  0  0  0  0
    6.6054    0.6317   -1.9120 C   0  0  0  0  0  0  0  0  0  0  0  0
    7.8140    0.0939   -2.4624 C   0  0  0  0  0  0  0  0  0  0  0  0
    9.1930    0.5455   -2.4639 C   0  0  0  0  0  0  0  0  0  0  0  0
    9.8361    0.5293   -1.1983 N   0  0  0  0  0  0  0  0  0  0  0  0
   10.7487    1.2249   -0.7048 C   0  0  0  0  0  0  0  0  0  0  0  0
   11.3715    2.2733   -1.4107 N   0  0  0  0  0  0  0  0  0  0  0  0
   11.1814    0.9316    0.6392 N   0  0  0  0  0  0  0  0  0  0  0  0
    6.6963    2.1805    0.1704 C   0  0  0  0  0  0  0  0  0  0  0  0
    6.1533    2.2676    1.3802 O   0  0  0  0  0  0  0  0  0  0  0  0
    7.5770    3.2480   -0.1065 C   0  0  0  0  0  0  0  0  0  0  0  0
    8.0293    4.1510    0.9444 N   0  0  0  0  0  0  0  0  0  0  0  0
    8.0161    3.4781   -1.2605 O   0  0  0  0  0  0  0  0  0  0  0  0
    2.2767    1.2683    1.9893 H   0  0  0  0  0  0  0  0  0  0  0  0
    2.6529    2.5285    0.6798 H   0  0  0  0  0  0  0  0  0  0  0  0
    0.9862    1.7713    0.8643 H   0  0  0  0  0  0  0  0  0  0  0  0
    2.0497    0.7510   -0.9374 H   0  0  0  0  0  0  0  0  0  0  0  0
    2.2397   -1.1109    1.4734 H   0  0  0  0  0  0  0  0  0  0  0  0
   -0.1110   -2.3436    1.6897 H   0  0  0  0  0  0  0  0  0  0  0  0
    0.8671   -4.4463    1.0530 H   0  0  0  0  0  0  0  0  0  0  0  0
    2.0228   -3.3425    0.2575 H   0  0  0  0  0  0  0  0  0  0  0  0
    1.0324   -3.5069   -1.8829 H   0  0  0  0  0  0  0  0  0  0  0  0
    0.8448   -5.1739   -1.1596 H   0  0  0  0  0  0  0  0  0  0  0  0
   -1.3144   -3.6952   -2.0261 H   0  0  0  0  0  0  0  0  0  0  0  0
   -1.3292   -4.8936   -0.6531 H   0  0  0  0  0  0  0  0  0  0  0  0
   -3.5350   -2.2002   -1.6885 H   0  0  0  0  0  0  0  0  0  0  0  0
   -5.1742   -3.9121   -1.1846 H   0  0  0  0  0  0  0  0  0  0  0  0
   -3.5479   -4.5509   -1.0415 H   0  0  0  0  0  0  0  0  0  0  0  0
   -6.5581   -3.6849    0.7182 H   0  0  0  0  0  0  0  0  0  0  0  0
   -7.1693   -4.4375    2.9912 H   0  0  0  0  0  0  0  0  0  0  0  0
   -5.5172   -5.5228    4.4428 H   0  0  0  0  0  0  0  0  0  0  0  0
   -3.2433   -5.8516    3.5988 H   0  0  0  0  0  0  0  0  0  0  0  0
   -2.6344   -5.1138    1.3336 H   0  0  0  0  0  0  0  0  0  0  0  0
   -5.1376   -1.6735    0.7796 H   0  0  0  0  0  0  0  0  0  0  0  0
   -7.0887    0.5546   -1.1568 H   0  0  0  0  0  0  0  0  0  0  0  0
   -7.2787   -0.7527    0.7516 H   0  0  0  0  0  0  0  0  0  0  0  0
   -5.9688   -0.0220    1.5777 H   0  0  0  0  0  0  0  0  0  0  0  0
   -5.3674    2.3160   -1.3053 H   0  0  0  0  0  0  0  0  0  0  0  0
   -4.8815    2.0724    0.3903 H   0  0  0  0  0  0  0  0  0  0  0  0
   -7.7290    2.7305   -0.5154 H   0  0  0  0  0  0  0  0  0  0  0  0
   -7.1319    2.4325    1.2081 H   0  0  0  0  0  0  0  0  0  0  0  0
   -6.3106    4.6752   -0.6705 H   0  0  0  0  0  0  0  0  0  0  0  0
   -5.6527    4.4234    0.9989 H   0  0  0  0  0  0  0  0  0  0  0  0
   -9.0830    4.7992   -1.8922 H   0  0  0  0  0  0  0  0  0  0  0  0
   -8.0067    6.2152   -1.8603 H   0  0  0  0  0  0  0  0  0  0  0  0
  -10.4633    5.6072    1.1829 H   0  0  0  0  0  0  0  0  0  0  0  0
   -9.8324    7.1565    0.5653 H   0  0  0  0  0  0  0  0  0  0  0  0
    4.4262    2.1080   -0.9799 H   0  0  0  0  0  0  0  0  0  0  0  0
    6.3689    0.1301    0.1107 H   0  0  0  0  0  0  0  0  0  0  0  0
    5.6951   -0.0161   -2.3525 H   0  0  0  0  0  0  0  0  0  0  0  0
    6.3641    1.5750   -2.6011 H   0  0  0  0  0  0  0  0  0  0  0  0
    7.8399   -1.0831   -2.2203 H   0  0  0  0  0  0  0  0  0  0  0  0
    7.5706   -0.0698   -3.6134 H   0  0  0  0  0  0  0  0  0  0  0  0
    9.8411   -0.1356   -3.1340 H   0  0  0  0  0  0  0  0  0  0  0  0
    9.2926    1.5912   -2.9202 H   0  0  0  0  0  0  0  0  0  0  0  0
   12.3421    2.1481   -1.7346 H   0  0  0  0  0  0  0  0  0  0  0  0
   10.8853    3.1645   -1.6144 H   0  0  0  0  0  0  0  0  0  0  0  0
   11.5201    1.7246    1.2067 H   0  0  0  0  0  0  0  0  0  0  0  0
   11.1644   -0.0140    1.0377 H   0  0  0  0  0  0  0  0  0  0  0  0
    9.0732    4.3264    0.9334 H   0  0  0  0  0  0  0  0  0  0  0  0
    7.4021    4.5683    1.6195 H   0  0  0  0  0  0  0  0  0  0  0  0
  1  2  1  0
  2  3  1  0
  3  4  1  0
  4  5  2  0
  4  6  1  0
  6  7  1  0
  7  8  1  0
  8  9  1  0
  9 10  1  0
 10 11  1  0
 11 12  2  0
 11 13  1  0
 13 14  1  0
 14 15  1  0
 15 16  2  0
 16 17  1  0
 17 18  2  0
 18 19  1  0
 19 20  2  0
 13 21  1  0
 21 22  1  0
 22 23  2  0
 22 24  1  0
 24 25  1  0
 24 26  1  0
 26 27  1  0
 27 28  1  0
 28 29  1  0
 29 30  2  3
 30 31  1  0
 30 32  1  0
  2 33  1  0
 33 34  2  0
 33 35  1  0
 35 36  1  0
 36 37  1  0
 37 38  1  0
 38 39  1  0
 39 40  1  0
 40 41  2  3
 41 42  1  0
 41 43  1  0
 36 44  1  0
 44 45  2  0
 44 46  1  0
 46 47  1  0
 46 48  2  0
 10  6  1  0
 20 15  1  0
  1 49  1  0
  1 50  1  0
  1 51  1  0
  2 52  1  6
  3 53  1  0
  6 54  1  1
  7 55  1  0
  7 56  1  0
  8 57  1  0
  8 58  1  0
  9 59  1  0
  9 60  1  0
 13 61  1  6
 14 62  1  0
 14 63  1  0
 16 64  1  0
 17 65  1  0
 18 66  1  0
 19 67  1  0
 20 68  1  0
 21 69  1  0
 24 70  1  6
 25 71  1  0
 25 72  1  0
 26 73  1  0
 26 74  1  0
 27 75  1  0
 27 76  1  0
 28 77  1  0
 28 78  1  0
 31 79  1  0
 31 80  1  0
 32 81  1  0
 32 82  1  0
 35 83  1  0
 36 84  1  1
 37 85  1  0
 37 86  1  0
 38 87  1  0
 38 88  1  0
 39 89  1  0
 39 90  1  0
 42 91  1  0
 42 92  1  0
 43 93  1  0
 43 94  1  0
 47 95  1  0
 47 96  1  0
M  END
$$$$
[H]Oc1c([H])c([H])c(C([H])([H])[C@@]([H])(C(=O)N([H])[C@]([H])(C(=O)N([H])[C@]([H])(C(=O)N([H])[C@]([H])(C(=O)N([H])[C@]([H])(C(=O)N([H])[H])C([H])([H])c2c([H])c([H])c([H])c([H])c2[H])C([H])([H])c2c([H])c([H])c([H])c([H])c2[H])C([H])([H])[H])C([H])([H])c2c([H])c([H])c([H])c([H])c2[H])N([H])[H])c([H])c1[H]
     RDKit          3D

 95 98  0  0  0  0  0  0  0  0999 V2000
   -0.5053    0.8514   -3.8519 C   0  0  0  0  0  0  0  0  0  0  0  0
    0.0782    0.2942   -2.5856 C   0  0  2  0  0  0  0  0  0  0  0  0
    1.3933   -0.2868   -2.8079 N   0  0  0  0  0  0  0  0  0  0  0  0
    2.4991    0.1018   -2.0201 C   0  0  0  0  0  0  0  0  0  0  0  0
    2.2469    0.9765   -1.1234 O   0  0  0  0  0  0  0  0  0  0  0  0
    3.8807   -0.3719   -2.1085 C   0  0  2  0  0  0  0  0  0  0  0  0
    4.1073   -1.8353   -2.0752 C   0  0  0  0  0  0  0  0  0  0  0  0
    3.6420   -2.5280   -0.8732 C   0  0  0  0  0  0  0  0  0  0  0  0
    4.4601   -2.6214    0.2213 C   0  0  0  0  0  0  0  0  0  0  0  0
    4.1130   -3.2498    1.3877 C   0  0  0  0  0  0  0  0  0  0  0  0
    2.8378   -3.8140    1.4122 C   0  0  0  0  0  0  0  0  0  0  0  0
    1.9935   -3.7390    0.3335 C   0  0  0  0  0  0  0  0  0  0  0  0
    2.3986   -3.0948   -0.8100 C   0  0  0  0  0  0  0  0  0  0  0  0
    4.7069    0.2913   -1.1011 N   0  0  0  0  0  0  0  0  0  0  0  0
    5.6605    1.2964   -1.3856 C   0  0  0  0  0  0  0  0  0  0  0  0
    5.8199    1.6369   -2.5802 O   0  0  0  0  0  0  0  0  0  0  0  0
    6.4591    1.9512   -0.3403 C   0  0  1  0  0  0  0  0  0  0  0  0
    6.2160    1.4277    0.9933 N   0  0  0  0  0  0  0  0  0  0  0  0
    7.9583    1.9114   -0.5919 C   0  0  0  0  0  0  0  0  0  0  0  0
    8.6577    2.6202    0.5342 C   0  0  0  0  0  0  0  0  0  0  0  0
    8.8767    3.9666    0.3993 C   0  0  0  0  0  0  0  0  0  0  0  0
    9.5024    4.7025    1.3952 C   0  0  0  0  0  0  0  0  0  0  0  0
    9.8973    4.0122    2.5348 C   0  0  0  0  0  0  0  0  0  0  0  0
   10.5264    4.6957    3.5616 O   0  0  0  0  0  0  0  0  0  0  0  0
    9.6648    2.6598    2.6430 C   0  0  0  0  0  0  0  0  0  0  0  0
    9.0351    1.9318    1.6365 C   0  0  0  0  0  0  0  0  0  0  0  0
   -0.9066   -0.6922   -2.0716 C   0  0  0  0  0  0  0  0  0  0  0  0
   -0.9617   -1.8192   -2.5962 O   0  0  0  0  0  0  0  0  0  0  0  0
   -1.7361   -0.3355   -1.0156 N   0  0  0  0  0  0  0  0  0  0  0  0
   -2.7543   -1.1875   -0.3957 C   0  0  1  0  0  0  0  0  0  0  0  0
   -2.1211   -1.7369    0.8835 C   0  0  0  0  0  0  0  0  0  0  0  0
   -2.9770   -2.6166    1.6661 C   0  0  0  0  0  0  0  0  0  0  0  0
   -3.0178   -3.9914    1.3772 C   0  0  0  0  0  0  0  0  0  0  0  0
   -3.8007   -4.8399    2.1291 C   0  0  0  0  0  0  0  0  0  0  0  0
   -4.5317   -4.2952    3.1615 C   0  0  0  0  0  0  0  0  0  0  0  0
   -4.4893   -2.9270    3.4464 C   0  0  0  0  0  0  0  0  0  0  0  0
   -3.7113   -2.0756    2.7000 C   0  0  0  0  0  0  0  0  0  0  0  0
   -3.8966   -0.3255   -0.0949 C   0  0  0  0  0  0  0  0  0  0  0  0
   -3.7004    0.9231    0.0637 O   0  0  0  0  0  0  0  0  0  0  0  0
   -5.2274   -0.7866    0.0313 N   0  0  0  0  0  0  0  0  0  0  0  0
   -6.3121    0.1762    0.3442 C   0  0  1  0  0  0  0  0  0  0  0  0
   -6.9448    0.5270   -0.9849 C   0  0  0  0  0  0  0  0  0  0  0  0
   -8.0279    1.4970   -0.8287 C   0  0  0  0  0  0  0  0  0  0  0  0
   -9.3667    1.1570   -0.7654 C   0  0  0  0  0  0  0  0  0  0  0  0
  -10.3897    2.0698   -0.6260 C   0  0  0  0  0  0  0  0  0  0  0  0
  -10.0810    3.4032   -0.5430 C   0  0  0  0  0  0  0  0  0  0  0  0
   -8.7536    3.7817   -0.6028 C   0  0  0  0  0  0  0  0  0  0  0  0
   -7.7488    2.8643   -0.7413 C   0  0  0  0  0  0  0  0  0  0  0  0
   -7.2690   -0.4247    1.2560 C   0  0  0  0  0  0  0  0  0  0  0  0
   -8.2896    0.2853    1.9524 N   0  0  0  0  0  0  0  0  0  0  0  0
   -7.2651   -1.6862    1.5204 O   0  0  0  0  0  0  0  0  0  0  0  0
   -0.3253    0.0490   -4.6341 H   0  0  0  0  0  0  0  0  0  0  0  0
   -1.5778    1.0428   -3.7454 H   0  0  0  0  0  0  0  0  0  0  0  0
    0.1100    1.7163   -4.1707 H   0  0  0  0  0  0  0  0  0  0  0  0
    0.1942    1.1300   -1.8608 H   0  0  0  0  0  0  0  0  0  0  0  0
    1.5130   -0.9934   -3.5465 H   0  0  0  0  0  0  0  0  0  0  0  0
    4.2724    0.0137   -3.0919 H   0  0  0  0  0  0  0  0  0  0  0  0
    5.2139   -1.9851   -2.2532 H   0  0  0  0  0  0  0  0  0  0  0  0
    3.6249   -2.3332   -2.9494 H   0  0  0  0  0  0  0  0  0  0  0  0
    5.4747   -2.1842    0.2243 H   0  0  0  0  0  0  0  0  0  0  0  0
    4.7861   -3.3066    2.2411 H   0  0  0  0  0  0  0  0  0  0  0  0
    2.5326   -4.3195    2.3238 H   0  0  0  0  0  0  0  0  0  0  0  0
    0.9841   -4.1888    0.3603 H   0  0  0  0  0  0  0  0  0  0  0  0
    1.6994   -3.0547   -1.6703 H   0  0  0  0  0  0  0  0  0  0  0  0
    4.5886    0.0159   -0.1014 H   0  0  0  0  0  0  0  0  0  0  0  0
    6.2243    3.0514   -0.2555 H   0  0  0  0  0  0  0  0  0  0  0  0
    6.2760    0.3887    0.9822 H   0  0  0  0  0  0  0  0  0  0  0  0
    5.2947    1.7495    1.3460 H   0  0  0  0  0  0  0  0  0  0  0  0
    8.2926    0.8549   -0.6406 H   0  0  0  0  0  0  0  0  0  0  0  0
    8.2448    2.4118   -1.5137 H   0  0  0  0  0  0  0  0  0  0  0  0
    8.5657    4.4910   -0.4900 H   0  0  0  0  0  0  0  0  0  0  0  0
    9.6751    5.7574    1.2932 H   0  0  0  0  0  0  0  0  0  0  0  0
   10.8140    4.1973    4.3911 H   0  0  0  0  0  0  0  0  0  0  0  0
    9.9816    2.1558    3.5389 H   0  0  0  0  0  0  0  0  0  0  0  0
    8.8406    0.8793    1.6902 H   0  0  0  0  0  0  0  0  0  0  0  0
   -1.6522    0.6361   -0.5949 H   0  0  0  0  0  0  0  0  0  0  0  0
   -2.9864   -2.0124   -1.0835 H   0  0  0  0  0  0  0  0  0  0  0  0
   -1.1981   -2.2881    0.5741 H   0  0  0  0  0  0  0  0  0  0  0  0
   -1.7703   -0.8377    1.4411 H   0  0  0  0  0  0  0  0  0  0  0  0
   -2.4378   -4.4041    0.5631 H   0  0  0  0  0  0  0  0  0  0  0  0
   -3.8406   -5.9059    1.9149 H   0  0  0  0  0  0  0  0  0  0  0  0
   -5.1670   -4.8983    3.7924 H   0  0  0  0  0  0  0  0  0  0  0  0
   -5.0860   -2.5337    4.2756 H   0  0  0  0  0  0  0  0  0  0  0  0
   -3.6928   -1.0168    2.9369 H   0  0  0  0  0  0  0  0  0  0  0  0
   -5.4900   -1.7731   -0.0866 H   0  0  0  0  0  0  0  0  0  0  0  0
   -5.8455    1.0846    0.7318 H   0  0  0  0  0  0  0  0  0  0  0  0
   -7.4155   -0.3883   -1.4542 H   0  0  0  0  0  0  0  0  0  0  0  0
   -6.1503    0.8958   -1.7066 H   0  0  0  0  0  0  0  0  0  0  0  0
   -9.6102    0.0910   -0.8319 H   0  0  0  0  0  0  0  0  0  0  0  0
  -11.4228    1.7599   -0.5808 H   0  0  0  0  0  0  0  0  0  0  0  0
  -10.8099    4.1919   -0.4331 H   0  0  0  0  0  0  0  0  0  0  0  0
   -8.4860    4.8479   -0.5375 H   0  0  0  0  0  0  0  0  0  0  0  0
   -6.6937    3.1501   -0.7902 H   0  0  0  0  0  0  0  0  0  0  0  0
   -9.2399   -0.1283    2.1153 H   0  0  0  0  0  0  0  0  0  0  0  0
   -8.1512    1.2584    2.3429 H   0  0  0  0  0  0  0  0  0  0  0  0
  1  2  1  0
  2  3  1  0
  3  4  1  0
  4  5  2  0
  4  6  1  0
  6  7  1  0
  7  8  1  0
  8  9  2  0
  9 10  1  0
 10 11  2  0
 11 12  1  0
 12 13  2  0
  6 14  1  0
 14 15  1  0
 15 16  2  0
 15 17  1  0
 17 18  1  0
 17 19  1  0
 19 20  1  0
 20 21  2  0
 21 22  1  0
 22 23  2  0
 23 24  1  0
 23 25  1  0
 25 26  2  0
  2 27  1  0
 27 28  2  0
 27 29  1  0
 29 30  1  0
 30 31  1  0
 31 32  1  0
 32 33  2  0
 33 34  1  0
 34 35  2  0
 35 36  1  0
 36 37  2  0
 30 38  1  0
 38 39  2  0
 38 40  1  0
 40 41  1  0
 41 42  1  0
 42 43  1  0
 43 44  2  0
 44 45  1  0
 45 46  2  0
 46 47  1  0
 47 48  2  0
 41 49  1  0
 49 50  1  0
 49 51  2  0
 13  8  1  0
 26 20  1  0
 37 32  1  0
 48 43  1  0
  1 52  1  0
  1 53  1  0
  1 54  1  0
  2 55  1  1
  3 56  1  0
  6 57  1  6
  7 58  1  0
  7 59  1  0
  9 60  1  0
 10 61  1  0
 11 62  1  0
 12 63  1  0
 13 64  1  0
 14 65  1  0
 17 66  1  1
 18 67  1  0
 18 68  1  0
 19 69  1  0
 19 70  1  0
 21 71  1  0
 22 72  1  0
 24 73  1  0
 25 74  1  0
 26 75  1  0
 29 76  1  0
 30 77  1  6
 31 78  1  0
 31 79  1  0
 33 80  1  0
 34 81  1  0
 35 82  1  0
 36 83  1  0
 37 84  1  0
 40 85  1  0
 41 86  1  1
 42 87  1  0
 42 88  1  0
 44 89  1  0
 45 90  1  0
 46 91  1  0
 47 92  1  0
 48 93  1  0
 50 94  1  0
 50 95  1  0
M  END
$$$$
[H]OC(=O)C([H])([H])[C@@]([H])(C(=O)N([H])[C@]([H])(C(=O)N1C([H])([H])C([H])([H])C([H])([H])[C@@]1([H])C(=O)N([H])[C@]([H])(C(=O)C([H])([H])[H])C([H])([H])[H])C([H])([H])c1c([H])c([H])c([H])c([H])c1[H])N([H])C(=O)[C@@]([H])(N([H])C(=O)[C@]([H])(N([H])C(=O)[C@@]([H])(N([H])C(=O)[C@]([H])(N([H])C(=O)[C@@]([H])(N([H])C(=O)[C@@]([H])(N([H])C(=O)C([H])([H])[H])C([H])([H])[H])C([H])([H])[H])C([H])([H])[H])C([H])([H])c1c([H])c([H])c([H])c([H])c1[H])C([H])([H])[H])C([H])([H])c1c([H])c([H])c([H])c([H])c1[H]
     RDKit          3D

147150  0  0  0  0  0  0  0  0999 V2000
   -9.9289   -5.0724    1.4762 C   0  0  0  0  0  0  0  0  0  0  0  0
  -10.9376   -4.3530    0.6709 C   0  0  2  0  0  0  0  0  0  0  0  0
  -10.7073   -2.9614    0.4312 N   0  0  0  0  0  0  0  0  0  0  0  0
  -11.6004   -1.8610    0.4778 C   0  0  0  0  0  0  0  0  0  0  0  0
  -12.8273   -2.0579    0.8015 O   0  0  0  0  0  0  0  0  0  0  0  0
  -11.1727   -0.4997    0.1810 C   0  0  2  0  0  0  0  0  0  0  0  0
  -12.4086    0.3999    0.1326 C   0  0  0  0  0  0  0  0  0  0  0  0
  -12.2196    1.1844   -1.1632 C   0  0  0  0  0  0  0  0  0  0  0  0
  -11.6248    0.0511   -1.9905 C   0  0  0  0  0  0  0  0  0  0  0  0
  -10.4646   -0.2358   -1.0298 N   0  0  0  0  0  0  0  0  0  0  0  0
   -9.1582   -0.0771   -1.4277 C   0  0  0  0  0  0  0  0  0  0  0  0
   -9.0325    0.0983   -2.7751 O   0  0  0  0  0  0  0  0  0  0  0  0
   -7.8908   -0.0379   -0.7985 C   0  0  2  0  0  0  0  0  0  0  0  0
   -7.7260    0.9880    0.3284 C   0  0  0  0  0  0  0  0  0  0  0  0
   -7.9862    2.3963    0.0163 C   0  0  0  0  0  0  0  0  0  0  0  0
   -8.8066    3.0887    0.9106 C   0  0  0  0  0  0  0  0  0  0  0  0
   -9.1330    4.3887    0.7828 C   0  0  0  0  0  0  0  0  0  0  0  0
   -8.6605    5.0845   -0.2716 C   0  0  0  0  0  0  0  0  0  0  0  0
   -7.8573    4.4564   -1.1887 C   0  0  0  0  0  0  0  0  0  0  0  0
   -7.5225    3.0938   -1.0317 C   0  0  0  0  0  0  0  0  0  0  0  0
   -6.7401    0.3423   -1.7244 N   0  0  0  0  0  0  0  0  0  0  0  0
   -5.4623    0.1679   -1.3044 C   0  0  0  0  0  0  0  0  0  0  0  0
   -5.3772   -0.4643   -0.1014 O   0  0  0  0  0  0  0  0  0  0  0  0
   -4.1318    0.5141   -1.8182 C   0  0  2  0  0  0  0  0  0  0  0  0
   -3.7936    0.2004   -3.2297 C   0  0  0  0  0  0  0  0  0  0  0  0
   -4.7136    1.0127   -4.1513 C   0  0  0  0  0  0  0  0  0  0  0  0
   -4.6129    2.4137   -4.0303 O   0  0  0  0  0  0  0  0  0  0  0  0
   -5.4709    0.4967   -4.9314 O   0  0  0  0  0  0  0  0  0  0  0  0
   -3.1681    0.2339   -0.8135 N   0  0  0  0  0  0  0  0  0  0  0  0
   -1.9461    0.8789   -0.5792 C   0  0  0  0  0  0  0  0  0  0  0  0
   -1.4682    1.7285   -1.3312 O   0  0  0  0  0  0  0  0  0  0  0  0
   -1.3190    0.3914    0.7206 C   0  0  2  0  0  0  0  0  0  0  0  0
   -2.0304    1.1550    1.8489 C   0  0  0  0  0  0  0  0  0  0  0  0
   -1.8032    2.5915    1.7557 C   0  0  0  0  0  0  0  0  0  0  0  0
   -0.7821    3.1876    2.4501 C   0  0  0  0  0  0  0  0  0  0  0  0
   -0.4432    4.5453    2.3926 C   0  0  0  0  0  0  0  0  0  0  0  0
   -1.2376    5.3345    1.5500 C   0  0  0  0  0  0  0  0  0  0  0  0
   -2.2660    4.7856    0.8450 C   0  0  0  0  0  0  0  0  0  0  0  0
   -2.5535    3.4306    0.9406 C   0  0  0  0  0  0  0  0  0  0  0  0
    0.0676    0.4319    0.8279 N   0  0  0  0  0  0  0  0  0  0  0  0
    0.9646   -0.2811   -0.0729 C   0  0  0  0  0  0  0  0  0  0  0  0
    0.4042   -0.8200   -1.0221 O   0  0  0  0  0  0  0  0  0  0  0  0
    2.3557   -0.2480    0.2692 C   0  0  1  0  0  0  0  0  0  0  0  0
    2.6848   -1.8010    0.5683 C   0  0  0  0  0  0  0  0  0  0  0  0
    3.4023    0.1621   -0.6320 N   0  0  0  0  0  0  0  0  0  0  0  0
    4.5178    0.7447    0.0987 C   0  0  0  0  0  0  0  0  0  0  0  0
    4.2955    0.7956    1.3647 O   0  0  0  0  0  0  0  0  0  0  0  0
    5.7719    1.2193   -0.3996 C   0  0  2  0  0  0  0  0  0  0  0  0
    6.2913    0.5333   -1.6598 C   0  0  0  0  0  0  0  0  0  0  0  0
    6.3216   -0.9195   -1.6350 C   0  0  0  0  0  0  0  0  0  0  0  0
    6.8165   -1.6488   -0.5993 C   0  0  0  0  0  0  0  0  0  0  0  0
    6.8917   -3.0434   -0.6529 C   0  0  0  0  0  0  0  0  0  0  0  0
    6.4440   -3.6438   -1.7905 C   0  0  0  0  0  0  0  0  0  0  0  0
    5.9386   -2.9468   -2.8584 C   0  0  0  0  0  0  0  0  0  0  0  0
    5.8752   -1.5694   -2.7670 C   0  0  0  0  0  0  0  0  0  0  0  0
    6.7421    1.3356    0.6639 N   0  0  0  0  0  0  0  0  0  0  0  0
    7.7730    2.2393    0.7223 C   0  0  0  0  0  0  0  0  0  0  0  0
    8.0611    3.1181   -0.0490 O   0  0  0  0  0  0  0  0  0  0  0  0
    8.7514    2.0618    1.9689 C   0  0  1  0  0  0  0  0  0  0  0  0
    8.0940    2.6222    3.1342 C   0  0  0  0  0  0  0  0  0  0  0  0
    9.2355    0.8196    1.8263 N   0  0  0  0  0  0  0  0  0  0  0  0
    9.7429   -0.5049    1.6825 C   0  0  0  0  0  0  0  0  0  0  0  0
    9.3323   -1.4866    2.3153 O   0  0  0  0  0  0  0  0  0  0  0  0
   10.8129   -0.6495    0.6916 C   0  0  2  0  0  0  0  0  0  0  0  0
   10.3441   -0.0482   -0.6627 C   0  0  0  0  0  0  0  0  0  0  0  0
   11.5416   -1.7651    0.3055 N   0  0  0  0  0  0  0  0  0  0  0  0
   12.9353   -1.7994    0.6982 C   0  0  0  0  0  0  0  0  0  0  0  0
   13.3596   -0.9869    1.5085 O   0  0  0  0  0  0  0  0  0  0  0  0
   13.8625   -2.8253    0.0605 C   0  0  2  0  0  0  0  0  0  0  0  0
   14.3250   -3.9403    0.8354 C   0  0  0  0  0  0  0  0  0  0  0  0
   15.0147   -1.7982   -0.1618 N   0  0  0  0  0  0  0  0  0  0  0  0
   14.6431   -0.8417   -1.2020 C   0  0  0  0  0  0  0  0  0  0  0  0
   15.5445    0.3016   -1.4485 C   0  0  0  0  0  0  0  0  0  0  0  0
   13.6091   -1.0034   -1.8204 O   0  0  0  0  0  0  0  0  0  0  0  0
  -12.3281   -4.7917    0.9366 C   0  0  0  0  0  0  0  0  0  0  0  0
  -12.3700   -5.5678    2.3042 C   0  0  0  0  0  0  0  0  0  0  0  0
  -13.3421   -4.6988    0.4301 O   0  0  0  0  0  0  0  0  0  0  0  0
  -10.0006   -6.1844    1.1902 H   0  0  0  0  0  0  0  0  0  0  0  0
  -10.1498   -5.0579    2.5912 H   0  0  0  0  0  0  0  0  0  0  0  0
   -8.9021   -4.7531    1.2481 H   0  0  0  0  0  0  0  0  0  0  0  0
  -10.8295   -4.8035   -0.4076 H   0  0  0  0  0  0  0  0  0  0  0  0
   -9.6994   -2.6960    0.1683 H   0  0  0  0  0  0  0  0  0  0  0  0
  -10.6105   -0.1113    1.0891 H   0  0  0  0  0  0  0  0  0  0  0  0
  -13.2853   -0.2404   -0.0212 H   0  0  0  0  0  0  0  0  0  0  0  0
  -12.4807    1.0753    0.9693 H   0  0  0  0  0  0  0  0  0  0  0  0
  -11.4455    1.9655   -1.0237 H   0  0  0  0  0  0  0  0  0  0  0  0
  -13.1211    1.5179   -1.6408 H   0  0  0  0  0  0  0  0  0  0  0  0
  -11.2680    0.3278   -2.9676 H   0  0  0  0  0  0  0  0  0  0  0  0
  -12.2471   -0.8340   -1.9431 H   0  0  0  0  0  0  0  0  0  0  0  0
   -7.5630   -1.0074   -0.3906 H   0  0  0  0  0  0  0  0  0  0  0  0
   -6.6966    0.9775    0.7901 H   0  0  0  0  0  0  0  0  0  0  0  0
   -8.3792    0.6339    1.1745 H   0  0  0  0  0  0  0  0  0  0  0  0
   -9.1993    2.5294    1.8059 H   0  0  0  0  0  0  0  0  0  0  0  0
   -9.7703    4.8913    1.5663 H   0  0  0  0  0  0  0  0  0  0  0  0
   -8.9003    6.1354   -0.3593 H   0  0  0  0  0  0  0  0  0  0  0  0
   -7.4812    5.0074   -2.0705 H   0  0  0  0  0  0  0  0  0  0  0  0
   -6.8790    2.7406   -1.8154 H   0  0  0  0  0  0  0  0  0  0  0  0
   -7.1026    0.6732   -2.6363 H   0  0  0  0  0  0  0  0  0  0  0  0
   -4.1154    1.7003   -1.8850 H   0  0  0  0  0  0  0  0  0  0  0  0
   -2.7496    0.5116   -3.4738 H   0  0  0  0  0  0  0  0  0  0  0  0
   -3.9577   -0.8347   -3.5234 H   0  0  0  0  0  0  0  0  0  0  0  0
   -3.7040    2.7655   -3.7392 H   0  0  0  0  0  0  0  0  0  0  0  0
   -3.4477   -0.5830   -0.1556 H   0  0  0  0  0  0  0  0  0  0  0  0
   -1.6597   -0.6665    0.7592 H   0  0  0  0  0  0  0  0  0  0  0  0
   -3.1206    0.8956    1.7314 H   0  0  0  0  0  0  0  0  0  0  0  0
   -1.7318    0.7603    2.8085 H   0  0  0  0  0  0  0  0  0  0  0  0
   -0.1509    2.5908    3.1107 H   0  0  0  0  0  0  0  0  0  0  0  0
    0.3332    5.0155    2.9392 H   0  0  0  0  0  0  0  0  0  0  0  0
   -1.0339    6.3917    1.4426 H   0  0  0  0  0  0  0  0  0  0  0  0
   -2.9081    5.3664    0.2055 H   0  0  0  0  0  0  0  0  0  0  0  0
   -3.3932    3.0275    0.3332 H   0  0  0  0  0  0  0  0  0  0  0  0
    0.5059    0.9942    1.5642 H   0  0  0  0  0  0  0  0  0  0  0  0
    2.4985    0.1546    1.3109 H   0  0  0  0  0  0  0  0  0  0  0  0
    2.3394   -2.0235    1.5731 H   0  0  0  0  0  0  0  0  0  0  0  0
    2.2307   -2.3991   -0.2299 H   0  0  0  0  0  0  0  0  0  0  0  0
    3.7844   -1.8471    0.4951 H   0  0  0  0  0  0  0  0  0  0  0  0
    3.3819    0.0832   -1.6156 H   0  0  0  0  0  0  0  0  0  0  0  0
    5.6726    2.3050   -0.7605 H   0  0  0  0  0  0  0  0  0  0  0  0
    5.7992    0.9748   -2.5833 H   0  0  0  0  0  0  0  0  0  0  0  0
    7.3806    0.8865   -1.7452 H   0  0  0  0  0  0  0  0  0  0  0  0
    7.1558   -1.1970    0.3008 H   0  0  0  0  0  0  0  0  0  0  0  0
    7.2902   -3.5684    0.2106 H   0  0  0  0  0  0  0  0  0  0  0  0
    6.4934   -4.7422   -1.8333 H   0  0  0  0  0  0  0  0  0  0  0  0
    5.5919   -3.4690   -3.7969 H   0  0  0  0  0  0  0  0  0  0  0  0
    5.4763   -0.9972   -3.6063 H   0  0  0  0  0  0  0  0  0  0  0  0
    6.6343    0.6310    1.4946 H   0  0  0  0  0  0  0  0  0  0  0  0
    9.5901    2.8521    1.7086 H   0  0  0  0  0  0  0  0  0  0  0  0
    7.3714    1.9990    3.6536 H   0  0  0  0  0  0  0  0  0  0  0  0
    7.5867    3.5960    2.8462 H   0  0  0  0  0  0  0  0  0  0  0  0
    8.8658    2.9383    3.9394 H   0  0  0  0  0  0  0  0  0  0  0  0
    8.3001    0.2896    2.6769 H   0  0  0  0  0  0  0  0  0  0  0  0
   11.6288    0.1693    1.0143 H   0  0  0  0  0  0  0  0  0  0  0  0
   10.3585   -0.8656   -1.4588 H   0  0  0  0  0  0  0  0  0  0  0  0
    9.3077    0.2570   -0.5658 H   0  0  0  0  0  0  0  0  0  0  0  0
   10.9969    0.7899   -0.9934 H   0  0  0  0  0  0  0  0  0  0  0  0
   11.1392   -2.5470   -0.2175 H   0  0  0  0  0  0  0  0  0  0  0  0
   13.4329   -3.0180   -0.9665 H   0  0  0  0  0  0  0  0  0  0  0  0
   14.2428   -4.8826    0.1953 H   0  0  0  0  0  0  0  0  0  0  0  0
   15.3891   -3.9088    1.2036 H   0  0  0  0  0  0  0  0  0  0  0  0
   13.6361   -4.1768    1.6963 H   0  0  0  0  0  0  0  0  0  0  0  0
   15.8443   -1.7867    0.3118 H   0  0  0  0  0  0  0  0  0  0  0  0
   15.6909    0.8753   -0.4915 H   0  0  0  0  0  0  0  0  0  0  0  0
   14.9572    1.0267   -2.1179 H   0  0  0  0  0  0  0  0  0  0  0  0
   16.4536    0.0375   -1.9340 H   0  0  0  0  0  0  0  0  0  0  0  0
  -13.4206   -5.7731    2.5197 H   0  0  0  0  0  0  0  0  0  0  0  0
  -12.0364   -4.8065    3.0613 H   0  0  0  0  0  0  0  0  0  0  0  0
  -11.6623   -6.3562    2.3345 H   0  0  0  0  0  0  0  0  0  0  0  0
  1  2  1  0
  2  3  1  0
  3  4  1  0
  4  5  2  0
  4  6  1  0
  6  7  1  0
  7  8  1  0
  8  9  1  0
  9 10  1  0
 10 11  1  0
 11 12  2  0
 11 13  1  0
 13 14  1  0
 14 15  1  0
 15 16  2  0
 16 17  1  0
 17 18  2  0
 18 19  1  0
 19 20  2  0
 13 21  1  0
 21 22  1  0
 22 23  2  0
 22 24  1  0
 24 25  1  0
 25 26  1  0
 26 27  1  0
 26 28  2  0
 24 29  1  0
 29 30  1  0
 30 31  2  0
 30 32  1  0
 32 33  1  0
 33 34  1  0
 34 35  2  0
 35 36  1  0
 36 37  2  0
 37 38  1  0
 38 39  2  0
 32 40  1  0
 40 41  1  0
 41 42  2  0
 41 43  1  0
 43 44  1  0
 43 45  1  0
 45 46  1  0
 46 47  2  0
 46 48  1  0
 48 49  1  0
 49 50  1  0
 50 51  2  0
 51 52  1  0
 52 53  2  0
 53 54  1  0
 54 55  2  0
 48 56  1  0
 56 57  1  0
 57 58  2  0
 57 59  1  0
 59 60  1  0
 59 61  1  0
 61 62  1  0
 62 63  2  0
 62 64  1  0
 64 65  1  0
 64 66  1  0
 66 67  1  0
 67 68  2  0
 67 69  1  0
 69 70  1  0
 69 71  1  0
 71 72  1  0
 72 73  1  0
 72 74  2  0
  2 75  1  0
 75 76  1  0
 75 77  2  0
 10  6  1  0
 20 15  1  0
 39 34  1  0
 55 50  1  0
  1 78  1  0
  1 79  1  0
  1 80  1  0
  2 81  1  6
  3 82  1  0
  6 83  1  1
  7 84  1  0
  7 85  1  0
  8 86  1  0
  8 87  1  0
  9 88  1  0
  9 89  1  0
 13 90  1  1
 14 91  1  0
 14 92  1  0
 16 93  1  0
 17 94  1  0
 18 95  1  0
 19 96  1  0
 20 97  1  0
 21 98  1  0
 24 99  1  6
 25100  1  0
 25101  1  0
 27102  1  0
 29103  1  0
 32104  1  1
 33105  1  0
 33106  1  0
 35107  1  0
 36108  1  0
 37109  1  0
 38110  1  0
 39111  1  0
 40112  1  0
 43113  1  1
 44114  1  0
 44115  1  0
 44116  1  0
 45117  1  0
 48118  1  6
 49119  1  0
 49120  1  0
 51121  1  0
 52122  1  0
 53123  1  0
 54124  1  0
 55125  1  0
 56126  1  0
 59127  1  6
 60128  1  0
 60129  1  0
 60130  1  0
 61131  1  0
 64132  1  1
 65133  1  0
 65134  1  0
 65135  1  0
 66136  1  0
 69137  1  6
 70138  1  0
 70139  1  0
 70140  1  0
 71141  1  0
 73142  1  0
 73143  1  0
 73144  1  0
 76145  1  0
 76146  1  0
 76147  1  0
M  END
$$$$
[H]c1nc(N([H])c2c([H])c([H])c(C(=O)N([H])C3([H])C([H])([H])C3([H])[H])c([H])c2OC([H])([H])[H])nc(N([H])c2c([H])c([H])c([H])c([H])c2C(F)(F)F)c1Cl
     RDKit          3D

 52 55  0  0  0  0  0  0  0  0999 V2000
    2.2667    2.5193   -1.8617 C   0  0  0  0  0  0  0  0  0  0  0  0
    1.3510    1.6629   -1.1952 O   0  0  0  0  0  0  0  0  0  0  0  0
    1.8784    0.8401   -0.1826 C   0  0  0  0  0  0  0  0  0  0  0  0
    3.2058    0.8684    0.1427 C   0  0  0  0  0  0  0  0  0  0  0  0
    3.7679    0.0875    1.1209 C   0  0  0  0  0  0  0  0  0  0  0  0
    2.9200   -0.7631    1.7947 C   0  0  0  0  0  0  0  0  0  0  0  0
    1.5527   -0.8262    1.4949 C   0  0  0  0  0  0  0  0  0  0  0  0
    1.0256   -0.0423    0.5231 C   0  0  0  0  0  0  0  0  0  0  0  0
   -0.3112   -0.0365    0.1637 N   0  0  0  0  0  0  0  0  0  0  0  0
   -1.3495   -0.8388    0.6702 C   0  0  0  0  0  0  0  0  0  0  0  0
   -1.2289   -1.7755    1.6109 N   0  0  0  0  0  0  0  0  0  0  0  0
   -2.2510   -2.5207    2.0591 C   0  0  0  0  0  0  0  0  0  0  0  0
   -3.5254   -2.3584    1.5598 C   0  0  0  0  0  0  0  0  0  0  0  0
   -4.8313   -3.3435    2.1597 Cl  0  0  0  0  0  0  0  0  0  0  0  0
   -3.6947   -1.3783    0.5638 C   0  0  0  0  0  0  0  0  0  0  0  0
   -4.9991   -1.2116    0.0380 N   0  0  0  0  0  0  0  0  0  0  0  0
   -5.4544   -0.3185   -0.9433 C   0  0  0  0  0  0  0  0  0  0  0  0
   -4.7016    0.6689   -1.5322 C   0  0  0  0  0  0  0  0  0  0  0  0
   -5.2063    1.5491   -2.4971 C   0  0  0  0  0  0  0  0  0  0  0  0
   -6.5140    1.4413   -2.8910 C   0  0  0  0  0  0  0  0  0  0  0  0
   -7.2986    0.4714   -2.3293 C   0  0  0  0  0  0  0  0  0  0  0  0
   -6.7836   -0.3988   -1.3695 C   0  0  0  0  0  0  0  0  0  0  0  0
   -7.6959   -1.4224   -0.8281 C   0  0  0  0  0  0  0  0  0  0  0  0
   -7.2647   -2.7116   -1.0862 F   0  0  0  0  0  0  0  0  0  0  0  0
   -8.9306   -1.3250   -1.5098 F   0  0  0  0  0  0  0  0  0  0  0  0
   -8.0299   -1.2166    0.5038 F   0  0  0  0  0  0  0  0  0  0  0  0
   -2.6211   -0.6931    0.1876 N   0  0  0  0  0  0  0  0  0  0  0  0
    5.1743    0.0820    1.4828 C   0  0  0  0  0  0  0  0  0  0  0  0
    5.5095   -0.2716    2.6635 O   0  0  0  0  0  0  0  0  0  0  0  0
    6.2091    0.4443    0.6038 N   0  0  0  0  0  0  0  0  0  0  0  0
    7.5950    0.4288    0.9944 C   0  0  0  0  0  0  0  0  0  0  0  0
    8.6197   -0.1618    0.0714 C   0  0  0  0  0  0  0  0  0  0  0  0
    8.6157    1.2887    0.3553 C   0  0  0  0  0  0  0  0  0  0  0  0
    3.0667    1.9013   -2.3716 H   0  0  0  0  0  0  0  0  0  0  0  0
    2.8118    3.1888   -1.1681 H   0  0  0  0  0  0  0  0  0  0  0  0
    1.7479    3.1723   -2.5981 H   0  0  0  0  0  0  0  0  0  0  0  0
    3.8577    1.5487   -0.4020 H   0  0  0  0  0  0  0  0  0  0  0  0
    3.2939   -1.3998    2.5668 H   0  0  0  0  0  0  0  0  0  0  0  0
    0.9864   -1.5305    2.0893 H   0  0  0  0  0  0  0  0  0  0  0  0
   -0.6192    0.6616   -0.5965 H   0  0  0  0  0  0  0  0  0  0  0  0
   -2.1094   -3.2842    2.8365 H   0  0  0  0  0  0  0  0  0  0  0  0
   -5.7206   -1.8725    0.4832 H   0  0  0  0  0  0  0  0  0  0  0  0
   -3.6824    0.7976   -1.2592 H   0  0  0  0  0  0  0  0  0  0  0  0
   -4.5755    2.3150   -2.9356 H   0  0  0  0  0  0  0  0  0  0  0  0
   -6.8984    2.1265   -3.6390 H   0  0  0  0  0  0  0  0  0  0  0  0
   -8.3254    0.3921   -2.6449 H   0  0  0  0  0  0  0  0  0  0  0  0
    5.9698    0.7330   -0.3648 H   0  0  0  0  0  0  0  0  0  0  0  0
    7.7431    0.2427    2.0948 H   0  0  0  0  0  0  0  0  0  0  0  0
    9.3745   -0.8121    0.5704 H   0  0  0  0  0  0  0  0  0  0  0  0
    8.2773   -0.5618   -0.8938 H   0  0  0  0  0  0  0  0  0  0  0  0
    9.4681    1.6975    0.9158 H   0  0  0  0  0  0  0  0  0  0  0  0
    8.3339    1.9455   -0.5165 H   0  0  0  0  0  0  0  0  0  0  0  0
  1  2  1  0
  2  3  1  0
  3  4  2  0
  4  5  1  0
  5  6  2  0
  6  7  1  0
  7  8  2  0
  8  9  1  0
  9 10  1  0
 10 11  2  0
 11 12  1  0
 12 13  2  0
 13 14  1  0
 13 15  1  0
 15 16  1  0
 16 17  1  0
 17 18  2  0
 18 19  1  0
 19 20  2  0
 20 21  1  0
 21 22  2  0
 22 23  1  0
 23 24  1  0
 23 25  1  0
 23 26  1  0
 15 27  2  0
  5 28  1  0
 28 29  2  0
 28 30  1  0
 30 31  1  0
 31 32  1  0
 32 33  1  0
  8  3  1  0
 27 10  1  0
 33 31  1  0
 22 17  1  0
  1 34  1  0
  1 35  1  0
  1 36  1  0
  4 37  1  0
  6 38  1  0
  7 39  1  0
  9 40  1  0
 12 41  1  0
 16 42  1  0
 18 43  1  0
 19 44  1  0
 20 45  1  0
 21 46  1  0
 30 47  1  0
 31 48  1  0
 32 49  1  0
 32 50  1  0
 33 51  1  0
 33 52  1  0
M  END
$$$$
[H]c1nc(N([H])c2c([H])c([H])c(N3C([H])([H])C([H])([H])N(C([H])([H])[H])C([H])([H])C3([H])[H])c([H])c2[H])nc(C2([H])C([H])([H])C2([H])[H])c1C(=O)N([H])[H]
     RDKit          3D

 50 53  0  0  0  0  0  0  0  0999 V2000
    6.7403    0.0431   -0.0230 C   0  0  0  0  0  0  0  0  0  0  0  0
    6.0125   -1.1422    0.3971 N   0  0  0  0  0  0  0  0  0  0  0  0
    5.6145   -1.0986    1.7593 C   0  0  0  0  0  0  0  0  0  0  0  0
    4.1941   -0.7179    2.0138 C   0  0  0  0  0  0  0  0  0  0  0  0
    3.3275   -0.8478    0.8948 N   0  0  0  0  0  0  0  0  0  0  0  0
    3.6806   -1.8313   -0.0995 C   0  0  0  0  0  0  0  0  0  0  0  0
    5.0649   -1.4984   -0.5688 C   0  0  0  0  0  0  0  0  0  0  0  0
    2.1539   -0.0621    0.6824 C   0  0  0  0  0  0  0  0  0  0  0  0
    2.0398    1.2132    1.1844 C   0  0  0  0  0  0  0  0  0  0  0  0
    0.9025    1.9575    0.9915 C   0  0  0  0  0  0  0  0  0  0  0  0
   -0.1803    1.4441    0.2770 C   0  0  0  0  0  0  0  0  0  0  0  0
   -1.3005    2.2671    0.1032 N   0  0  0  0  0  0  0  0  0  0  0  0
   -2.6058    1.8869   -0.3193 C   0  0  0  0  0  0  0  0  0  0  0  0
   -3.5704    2.8572   -0.4372 N   0  0  0  0  0  0  0  0  0  0  0  0
   -4.8227    2.5855   -0.8162 C   0  0  0  0  0  0  0  0  0  0  0  0
   -5.2148    1.2875   -1.1138 C   0  0  0  0  0  0  0  0  0  0  0  0
   -6.5899    1.0572   -1.5121 C   0  0  0  0  0  0  0  0  0  0  0  0
   -7.5299    2.1016   -1.6138 N   0  0  0  0  0  0  0  0  0  0  0  0
   -6.9593   -0.1071   -1.7754 O   0  0  0  0  0  0  0  0  0  0  0  0
   -4.2592    0.3176   -0.9987 C   0  0  0  0  0  0  0  0  0  0  0  0
   -3.0198    0.6601   -0.6125 N   0  0  0  0  0  0  0  0  0  0  0  0
   -4.5773   -1.0769   -1.3048 C   0  0  0  0  0  0  0  0  0  0  0  0
   -3.4648   -2.0764   -0.9336 C   0  0  0  0  0  0  0  0  0  0  0  0
   -4.9008   -2.1002   -0.3174 C   0  0  0  0  0  0  0  0  0  0  0  0
   -0.0294    0.1703   -0.2079 C   0  0  0  0  0  0  0  0  0  0  0  0
    1.1205   -0.5957   -0.0180 C   0  0  0  0  0  0  0  0  0  0  0  0
    5.9875    0.8561   -0.1263 H   0  0  0  0  0  0  0  0  0  0  0  0
    7.4824    0.2915    0.7532 H   0  0  0  0  0  0  0  0  0  0  0  0
    7.2907   -0.1355   -0.9649 H   0  0  0  0  0  0  0  0  0  0  0  0
    6.2645   -0.3624    2.2843 H   0  0  0  0  0  0  0  0  0  0  0  0
    5.8442   -2.0816    2.2184 H   0  0  0  0  0  0  0  0  0  0  0  0
    3.7864   -1.4075    2.8143 H   0  0  0  0  0  0  0  0  0  0  0  0
    4.1157    0.2881    2.4585 H   0  0  0  0  0  0  0  0  0  0  0  0
    3.6284   -2.8365    0.3647 H   0  0  0  0  0  0  0  0  0  0  0  0
    3.0293   -1.8365   -0.9934 H   0  0  0  0  0  0  0  0  0  0  0  0
    4.9520   -0.7116   -1.3679 H   0  0  0  0  0  0  0  0  0  0  0  0
    5.4310   -2.3988   -1.1282 H   0  0  0  0  0  0  0  0  0  0  0  0
    2.8709    1.6609    1.7518 H   0  0  0  0  0  0  0  0  0  0  0  0
    0.8411    2.9793    1.4092 H   0  0  0  0  0  0  0  0  0  0  0  0
   -1.1418    3.3140    0.3108 H   0  0  0  0  0  0  0  0  0  0  0  0
   -5.5758    3.3825   -0.9027 H   0  0  0  0  0  0  0  0  0  0  0  0
   -8.2314    2.2515   -0.8707 H   0  0  0  0  0  0  0  0  0  0  0  0
   -7.5160    2.7230   -2.4400 H   0  0  0  0  0  0  0  0  0  0  0  0
   -4.9024   -1.2382   -2.3604 H   0  0  0  0  0  0  0  0  0  0  0  0
   -2.6655   -1.7295   -0.2560 H   0  0  0  0  0  0  0  0  0  0  0  0
   -3.2292   -2.8984   -1.6065 H   0  0  0  0  0  0  0  0  0  0  0  0
   -5.5319   -2.9536   -0.6746 H   0  0  0  0  0  0  0  0  0  0  0  0
   -4.9200   -1.9416    0.7593 H   0  0  0  0  0  0  0  0  0  0  0  0
   -0.8123   -0.3019   -0.7810 H   0  0  0  0  0  0  0  0  0  0  0  0
    1.1759   -1.6077   -0.4199 H   0  0  0  0  0  0  0  0  0  0  0  0
  1  2  1  0
  2  3  1  0
  3  4  1  0
  4  5  1  0
  5  6  1  0
  6  7  1  0
  5  8  1  0
  8  9  2  0
  9 10  1  0
 10 11  2  0
 11 12  1  0
 12 13  1  0
 13 14  2  0
 14 15  1  0
 15 16  2  0
 16 17  1  0
 17 18  1  0
 17 19  2  0
 16 20  1  0
 20 21  2  0
 20 22  1  0
 22 23  1  0
 23 24  1  0
 11 25  1  0
 25 26  2  0
  7  2  1  0
 26  8  1  0
 21 13  1  0
 24 22  1  0
  1 27  1  0
  1 28  1  0
  1 29  1  0
  3 30  1  0
  3 31  1  0
  4 32  1  0
  4 33  1  0
  6 34  1  0
  6 35  1  0
  7 36  1  0
  7 37  1  0
  9 38  1  0
 10 39  1  0
 12 40  1  0
 15 41  1  0
 18 42  1  0
 18 43  1  0
 22 44  1  0
 23 45  1  0
 23 46  1  0
 24 47  1  0
 24 48  1  0
 25 49  1  0
 26 50  1  0
M  END
$$$$
[H]c1c([H])c([H])c([C@@]([H])(N([H])C(=O)[C@]([H])(N([H])C(=O)N([H])c2c([H])c([H])c([H])c(C(F)(F)F)c2[H])C([H])([H])C([H])(C([H])([H])[H])C([H])([H])[H])C(F)(F)F)c([H])c1[H]
     RDKit          3D

 56 57  0  0  0  0  0  0  0  0999 V2000
    1.6782   -2.7596    2.1097 C   0  0  0  0  0  0  0  0  0  0  0  0
    0.3372   -2.1532    2.1416 C   0  0  0  0  0  0  0  0  0  0  0  0
   -0.6921   -3.2867    1.8500 C   0  0  0  0  0  0  0  0  0  0  0  0
   -0.0311   -0.9460    1.3892 C   0  0  0  0  0  0  0  0  0  0  0  0
    0.0669   -0.8652   -0.0591 C   0  0  1  0  0  0  0  0  0  0  0  0
   -0.6337    0.3689   -0.5678 N   0  0  0  0  0  0  0  0  0  0  0  0
   -2.0204    0.3353   -0.7925 C   0  0  0  0  0  0  0  0  0  0  0  0
   -2.6803   -0.7556   -0.5595 O   0  0  0  0  0  0  0  0  0  0  0  0
   -2.7736    1.4278   -1.2549 N   0  0  0  0  0  0  0  0  0  0  0  0
   -4.1910    1.4369   -1.3951 C   0  0  0  0  0  0  0  0  0  0  0  0
   -4.7417    2.2477   -2.4016 C   0  0  0  0  0  0  0  0  0  0  0  0
   -6.1006    2.3400   -2.5237 C   0  0  0  0  0  0  0  0  0  0  0  0
   -6.9371    1.6401   -1.6605 C   0  0  0  0  0  0  0  0  0  0  0  0
   -6.4389    0.8348   -0.6634 C   0  0  0  0  0  0  0  0  0  0  0  0
   -5.0464    0.7679   -0.5701 C   0  0  0  0  0  0  0  0  0  0  0  0
   -7.3317    0.1103    0.2713 C   0  0  0  0  0  0  0  0  0  0  0  0
   -6.8778   -1.1500    0.5960 F   0  0  0  0  0  0  0  0  0  0  0  0
   -8.5817   -0.0922   -0.3483 F   0  0  0  0  0  0  0  0  0  0  0  0
   -7.5976    0.8738    1.3957 F   0  0  0  0  0  0  0  0  0  0  0  0
    1.3727   -0.7953   -0.7631 C   0  0  0  0  0  0  0  0  0  0  0  0
    1.2161   -0.8196   -2.0444 O   0  0  0  0  0  0  0  0  0  0  0  0
    2.6394   -0.6960   -0.2583 N   0  0  0  0  0  0  0  0  0  0  0  0
    3.9540   -0.6720   -0.7878 C   0  0  1  0  0  0  0  0  0  0  0  0
    4.1085   -0.6107   -2.2904 C   0  0  0  0  0  0  0  0  0  0  0  0
    5.5191   -0.6055   -2.4864 F   0  0  0  0  0  0  0  0  0  0  0  0
    3.6583    0.5235   -2.8686 F   0  0  0  0  0  0  0  0  0  0  0  0
    3.6914   -1.7515   -2.8826 F   0  0  0  0  0  0  0  0  0  0  0  0
    4.7422    0.4810   -0.2429 C   0  0  0  0  0  0  0  0  0  0  0  0
    6.0168    0.4233    0.2452 C   0  0  0  0  0  0  0  0  0  0  0  0
    6.6455    1.5598    0.7414 C   0  0  0  0  0  0  0  0  0  0  0  0
    6.0318    2.7611    0.7631 C   0  0  0  0  0  0  0  0  0  0  0  0
    4.7235    2.8746    0.2745 C   0  0  0  0  0  0  0  0  0  0  0  0
    4.1091    1.7486   -0.2131 C   0  0  0  0  0  0  0  0  0  0  0  0
    1.9197   -3.1631    1.0889 H   0  0  0  0  0  0  0  0  0  0  0  0
    2.4917   -2.1278    2.5366 H   0  0  0  0  0  0  0  0  0  0  0  0
    1.6821   -3.7200    2.7435 H   0  0  0  0  0  0  0  0  0  0  0  0
    0.1215   -1.9591    3.2606 H   0  0  0  0  0  0  0  0  0  0  0  0
   -0.7303   -3.4768    0.7552 H   0  0  0  0  0  0  0  0  0  0  0  0
   -0.2663   -4.1937    2.3146 H   0  0  0  0  0  0  0  0  0  0  0  0
   -1.6240   -2.9959    2.3251 H   0  0  0  0  0  0  0  0  0  0  0  0
   -1.0815   -0.6629    1.7108 H   0  0  0  0  0  0  0  0  0  0  0  0
    0.5498   -0.0540    1.8362 H   0  0  0  0  0  0  0  0  0  0  0  0
   -0.5360   -1.6857   -0.5696 H   0  0  0  0  0  0  0  0  0  0  0  0
   -0.0907    1.2221   -0.7376 H   0  0  0  0  0  0  0  0  0  0  0  0
   -2.2553    2.3171   -1.5220 H   0  0  0  0  0  0  0  0  0  0  0  0
   -4.0386    2.7688   -3.0411 H   0  0  0  0  0  0  0  0  0  0  0  0
   -6.5575    2.9578   -3.3052 H   0  0  0  0  0  0  0  0  0  0  0  0
   -7.9833    1.7255   -1.7612 H   0  0  0  0  0  0  0  0  0  0  0  0
   -4.6833    0.1302    0.2453 H   0  0  0  0  0  0  0  0  0  0  0  0
    2.6741   -0.5116    0.8244 H   0  0  0  0  0  0  0  0  0  0  0  0
    4.4639   -1.6349   -0.5081 H   0  0  0  0  0  0  0  0  0  0  0  0
    6.5257   -0.5174    0.2390 H   0  0  0  0  0  0  0  0  0  0  0  0
    7.6641    1.4731    1.1204 H   0  0  0  0  0  0  0  0  0  0  0  0
    6.5496    3.6446    1.1551 H   0  0  0  0  0  0  0  0  0  0  0  0
    4.2615    3.8442    0.2959 H   0  0  0  0  0  0  0  0  0  0  0  0
    3.1083    1.8232   -0.6034 H   0  0  0  0  0  0  0  0  0  0  0  0
  1  2  1  0
  2  3  1  0
  2  4  1  0
  4  5  1  0
  5  6  1  0
  6  7  1  0
  7  8  2  0
  7  9  1  0
  9 10  1  0
 10 11  2  0
 11 12  1  0
 12 13  2  0
 13 14  1  0
 14 15  2  0
 14 16  1  0
 16 17  1  0
 16 18  1  0
 16 19  1  0
  5 20  1  0
 20 21  2  0
 20 22  1  0
 22 23  1  0
 23 24  1  0
 24 25  1  0
 24 26  1  0
 24 27  1  0
 23 28  1  0
 28 29  2  0
 29 30  1  0
 30 31  2  0
 31 32  1  0
 32 33  2  0
 15 10  1  0
 33 28  1  0
  1 34  1  0
  1 35  1  0
  1 36  1  0
  2 37  1  0
  3 38  1  0
  3 39  1  0
  3 40  1  0
  4 41  1  0
  4 42  1  0
  5 43  1  6
  6 44  1  0
  9 45  1  0
 11 46  1  0
 12 47  1  0
 13 48  1  0
 15 49  1  0
 22 50  1  0
 23 51  1  1
 29 52  1  0
 30 53  1  0
 31 54  1  0
 32 55  1  0
 33 56  1  0
M  END
$$$$
[H]c1c([H])c(S(=O)(=O)N(C([H])([H])c2c([H])c([H])c(C(F)(F)F)c([H])c2[H])C(C([H])([H])[H])(C([H])([H])[H])C([H])([H])[H])c([H])c([H])c1OC([H])([H])[H]
     RDKit          3D

 49 50  0  0  0  0  0  0  0  0999 V2000
    6.8867    1.7327   -0.2166 C   0  0  0  0  0  0  0  0  0  0  0  0
    5.6685    1.8843   -0.8554 O   0  0  0  0  0  0  0  0  0  0  0  0
    4.4814    1.3211   -0.3755 C   0  0  0  0  0  0  0  0  0  0  0  0
    4.4715    0.5637    0.7617 C   0  0  0  0  0  0  0  0  0  0  0  0
    3.3142    0.0360    1.1891 C   0  0  0  0  0  0  0  0  0  0  0  0
    2.0597    0.2054    0.5383 C   0  0  0  0  0  0  0  0  0  0  0  0
    2.0942    0.9560   -0.5812 C   0  0  0  0  0  0  0  0  0  0  0  0
    3.3070    1.5295   -1.0556 C   0  0  0  0  0  0  0  0  0  0  0  0
    0.7429   -0.6308    1.2474 S   0  0  0  0  0  0  0  0  0  0  0  0
    0.1556    0.4230    2.2450 O   0  0  0  0  0  0  0  0  0  0  0  0
    1.2241   -1.6839    2.2414 O   0  0  0  0  0  0  0  0  0  0  0  0
   -0.5556   -1.1534    0.2865 N   0  0  0  0  0  0  0  0  0  0  0  0
   -1.7709   -0.6752    0.7961 C   0  0  0  0  0  0  0  0  0  0  0  0
   -2.5251    0.4458    0.3136 C   0  0  0  0  0  0  0  0  0  0  0  0
   -3.9349    0.3390    0.2325 C   0  0  0  0  0  0  0  0  0  0  0  0
   -4.7699    1.3133   -0.0983 C   0  0  0  0  0  0  0  0  0  0  0  0
   -4.2784    2.5728   -0.3953 C   0  0  0  0  0  0  0  0  0  0  0  0
   -2.9279    2.7548   -0.3438 C   0  0  0  0  0  0  0  0  0  0  0  0
   -2.0573    1.7062    0.0050 C   0  0  0  0  0  0  0  0  0  0  0  0
   -5.2474    3.6995   -0.7268 C   0  0  0  0  0  0  0  0  0  0  0  0
   -6.4663    3.1128   -1.0249 F   0  0  0  0  0  0  0  0  0  0  0  0
   -5.4877    4.3679    0.4954 F   0  0  0  0  0  0  0  0  0  0  0  0
   -4.8405    4.5198   -1.6921 F   0  0  0  0  0  0  0  0  0  0  0  0
   -0.4844   -2.4964   -0.1436 C   0  0  0  0  0  0  0  0  0  0  0  0
    0.4268   -3.4395    0.5785 C   0  0  0  0  0  0  0  0  0  0  0  0
   -1.8392   -3.2633   -0.0417 C   0  0  0  0  0  0  0  0  0  0  0  0
   -0.1611   -2.5780   -1.6045 C   0  0  0  0  0  0  0  0  0  0  0  0
    7.0173    2.3707    0.6971 H   0  0  0  0  0  0  0  0  0  0  0  0
    7.7319    1.9969   -0.9003 H   0  0  0  0  0  0  0  0  0  0  0  0
    7.1170    0.6913    0.1093 H   0  0  0  0  0  0  0  0  0  0  0  0
    5.3980    0.3968    1.3022 H   0  0  0  0  0  0  0  0  0  0  0  0
    3.3225   -0.5789    2.0579 H   0  0  0  0  0  0  0  0  0  0  0  0
    1.2067    1.1427   -1.1313 H   0  0  0  0  0  0  0  0  0  0  0  0
    3.3212    2.1326   -1.9428 H   0  0  0  0  0  0  0  0  0  0  0  0
   -2.4933   -1.5620    0.9851 H   0  0  0  0  0  0  0  0  0  0  0  0
   -1.5726   -0.4370    1.9329 H   0  0  0  0  0  0  0  0  0  0  0  0
   -4.3146   -0.6753    0.4744 H   0  0  0  0  0  0  0  0  0  0  0  0
   -5.8595    1.1615   -0.1380 H   0  0  0  0  0  0  0  0  0  0  0  0
   -2.5036    3.6939   -0.5616 H   0  0  0  0  0  0  0  0  0  0  0  0
   -0.9881    1.8750    0.0380 H   0  0  0  0  0  0  0  0  0  0  0  0
    1.4853   -3.2150    0.4758 H   0  0  0  0  0  0  0  0  0  0  0  0
    0.0865   -3.7092    1.6095 H   0  0  0  0  0  0  0  0  0  0  0  0
    0.2916   -4.4250    0.0358 H   0  0  0  0  0  0  0  0  0  0  0  0
   -2.6220   -2.8158   -0.6068 H   0  0  0  0  0  0  0  0  0  0  0  0
   -2.0320   -3.4823    1.0497 H   0  0  0  0  0  0  0  0  0  0  0  0
   -1.6062   -4.2587   -0.4892 H   0  0  0  0  0  0  0  0  0  0  0  0
   -1.1069   -2.2715   -2.1388 H   0  0  0  0  0  0  0  0  0  0  0  0
   -0.0040   -3.6400   -1.9389 H   0  0  0  0  0  0  0  0  0  0  0  0
    0.6388   -1.9539   -1.9795 H   0  0  0  0  0  0  0  0  0  0  0  0
  1  2  1  0
  2  3  1  0
  3  4  2  0
  4  5  1  0
  5  6  2  0
  6  7  1  0
  7  8  2  0
  6  9  1  0
  9 10  2  0
  9 11  2  0
  9 12  1  0
 12 13  1  0
 13 14  1  0
 14 15  2  0
 15 16  1  0
 16 17  2  0
 17 18  1  0
 18 19  2  0
 17 20  1  0
 20 21  1  0
 20 22  1  0
 20 23  1  0
 12 24  1  0
 24 25  1  0
 24 26  1  0
 24 27  1  0
  8  3  1  0
 19 14  1  0
  1 28  1  0
  1 29  1  0
  1 30  1  0
  4 31  1  0
  5 32  1  0
  7 33  1  0
  8 34  1  0
 13 35  1  0
 13 36  1  0
 15 37  1  0
 16 38  1  0
 18 39  1  0
 19 40  1  0
 25 41  1  0
 25 42  1  0
 25 43  1  0
 26 44  1  0
 26 45  1  0
 26 46  1  0
 27 47  1  0
 27 48  1  0
 27 49  1  0
M  END
$$$$
[H]c1c([H])c([C@@]2([H])C([H])([H])N(c3nc4c([H])c(Cl)c([H])c([H])c4n3[H])C([H])([H])[C@@]2([H])C(=O)N2C([H])([H])C([H])([H])N(C([H])([H])[H])C([H])([H])C2([H])[H])c([H])c(Cl)c1Cl
     RDKit          3D

 56 60  0  0  0  0  0  0  0  0999 V2000
   -3.9969   -3.8182    0.7934 C   0  0  0  0  0  0  0  0  0  0  0  0
   -3.9737   -2.6087    0.0266 N   0  0  0  0  0  0  0  0  0  0  0  0
   -4.4402   -1.4458    0.7122 C   0  0  0  0  0  0  0  0  0  0  0  0
   -3.3350   -0.5622    1.2503 C   0  0  0  0  0  0  0  0  0  0  0  0
   -2.4664   -0.2406    0.1452 N   0  0  0  0  0  0  0  0  0  0  0  0
   -2.6827   -0.9406   -1.0905 C   0  0  0  0  0  0  0  0  0  0  0  0
   -2.7991   -2.4364   -0.7679 C   0  0  0  0  0  0  0  0  0  0  0  0
   -1.4568    0.7270    0.2643 C   0  0  0  0  0  0  0  0  0  0  0  0
   -1.3557    1.3165    1.3648 O   0  0  0  0  0  0  0  0  0  0  0  0
   -0.5729    1.0248   -0.8361 C   0  0  2  0  0  0  0  0  0  0  0  0
    0.4171   -0.1468   -1.0275 C   0  0  0  0  0  0  0  0  0  0  0  0
    1.5732    0.2521   -0.2343 N   0  0  0  0  0  0  0  0  0  0  0  0
    1.4124    1.6046    0.2628 C   0  0  0  0  0  0  0  0  0  0  0  0
    0.3987    2.1461   -0.7007 C   0  0  2  0  0  0  0  0  0  0  0  0
   -0.1201    3.4678   -0.4264 C   0  0  0  0  0  0  0  0  0  0  0  0
   -0.0632    4.0313    0.8193 C   0  0  0  0  0  0  0  0  0  0  0  0
   -0.5672    5.2868    1.0821 C   0  0  0  0  0  0  0  0  0  0  0  0
   -1.1503    6.0156    0.0755 C   0  0  0  0  0  0  0  0  0  0  0  0
   -1.7905    7.6233    0.4357 Cl  0  0  0  0  0  0  0  0  0  0  0  0
   -1.2237    5.4816   -1.1845 C   0  0  0  0  0  0  0  0  0  0  0  0
   -1.9739    6.4412   -2.4421 Cl  0  0  0  0  0  0  0  0  0  0  0  0
   -0.7072    4.2097   -1.4267 C   0  0  0  0  0  0  0  0  0  0  0  0
    2.6847   -0.5898   -0.0011 C   0  0  0  0  0  0  0  0  0  0  0  0
    3.8324   -0.7349   -0.7150 N   0  0  0  0  0  0  0  0  0  0  0  0
    4.6090   -1.6477   -0.1253 C   0  0  0  0  0  0  0  0  0  0  0  0
    5.8471   -2.1570   -0.4310 C   0  0  0  0  0  0  0  0  0  0  0  0
    6.4428   -3.1217    0.3695 C   0  0  0  0  0  0  0  0  0  0  0  0
    8.0084   -3.7813    0.0024 Cl  0  0  0  0  0  0  0  0  0  0  0  0
    5.7857   -3.5795    1.4904 C   0  0  0  0  0  0  0  0  0  0  0  0
    4.5514   -3.0724    1.7963 C   0  0  0  0  0  0  0  0  0  0  0  0
    3.9533   -2.1072    0.9969 C   0  0  0  0  0  0  0  0  0  0  0  0
    2.7882   -1.4421    1.0398 N   0  0  0  0  0  0  0  0  0  0  0  0
   -4.9641   -4.3521    0.6245 H   0  0  0  0  0  0  0  0  0  0  0  0
   -3.9145   -3.6784    1.8788 H   0  0  0  0  0  0  0  0  0  0  0  0
   -3.1822   -4.4838    0.4181 H   0  0  0  0  0  0  0  0  0  0  0  0
   -5.0868   -0.8263    0.0301 H   0  0  0  0  0  0  0  0  0  0  0  0
   -5.1376   -1.7240    1.5577 H   0  0  0  0  0  0  0  0  0  0  0  0
   -3.7959    0.3842    1.5890 H   0  0  0  0  0  0  0  0  0  0  0  0
   -2.8099   -1.0908    2.0719 H   0  0  0  0  0  0  0  0  0  0  0  0
   -3.6980   -0.6394   -1.4481 H   0  0  0  0  0  0  0  0  0  0  0  0
   -1.9860   -0.7369   -1.8962 H   0  0  0  0  0  0  0  0  0  0  0  0
   -1.9121   -2.7789   -0.1942 H   0  0  0  0  0  0  0  0  0  0  0  0
   -2.8315   -2.9972   -1.7113 H   0  0  0  0  0  0  0  0  0  0  0  0
   -1.0792    1.0946   -1.8295 H   0  0  0  0  0  0  0  0  0  0  0  0
    0.0111   -1.0439   -0.5461 H   0  0  0  0  0  0  0  0  0  0  0  0
    0.6740   -0.2915   -2.0834 H   0  0  0  0  0  0  0  0  0  0  0  0
    2.3423    2.2046    0.1266 H   0  0  0  0  0  0  0  0  0  0  0  0
    1.0867    1.6304    1.3117 H   0  0  0  0  0  0  0  0  0  0  0  0
    0.9397    2.1352   -1.7238 H   0  0  0  0  0  0  0  0  0  0  0  0
    0.3896    3.5386    1.6881 H   0  0  0  0  0  0  0  0  0  0  0  0
   -0.5210    5.7361    2.0812 H   0  0  0  0  0  0  0  0  0  0  0  0
   -0.7967    3.8477   -2.4398 H   0  0  0  0  0  0  0  0  0  0  0  0
    6.3819   -1.8262   -1.2889 H   0  0  0  0  0  0  0  0  0  0  0  0
    6.1899   -4.3292    2.1590 H   0  0  0  0  0  0  0  0  0  0  0  0
    4.0100   -3.4099    2.6673 H   0  0  0  0  0  0  0  0  0  0  0  0
    2.0616   -1.5584    1.7658 H   0  0  0  0  0  0  0  0  0  0  0  0
  1  2  1  0
  2  3  1  0
  3  4  1  0
  4  5  1  0
  5  6  1  0
  6  7  1  0
  5  8  1  0
  8  9  2  0
  8 10  1  0
 10 11  1  0
 11 12  1  0
 12 13  1  0
 13 14  1  0
 14 15  1  0
 15 16  2  0
 16 17  1  0
 17 18  2  0
 18 19  1  0
 18 20  1  0
 20 21  1  0
 20 22  2  0
 12 23  1  0
 23 24  2  0
 24 25  1  0
 25 26  2  0
 26 27  1  0
 27 28  1  0
 27 29  2  0
 29 30  1  0
 30 31  2  0
 31 32  1  0
  7  2  1  0
 14 10  1  0
 22 15  1  0
 32 23  1  0
 31 25  1  0
  1 33  1  0
  1 34  1  0
  1 35  1  0
  3 36  1  0
  3 37  1  0
  4 38  1  0
  4 39  1  0
  6 40  1  0
  6 41  1  0
  7 42  1  0
  7 43  1  0
 10 44  1  6
 11 45  1  0
 11 46  1  0
 13 47  1  0
 13 48  1  0
 14 49  1  6
 16 50  1  0
 17 51  1  0
 22 52  1  0
 26 53  1  0
 29 54  1  0
 30 55  1  0
 32 56  1  0
M  END
$$$$
[H]c1nc(N([H])C(=O)c2c([H])c([H])c(N3C([H])([H])C([H])([H])N(C([H])([H])[H])C([H])([H])C3([H])[H])c([H])c2[H])c([H])c(C(F)(F)F)c1[H]
     RDKit          3D

 45 47  0  0  0  0  0  0  0  0999 V2000
   -4.3507    2.2791    1.7146 C   0  0  0  0  0  0  0  0  0  0  0  0
   -4.6924    0.9747    1.2254 N   0  0  0  0  0  0  0  0  0  0  0  0
   -4.0924   -0.0687    1.9853 C   0  0  0  0  0  0  0  0  0  0  0  0
   -2.6741   -0.3843    1.5446 C   0  0  0  0  0  0  0  0  0  0  0  0
   -2.6661   -0.5305    0.1192 N   0  0  0  0  0  0  0  0  0  0  0  0
   -3.9429   -0.4825   -0.5897 C   0  0  0  0  0  0  0  0  0  0  0  0
   -4.5844    0.8367   -0.1993 C   0  0  0  0  0  0  0  0  0  0  0  0
   -1.4334   -0.7089   -0.5948 C   0  0  0  0  0  0  0  0  0  0  0  0
   -0.9990   -1.9563   -0.9771 C   0  0  0  0  0  0  0  0  0  0  0  0
    0.1741   -2.0909   -1.6901 C   0  0  0  0  0  0  0  0  0  0  0  0
    0.9227   -0.9486   -2.0240 C   0  0  0  0  0  0  0  0  0  0  0  0
    0.4656    0.2929   -1.6290 C   0  0  0  0  0  0  0  0  0  0  0  0
   -0.6995    0.4176   -0.9201 C   0  0  0  0  0  0  0  0  0  0  0  0
    2.0932   -1.1810   -2.8204 C   0  0  0  0  0  0  0  0  0  0  0  0
    1.7669   -1.7366   -4.0157 O   0  0  0  0  0  0  0  0  0  0  0  0
    3.4306   -0.9876   -2.6958 N   0  0  0  0  0  0  0  0  0  0  0  0
    4.1873   -0.5044   -1.6076 C   0  0  0  0  0  0  0  0  0  0  0  0
    3.7416   -0.2288   -0.3500 C   0  0  0  0  0  0  0  0  0  0  0  0
    4.5144    0.3169    0.6834 C   0  0  0  0  0  0  0  0  0  0  0  0
    5.8319    0.5919    0.3985 C   0  0  0  0  0  0  0  0  0  0  0  0
    6.3006    0.3206   -0.8588 C   0  0  0  0  0  0  0  0  0  0  0  0
    5.5176   -0.1988   -1.8079 N   0  0  0  0  0  0  0  0  0  0  0  0
    3.9541    0.5994    2.0276 C   0  0  0  0  0  0  0  0  0  0  0  0
    4.7427   -0.1467    2.9185 F   0  0  0  0  0  0  0  0  0  0  0  0
    2.6751    0.0912    2.1340 F   0  0  0  0  0  0  0  0  0  0  0  0
    4.0239    1.9480    2.3239 F   0  0  0  0  0  0  0  0  0  0  0  0
   -3.3225    2.6183    1.4159 H   0  0  0  0  0  0  0  0  0  0  0  0
   -5.1297    2.9995    1.3774 H   0  0  0  0  0  0  0  0  0  0  0  0
   -4.4032    2.2880    2.8279 H   0  0  0  0  0  0  0  0  0  0  0  0
   -4.6667   -1.0190    1.8855 H   0  0  0  0  0  0  0  0  0  0  0  0
   -4.0366    0.2766    3.0476 H   0  0  0  0  0  0  0  0  0  0  0  0
   -1.9515    0.3955    1.8352 H   0  0  0  0  0  0  0  0  0  0  0  0
   -2.3504   -1.3428    2.0078 H   0  0  0  0  0  0  0  0  0  0  0  0
   -4.5982   -1.2859   -0.2102 H   0  0  0  0  0  0  0  0  0  0  0  0
   -3.7908   -0.5002   -1.6790 H   0  0  0  0  0  0  0  0  0  0  0  0
   -5.5680    0.8743   -0.7147 H   0  0  0  0  0  0  0  0  0  0  0  0
   -3.9560    1.6719   -0.5668 H   0  0  0  0  0  0  0  0  0  0  0  0
   -1.6058   -2.8304   -0.7065 H   0  0  0  0  0  0  0  0  0  0  0  0
    0.5390   -3.0657   -2.0018 H   0  0  0  0  0  0  0  0  0  0  0  0
    1.0564    1.1813   -1.8936 H   0  0  0  0  0  0  0  0  0  0  0  0
   -1.0194    1.4037   -0.6242 H   0  0  0  0  0  0  0  0  0  0  0  0
    4.0522   -1.2798   -3.5357 H   0  0  0  0  0  0  0  0  0  0  0  0
    2.7358   -0.4667   -0.0916 H   0  0  0  0  0  0  0  0  0  0  0  0
    6.4523    1.0170    1.1873 H   0  0  0  0  0  0  0  0  0  0  0  0
    7.3558    0.5501   -1.0524 H   0  0  0  0  0  0  0  0  0  0  0  0
  1  2  1  0
  2  3  1  0
  3  4  1  0
  4  5  1  0
  5  6  1  0
  6  7  1  0
  5  8  1  0
  8  9  2  0
  9 10  1  0
 10 11  2  0
 11 12  1  0
 12 13  2  0
 11 14  1  0
 14 15  2  0
 14 16  1  0
 16 17  1  0
 17 18  2  0
 18 19  1  0
 19 20  2  0
 20 21  1  0
 21 22  2  0
 19 23  1  0
 23 24  1  0
 23 25  1  0
 23 26  1  0
  7  2  1  0
 13  8  1  0
 22 17  1  0
  1 27  1  0
  1 28  1  0
  1 29  1  0
  3 30  1  0
  3 31  1  0
  4 32  1  0
  4 33  1  0
  6 34  1  0
  6 35  1  0
  7 36  1  0
  7 37  1  0
  9 38  1  0
 10 39  1  0
 12 40  1  0
 13 41  1  0
 16 42  1  0
 18 43  1  0
 20 44  1  0
 21 45  1  0
M  END
$$$$
[H]OC(=O)C([H])([H])[C@@]([H])(C(=O)N([H])[C@@]([H])(C(=O)N1C([H])([H])C([H])([H])C([H])([H])[C@@]1([H])C(=O)N([H])[C@@]([H])(C(=O)C([H])([H])[H])C([H])([H])[H])C([H])([H])c1c([H])c([H])c(O[H])c([H])c1[H])N([H])C(=O)[C@@]([H])(N([H])C(=O)[C@]([H])(N([H])C(=O)[C@@]([H])(N([H])C(=O)[C@]([H])(N([H])C(=O)[C@@]([H])(N([H])C(=O)C([H])([H])[H])C([H])([H])[H])C([H])([H])[H])C([H])([H])c1c([H])c([H])c([H])c([H])c1[H])C([H])([H])[H])C([H])([H])c1c([H])c([H])c([H])c([H])c1[H]
     RDKit          3D

138141  0  0  0  0  0  0  0  0999 V2000
  -11.6891    1.1142    1.1477 C   0  0  0  0  0  0  0  0  0  0  0  0
  -11.6805    0.0843    2.2388 C   0  0  1  0  0  0  0  0  0  0  0  0
  -10.3825   -0.6207    2.3331 N   0  0  0  0  0  0  0  0  0  0  0  0
  -10.3064   -1.9378    1.9049 C   0  0  0  0  0  0  0  0  0  0  0  0
  -11.4274   -2.4202    1.4576 O   0  0  0  0  0  0  0  0  0  0  0  0
   -9.2002   -2.8119    1.8959 C   0  0  2  0  0  0  0  0  0  0  0  0
   -8.5764   -3.0221    3.3039 C   0  0  0  0  0  0  0  0  0  0  0  0
   -7.4688   -4.0111    2.9013 C   0  0  0  0  0  0  0  0  0  0  0  0
   -7.3716   -3.9357    1.3587 C   0  0  0  0  0  0  0  0  0  0  0  0
   -7.9796   -2.5653    1.2095 N   0  0  0  0  0  0  0  0  0  0  0  0
   -7.3095   -1.5363    0.6123 C   0  0  0  0  0  0  0  0  0  0  0  0
   -7.8192   -0.3448    0.7222 O   0  0  0  0  0  0  0  0  0  0  0  0
   -6.0576   -1.5117   -0.1741 C   0  0  1  0  0  0  0  0  0  0  0  0
   -6.4553   -1.6168   -1.6307 C   0  0  0  0  0  0  0  0  0  0  0  0
   -7.3355   -0.5942   -2.1625 C   0  0  0  0  0  0  0  0  0  0  0  0
   -8.7105   -0.6311   -2.0778 C   0  0  0  0  0  0  0  0  0  0  0  0
   -9.5012    0.3504   -2.6103 C   0  0  0  0  0  0  0  0  0  0  0  0
   -8.9581    1.4490   -3.2728 C   0  0  0  0  0  0  0  0  0  0  0  0
   -9.7181    2.4549   -3.8233 O   0  0  0  0  0  0  0  0  0  0  0  0
   -7.5823    1.5032   -3.3678 C   0  0  0  0  0  0  0  0  0  0  0  0
   -6.8048    0.5057   -2.8254 C   0  0  0  0  0  0  0  0  0  0  0  0
   -5.1990   -0.4458    0.1068 N   0  0  0  0  0  0  0  0  0  0  0  0
   -3.8709   -0.1668   -0.2336 C   0  0  0  0  0  0  0  0  0  0  0  0
   -3.2998   -1.0113   -1.0290 O   0  0  0  0  0  0  0  0  0  0  0  0
   -3.0379    0.9555    0.2120 C   0  0  2  0  0  0  0  0  0  0  0  0
   -3.6102    2.2871    0.4365 C   0  0  0  0  0  0  0  0  0  0  0  0
   -4.2021    3.0181   -0.6654 C   0  0  0  0  0  0  0  0  0  0  0  0
   -3.3968    3.7104   -1.5540 O   0  0  0  0  0  0  0  0  0  0  0  0
   -5.4402    3.0391   -0.8362 O   0  0  0  0  0  0  0  0  0  0  0  0
   -1.7443    1.0332   -0.4766 N   0  0  0  0  0  0  0  0  0  0  0  0
   -0.6058    0.3416   -0.0808 C   0  0  0  0  0  0  0  0  0  0  0  0
   -0.7885   -0.4124    0.9626 O   0  0  0  0  0  0  0  0  0  0  0  0
    0.7200    0.3484   -0.6464 C   0  0  2  0  0  0  0  0  0  0  0  0
    0.9616    0.0184   -2.0736 C   0  0  0  0  0  0  0  0  0  0  0  0
    0.3246    0.8735   -3.0686 C   0  0  0  0  0  0  0  0  0  0  0  0
    0.8076    2.1149   -3.4122 C   0  0  0  0  0  0  0  0  0  0  0  0
    0.2659    2.8903   -4.4061 C   0  0  0  0  0  0  0  0  0  0  0  0
   -0.8119    2.4171   -5.1013 C   0  0  0  0  0  0  0  0  0  0  0  0
   -1.3079    1.1890   -4.7767 C   0  0  0  0  0  0  0  0  0  0  0  0
   -0.7841    0.3953   -3.7887 C   0  0  0  0  0  0  0  0  0  0  0  0
    1.6009   -0.5582    0.1275 N   0  0  0  0  0  0  0  0  0  0  0  0
    2.8418   -0.2445    0.6186 C   0  0  0  0  0  0  0  0  0  0  0  0
    3.2932    0.9554    0.3894 O   0  0  0  0  0  0  0  0  0  0  0  0
    3.7404   -1.1147    1.3842 C   0  0  1  0  0  0  0  0  0  0  0  0
    4.0961   -2.4169    0.6942 C   0  0  0  0  0  0  0  0  0  0  0  0
    5.0072   -0.4245    1.6910 N   0  0  0  0  0  0  0  0  0  0  0  0
    5.9678   -0.2475    0.6832 C   0  0  0  0  0  0  0  0  0  0  0  0
    5.6342   -0.7429   -0.4803 O   0  0  0  0  0  0  0  0  0  0  0  0
    7.2794    0.4029    0.7665 C   0  0  2  0  0  0  0  0  0  0  0  0
    7.2840    1.8602    1.1641 C   0  0  0  0  0  0  0  0  0  0  0  0
    6.7927    2.2369    2.4750 C   0  0  0  0  0  0  0  0  0  0  0  0
    7.6300    2.1276    3.5853 C   0  0  0  0  0  0  0  0  0  0  0  0
    7.2588    2.5318    4.8113 C   0  0  0  0  0  0  0  0  0  0  0  0
    6.0001    3.0757    4.9895 C   0  0  0  0  0  0  0  0  0  0  0  0
    5.1232    3.2128    3.9407 C   0  0  0  0  0  0  0  0  0  0  0  0
    5.5493    2.7810    2.6786 C   0  0  0  0  0  0  0  0  0  0  0  0
    8.0619    0.1671   -0.3942 N   0  0  0  0  0  0  0  0  0  0  0  0
    8.7967   -0.0523   -1.4846 C   0  0  0  0  0  0  0  0  0  0  0  0
    9.2165    0.7542   -2.3492 O   0  0  0  0  0  0  0  0  0  0  0  0
    9.2468   -1.5303   -1.7922 C   0  0  1  0  0  0  0  0  0  0  0  0
    8.4700   -2.0735   -2.9219 C   0  0  0  0  0  0  0  0  0  0  0  0
   10.6449   -1.3234   -2.1964 N   0  0  0  0  0  0  0  0  0  0  0  0
   11.6753   -1.3970   -1.2058 C   0  0  0  0  0  0  0  0  0  0  0  0
   11.3171   -1.6617   -0.0225 O   0  0  0  0  0  0  0  0  0  0  0  0
   13.1141   -1.1655   -1.5348 C   0  0  2  0  0  0  0  0  0  0  0  0
   13.6791   -2.0601   -2.5562 C   0  0  0  0  0  0  0  0  0  0  0  0
   13.8079   -1.2699   -0.2439 N   0  0  0  0  0  0  0  0  0  0  0  0
   14.0848   -0.0637    0.4316 C   0  0  0  0  0  0  0  0  0  0  0  0
   14.7752   -0.0667    1.7412 C   0  0  0  0  0  0  0  0  0  0  0  0
   13.7662    1.0663   -0.0391 O   0  0  0  0  0  0  0  0  0  0  0  0
  -12.1164    0.5509    3.5539 C   0  0  0  0  0  0  0  0  0  0  0  0
  -13.4017    1.2387    3.8313 C   0  0  0  0  0  0  0  0  0  0  0  0
  -11.3633    0.3618    4.5099 O   0  0  0  0  0  0  0  0  0  0  0  0
  -12.4734    1.8916    1.4003 H   0  0  0  0  0  0  0  0  0  0  0  0
  -12.0615    0.6599    0.1832 H   0  0  0  0  0  0  0  0  0  0  0  0
  -10.7244    1.5635    0.9037 H   0  0  0  0  0  0  0  0  0  0  0  0
  -12.4242   -0.6963    1.9161 H   0  0  0  0  0  0  0  0  0  0  0  0
   -9.5753   -0.1229    2.7512 H   0  0  0  0  0  0  0  0  0  0  0  0
   -9.5500   -3.9035    1.6725 H   0  0  0  0  0  0  0  0  0  0  0  0
   -9.2890   -3.4383    4.0010 H   0  0  0  0  0  0  0  0  0  0  0  0
   -8.1304   -2.0535    3.5668 H   0  0  0  0  0  0  0  0  0  0  0  0
   -7.7158   -4.9943    3.2707 H   0  0  0  0  0  0  0  0  0  0  0  0
   -6.4955   -3.5963    3.2342 H   0  0  0  0  0  0  0  0  0  0  0  0
   -6.3666   -3.9850    0.9862 H   0  0  0  0  0  0  0  0  0  0  0  0
   -8.0704   -4.7087    0.9852 H   0  0  0  0  0  0  0  0  0  0  0  0
   -5.5271   -2.5111   -0.0004 H   0  0  0  0  0  0  0  0  0  0  0  0
   -6.9071   -2.6321   -1.7916 H   0  0  0  0  0  0  0  0  0  0  0  0
   -5.5177   -1.6070   -2.2489 H   0  0  0  0  0  0  0  0  0  0  0  0
   -9.2206   -1.4587   -1.5727 H   0  0  0  0  0  0  0  0  0  0  0  0
  -10.6095    0.3261   -2.5430 H   0  0  0  0  0  0  0  0  0  0  0  0
   -9.9712    3.2838   -3.2723 H   0  0  0  0  0  0  0  0  0  0  0  0
   -7.1458    2.3597   -3.8777 H   0  0  0  0  0  0  0  0  0  0  0  0
   -5.7016    0.5393   -2.9084 H   0  0  0  0  0  0  0  0  0  0  0  0
   -5.6355    0.3380    0.7214 H   0  0  0  0  0  0  0  0  0  0  0  0
   -2.7005    0.5925    1.2724 H   0  0  0  0  0  0  0  0  0  0  0  0
   -4.3608    2.1814    1.2797 H   0  0  0  0  0  0  0  0  0  0  0  0
   -2.7969    2.9123    0.9403 H   0  0  0  0  0  0  0  0  0  0  0  0
   -3.7817    4.0247   -2.4251 H   0  0  0  0  0  0  0  0  0  0  0  0
   -1.7173    1.6692   -1.2877 H   0  0  0  0  0  0  0  0  0  0  0  0
    1.2045    1.3756   -0.4067 H   0  0  0  0  0  0  0  0  0  0  0  0
    0.5973   -1.0549   -2.2063 H   0  0  0  0  0  0  0  0  0  0  0  0
    2.0648   -0.0761   -2.2940 H   0  0  0  0  0  0  0  0  0  0  0  0
    1.6768    2.4868   -2.8493 H   0  0  0  0  0  0  0  0  0  0  0  0
    0.6696    3.8712   -4.6607 H   0  0  0  0  0  0  0  0  0  0  0  0
   -1.2448    3.0155   -5.8799 H   0  0  0  0  0  0  0  0  0  0  0  0
   -2.1685    0.8022   -5.3266 H   0  0  0  0  0  0  0  0  0  0  0  0
   -1.1850   -0.5594   -3.5401 H   0  0  0  0  0  0  0  0  0  0  0  0
    1.1918   -1.5250    0.2918 H   0  0  0  0  0  0  0  0  0  0  0  0
    3.2862   -1.4554    2.3774 H   0  0  0  0  0  0  0  0  0  0  0  0
    5.1519   -2.6730    0.9254 H   0  0  0  0  0  0  0  0  0  0  0  0
    3.9240   -2.4120   -0.3883 H   0  0  0  0  0  0  0  0  0  0  0  0
    3.4979   -3.2620    1.1488 H   0  0  0  0  0  0  0  0  0  0  0  0
    5.1113   -0.1336    2.6797 H   0  0  0  0  0  0  0  0  0  0  0  0
    7.8758   -0.0451    1.6655 H   0  0  0  0  0  0  0  0  0  0  0  0
    6.6921    2.4453    0.3995 H   0  0  0  0  0  0  0  0  0  0  0  0
    8.3352    2.2597    1.0487 H   0  0  0  0  0  0  0  0  0  0  0  0
    8.6287    1.6824    3.4199 H   0  0  0  0  0  0  0  0  0  0  0  0
    7.9307    2.4349    5.6734 H   0  0  0  0  0  0  0  0  0  0  0  0
    5.6967    3.3996    5.9815 H   0  0  0  0  0  0  0  0  0  0  0  0
    4.1394    3.6350    4.0664 H   0  0  0  0  0  0  0  0  0  0  0  0
    4.8465    2.8998    1.8697 H   0  0  0  0  0  0  0  0  0  0  0  0
    7.8971    1.4828   -0.7285 H   0  0  0  0  0  0  0  0  0  0  0  0
    9.2289   -2.0276   -0.8304 H   0  0  0  0  0  0  0  0  0  0  0  0
    7.8870   -3.0069   -2.6804 H   0  0  0  0  0  0  0  0  0  0  0  0
    7.7459   -1.3094   -3.2934 H   0  0  0  0  0  0  0  0  0  0  0  0
    9.1322   -2.3694   -3.7861 H   0  0  0  0  0  0  0  0  0  0  0  0
   10.8405   -1.1358   -3.1944 H   0  0  0  0  0  0  0  0  0  0  0  0
   13.1505   -0.0986   -1.8902 H   0  0  0  0  0  0  0  0  0  0  0  0
   14.3721   -2.8405   -2.1701 H   0  0  0  0  0  0  0  0  0  0  0  0
   12.8569   -2.6397   -3.0592 H   0  0  0  0  0  0  0  0  0  0  0  0
   14.2257   -1.4806   -3.3492 H   0  0  0  0  0  0  0  0  0  0  0  0
   14.0761   -2.1921    0.1059 H   0  0  0  0  0  0  0  0  0  0  0  0
   15.5757    0.7004    1.8204 H   0  0  0  0  0  0  0  0  0  0  0  0
   15.2653   -1.0271    1.9613 H   0  0  0  0  0  0  0  0  0  0  0  0
   14.0099    0.1031    2.5438 H   0  0  0  0  0  0  0  0  0  0  0  0
  -13.2787    2.0213    4.5949 H   0  0  0  0  0  0  0  0  0  0  0  0
  -14.0529    0.4697    4.3348 H   0  0  0  0  0  0  0  0  0  0  0  0
  -13.9052    1.5755    2.9126 H   0  0  0  0  0  0  0  0  0  0  0  0
  1  2  1  0
  2  3  1  0
  3  4  1  0
  4  5  2  0
  4  6  1  0
  6  7  1  0
  7  8  1  0
  8  9  1  0
  9 10  1  0
 10 11  1  0
 11 12  2  0
 11 13  1  0
 13 14  1  0
 14 15  1  0
 15 16  2  0
 16 17  1  0
 17 18  2  0
 18 19  1  0
 18 20  1  0
 20 21  2  0
 13 22  1  0
 22 23  1  0
 23 24  2  0
 23 25  1  0
 25 26  1  0
 26 27  1  0
 27 28  1  0
 27 29  2  0
 25 30  1  0
 30 31  1  0
 31 32  2  0
 31 33  1  0
 33 34  1  0
 34 35  1  0
 35 36  2  0
 36 37  1  0
 37 38  2  0
 38 39  1  0
 39 40  2  0
 33 41  1  0
 41 42  1  0
 42 43  2  0
 42 44  1  0
 44 45  1  0
 44 46  1  0
 46 47  1  0
 47 48  2  0
 47 49  1  0
 49 50  1  0
 50 51  1  0
 51 52  2  0
 52 53  1  0
 53 54  2  0
 54 55  1  0
 55 56  2  0
 49 57  1  0
 57 58  1  0
 58 59  2  0
 58 60  1  0
 60 61  1  0
 60 62  1  0
 62 63  1  0
 63 64  2  0
 63 65  1  0
 65 66  1  0
 65 67  1  0
 67 68  1  0
 68 69  1  0
 68 70  2  0
  2 71  1  0
 71 72  1  0
 71 73  2  0
 10  6  1  0
 21 15  1  0
 40 35  1  0
 56 51  1  0
  1 74  1  0
  1 75  1  0
  1 76  1  0
  2 77  1  6
  3 78  1  0
  6 79  1  6
  7 80  1  0
  7 81  1  0
  8 82  1  0
  8 83  1  0
  9 84  1  0
  9 85  1  0
 13 86  1  1
 14 87  1  0
 14 88  1  0
 16 89  1  0
 17 90  1  0
 19 91  1  0
 20 92  1  0
 21 93  1  0
 22 94  1  0
 25 95  1  1
 26 96  1  0
 26 97  1  0
 28 98  1  0
 30 99  1  0
 33100  1  6
 34101  1  0
 34102  1  0
 36103  1  0
 37104  1  0
 38105  1  0
 39106  1  0
 40107  1  0
 41108  1  0
 44109  1  1
 45110  1  0
 45111  1  0
 45112  1  0
 46113  1  0
 49114  1  1
 50115  1  0
 50116  1  0
 52117  1  0
 53118  1  0
 54119  1  0
 55120  1  0
 56121  1  0
 57122  1  0
 60123  1  1
 61124  1  0
 61125  1  0
 61126  1  0
 62127  1  0
 65128  1  6
 66129  1  0
 66130  1  0
 66131  1  0
 67132  1  0
 69133  1  0
 69134  1  0
 69135  1  0
 72136  1  0
 72137  1  0
 72138  1  0
M  END
$$$$
[H]c1c([H])c([H])c(C([H])([H])[C@@]([H])(C(=O)N([H])[C@]([H])(C(=O)N([H])[C@]([H])(C(=O)N([H])[C@]([H])(C(=O)N([H])[C@]([H])(C(=O)N([H])[C@]([H])(C(=O)N([H])[C@]([H])(C(=O)N([H])[C@]([H])(C(=O)N([H])[C@]([H])(C(=O)N([H])[H])C([H])([H])C([H])(C([H])([H])[H])C([H])([H])[H])C([H])([H])[H])C([H])([H])[H])C([H])([H])[H])C([H])(C([H])([H])[H])C([H])([H])[H])C([H])([H])C([H])(C([H])([H])[H])C([H])([H])[H])C([H])([H])C([H])(C([H])([H])[H])C([H])([H])[H])C([H])([H])C([H])(C([H])([H])[H])C([H])([H])[H])N([H])[H])c([H])c1[H]
     RDKit          3D

146146  0  0  0  0  0  0  0  0999 V2000
    1.8884   -0.1242    2.2402 C   0  0  0  0  0  0  0  0  0  0  0  0
    1.4287    1.2859    2.3897 C   0  0  0  0  0  0  0  0  0  0  0  0
    0.3077    1.3464    3.4062 C   0  0  0  0  0  0  0  0  0  0  0  0
    0.9242    1.8817    1.0762 C   0  0  2  0  0  0  0  0  0  0  0  0
   -0.1773    1.1489    0.5498 N   0  0  0  0  0  0  0  0  0  0  0  0
   -1.4965    1.6225    0.3628 C   0  0  0  0  0  0  0  0  0  0  0  0
   -1.7211    2.8033    0.6884 O   0  0  0  0  0  0  0  0  0  0  0  0
   -2.5858    0.7961   -0.1884 C   0  0  2  0  0  0  0  0  0  0  0  0
   -2.1177    0.1274   -1.4806 C   0  0  0  0  0  0  0  0  0  0  0  0
   -1.6907    1.0852   -2.5359 C   0  0  0  0  0  0  0  0  0  0  0  0
   -1.2168    0.2691   -3.7509 C   0  0  0  0  0  0  0  0  0  0  0  0
   -2.7528    2.0014   -3.0476 C   0  0  0  0  0  0  0  0  0  0  0  0
   -3.8585    1.4226   -0.3130 N   0  0  0  0  0  0  0  0  0  0  0  0
   -5.0925    0.8269    0.1256 C   0  0  0  0  0  0  0  0  0  0  0  0
   -4.9953   -0.3002    0.6659 O   0  0  0  0  0  0  0  0  0  0  0  0
   -6.3625    1.5628   -0.0930 C   0  0  2  0  0  0  0  0  0  0  0  0
   -6.3953    2.9688    0.3508 C   0  0  0  0  0  0  0  0  0  0  0  0
   -6.2086    3.2774    1.7729 C   0  0  0  0  0  0  0  0  0  0  0  0
   -4.9483    2.8832    2.4401 C   0  0  0  0  0  0  0  0  0  0  0  0
   -6.3090    4.8083    1.9326 C   0  0  0  0  0  0  0  0  0  0  0  0
   -7.4798    0.7882    0.3998 N   0  0  0  0  0  0  0  0  0  0  0  0
   -8.2332   -0.1660   -0.2860 C   0  0  0  0  0  0  0  0  0  0  0  0
   -7.9224   -0.4313   -1.4702 O   0  0  0  0  0  0  0  0  0  0  0  0
   -9.3825   -0.8882    0.2892 C   0  0  2  0  0  0  0  0  0  0  0  0
   -9.2572   -1.2422    1.7241 C   0  0  0  0  0  0  0  0  0  0  0  0
   -8.1367   -2.1145    2.1387 C   0  0  0  0  0  0  0  0  0  0  0  0
   -8.2476   -2.3211    3.6638 C   0  0  0  0  0  0  0  0  0  0  0  0
   -8.3312   -3.5192    1.5556 C   0  0  0  0  0  0  0  0  0  0  0  0
   -9.9396   -1.8997   -0.5663 N   0  0  0  0  0  0  0  0  0  0  0  0
  -11.2334   -1.8585   -1.1150 C   0  0  0  0  0  0  0  0  0  0  0  0
  -11.9692   -0.8851   -0.8546 O   0  0  0  0  0  0  0  0  0  0  0  0
  -11.7109   -2.9434   -1.9775 C   0  0  1  0  0  0  0  0  0  0  0  0
  -10.6209   -3.8469   -2.3540 N   0  0  0  0  0  0  0  0  0  0  0  0
  -12.7570   -3.8341   -1.3548 C   0  0  0  0  0  0  0  0  0  0  0  0
  -13.9921   -3.1357   -0.9480 C   0  0  0  0  0  0  0  0  0  0  0  0
  -15.0408   -2.9608   -1.8270 C   0  0  0  0  0  0  0  0  0  0  0  0
  -16.2123   -2.3183   -1.4234 C   0  0  0  0  0  0  0  0  0  0  0  0
  -16.3542   -1.8404   -0.1356 C   0  0  0  0  0  0  0  0  0  0  0  0
  -15.3053   -2.0174    0.7352 C   0  0  0  0  0  0  0  0  0  0  0  0
  -14.1594   -2.6451    0.3432 C   0  0  0  0  0  0  0  0  0  0  0  0
    2.0615    1.8674    0.1469 C   0  0  0  0  0  0  0  0  0  0  0  0
    1.8940    1.2770   -0.9763 O   0  0  0  0  0  0  0  0  0  0  0  0
    3.3333    2.4423    0.3677 N   0  0  0  0  0  0  0  0  0  0  0  0
    4.4053    2.3879   -0.5975 C   0  0  1  0  0  0  0  0  0  0  0  0
    4.9320    3.7917   -0.7897 C   0  0  0  0  0  0  0  0  0  0  0  0
    5.5568    1.5901   -0.0404 C   0  0  0  0  0  0  0  0  0  0  0  0
    5.4701    1.1512    1.1431 O   0  0  0  0  0  0  0  0  0  0  0  0
    6.7183    1.3174   -0.7913 N   0  0  0  0  0  0  0  0  0  0  0  0
    7.7877    0.5349   -0.1570 C   0  0  1  0  0  0  0  0  0  0  0  0
    7.6115   -0.8915   -0.7644 C   0  0  0  0  0  0  0  0  0  0  0  0
    9.1112    1.0514   -0.4803 C   0  0  0  0  0  0  0  0  0  0  0  0
    9.2204    1.8933   -1.4375 O   0  0  0  0  0  0  0  0  0  0  0  0
   10.3206    0.6951    0.1878 N   0  0  0  0  0  0  0  0  0  0  0  0
   11.6050    1.2417   -0.2022 C   0  0  1  0  0  0  0  0  0  0  0  0
   11.8728    2.4695    0.6939 C   0  0  0  0  0  0  0  0  0  0  0  0
   12.6683    0.2341   -0.0053 C   0  0  0  0  0  0  0  0  0  0  0  0
   12.3751   -0.8803    0.5069 O   0  0  0  0  0  0  0  0  0  0  0  0
   14.0054    0.4747   -0.3713 N   0  0  0  0  0  0  0  0  0  0  0  0
   15.0373   -0.5635   -0.1337 C   0  0  1  0  0  0  0  0  0  0  0  0
   15.1857   -1.3673   -1.3985 C   0  0  0  0  0  0  0  0  0  0  0  0
   16.1645   -2.4900   -1.3377 C   0  0  0  0  0  0  0  0  0  0  0  0
   15.8146   -3.4940   -0.2639 C   0  0  0  0  0  0  0  0  0  0  0  0
   16.1010   -3.2830   -2.6646 C   0  0  0  0  0  0  0  0  0  0  0  0
   16.2315    0.1292    0.3178 C   0  0  0  0  0  0  0  0  0  0  0  0
   16.2291    1.4117    0.4109 O   0  0  0  0  0  0  0  0  0  0  0  0
   17.4176   -0.5449    0.6707 N   0  0  0  0  0  0  0  0  0  0  0  0
    1.5591   -0.8174    3.0401 H   0  0  0  0  0  0  0  0  0  0  0  0
    3.0116   -0.1449    2.2598 H   0  0  0  0  0  0  0  0  0  0  0  0
    1.6327   -0.5084    1.2270 H   0  0  0  0  0  0  0  0  0  0  0  0
    2.2609    1.8957    2.7984 H   0  0  0  0  0  0  0  0  0  0  0  0
   -0.6306    1.1710    2.8405 H   0  0  0  0  0  0  0  0  0  0  0  0
    0.4430    0.5982    4.2112 H   0  0  0  0  0  0  0  0  0  0  0  0
    0.2660    2.3820    3.8008 H   0  0  0  0  0  0  0  0  0  0  0  0
    0.6420    2.9387    1.2785 H   0  0  0  0  0  0  0  0  0  0  0  0
   -0.0292    0.1308    0.2576 H   0  0  0  0  0  0  0  0  0  0  0  0
   -2.7539   -0.0921    0.5065 H   0  0  0  0  0  0  0  0  0  0  0  0
   -1.2524   -0.5110   -1.2135 H   0  0  0  0  0  0  0  0  0  0  0  0
   -2.9167   -0.5593   -1.7944 H   0  0  0  0  0  0  0  0  0  0  0  0
   -0.8204    1.7058   -2.2369 H   0  0  0  0  0  0  0  0  0  0  0  0
   -0.6801   -0.5989   -3.3433 H   0  0  0  0  0  0  0  0  0  0  0  0
   -0.4870    0.8831   -4.3476 H   0  0  0  0  0  0  0  0  0  0  0  0
   -2.0763   -0.0027   -4.3792 H   0  0  0  0  0  0  0  0  0  0  0  0
   -2.6347    3.0075   -2.5845 H   0  0  0  0  0  0  0  0  0  0  0  0
   -3.7520    1.5616   -2.9204 H   0  0  0  0  0  0  0  0  0  0  0  0
   -2.5617    2.1853   -4.1505 H   0  0  0  0  0  0  0  0  0  0  0  0
   -3.9335    2.3827   -0.7282 H   0  0  0  0  0  0  0  0  0  0  0  0
   -6.4633    1.5434   -1.2238 H   0  0  0  0  0  0  0  0  0  0  0  0
   -5.5920    3.5242   -0.2175 H   0  0  0  0  0  0  0  0  0  0  0  0
   -7.3466    3.4284    0.0065 H   0  0  0  0  0  0  0  0  0  0  0  0
   -7.0712    2.9195    2.4178 H   0  0  0  0  0  0  0  0  0  0  0  0
   -4.7580    1.8160    2.5685 H   0  0  0  0  0  0  0  0  0  0  0  0
   -4.0870    3.4761    2.0580 H   0  0  0  0  0  0  0  0  0  0  0  0
   -5.0418    3.2627    3.5165 H   0  0  0  0  0  0  0  0  0  0  0  0
   -6.5749    5.0339    2.9770 H   0  0  0  0  0  0  0  0  0  0  0  0
   -5.3680    5.2930    1.6119 H   0  0  0  0  0  0  0  0  0  0  0  0
   -7.1741    5.1181    1.3189 H   0  0  0  0  0  0  0  0  0  0  0  0
   -7.7410    0.9878    1.4058 H   0  0  0  0  0  0  0  0  0  0  0  0
  -10.2092   -0.0729    0.2907 H   0  0  0  0  0  0  0  0  0  0  0  0
   -9.1826   -0.2649    2.2910 H   0  0  0  0  0  0  0  0  0  0  0  0
  -10.2134   -1.6945    2.0774 H   0  0  0  0  0  0  0  0  0  0  0  0
   -7.1459   -1.7889    1.8334 H   0  0  0  0  0  0  0  0  0  0  0  0
   -7.5025   -3.1004    3.9168 H   0  0  0  0  0  0  0  0  0  0  0  0
   -9.2938   -2.6308    3.8631 H   0  0  0  0  0  0  0  0  0  0  0  0
   -7.9900   -1.4301    4.2308 H   0  0  0  0  0  0  0  0  0  0  0  0
   -9.3905   -3.7097    1.4028 H   0  0  0  0  0  0  0  0  0  0  0  0
   -7.6923   -3.6434    0.6489 H   0  0  0  0  0  0  0  0  0  0  0  0
   -7.9340   -4.2699    2.2911 H   0  0  0  0  0  0  0  0  0  0  0  0
   -9.3402   -2.7166   -0.7973 H   0  0  0  0  0  0  0  0  0  0  0  0
  -12.1374   -2.5646   -2.9405 H   0  0  0  0  0  0  0  0  0  0  0  0
   -9.8347   -3.3651   -2.8136 H   0  0  0  0  0  0  0  0  0  0  0  0
  -10.3299   -4.4677   -1.5702 H   0  0  0  0  0  0  0  0  0  0  0  0
  -12.3279   -4.3490   -0.4500 H   0  0  0  0  0  0  0  0  0  0  0  0
  -13.0379   -4.6582   -2.0406 H   0  0  0  0  0  0  0  0  0  0  0  0
  -14.9809   -3.3126   -2.8471 H   0  0  0  0  0  0  0  0  0  0  0  0
  -17.0441   -2.1714   -2.1045 H   0  0  0  0  0  0  0  0  0  0  0  0
  -17.2784   -1.3347    0.1813 H   0  0  0  0  0  0  0  0  0  0  0  0
  -15.4656   -1.6229    1.7512 H   0  0  0  0  0  0  0  0  0  0  0  0
  -13.3456   -2.7680    1.0630 H   0  0  0  0  0  0  0  0  0  0  0  0
    3.5197    2.9330    1.2614 H   0  0  0  0  0  0  0  0  0  0  0  0
    4.1647    1.9443   -1.5550 H   0  0  0  0  0  0  0  0  0  0  0  0
    4.0819    4.4221   -1.1507 H   0  0  0  0  0  0  0  0  0  0  0  0
    5.2670    4.2408    0.1728 H   0  0  0  0  0  0  0  0  0  0  0  0
    5.7004    3.8651   -1.5886 H   0  0  0  0  0  0  0  0  0  0  0  0
    6.8878    1.6267   -1.7585 H   0  0  0  0  0  0  0  0  0  0  0  0
    7.5846    0.4162    0.8943 H   0  0  0  0  0  0  0  0  0  0  0  0
    8.5034   -1.4885   -0.5543 H   0  0  0  0  0  0  0  0  0  0  0  0
    7.4557   -0.7618   -1.8544 H   0  0  0  0  0  0  0  0  0  0  0  0
    6.7013   -1.2893   -0.2837 H   0  0  0  0  0  0  0  0  0  0  0  0
   10.3135    0.0293    0.9800 H   0  0  0  0  0  0  0  0  0  0  0  0
   11.5208    1.6177   -1.2294 H   0  0  0  0  0  0  0  0  0  0  0  0
   11.3629    3.3195    0.2290 H   0  0  0  0  0  0  0  0  0  0  0  0
   12.9687    2.5983    0.7130 H   0  0  0  0  0  0  0  0  0  0  0  0
   11.4599    2.2626    1.7004 H   0  0  0  0  0  0  0  0  0  0  0  0
   14.3207    1.3548   -0.8056 H   0  0  0  0  0  0  0  0  0  0  0  0
   14.6193   -1.2250    0.6786 H   0  0  0  0  0  0  0  0  0  0  0  0
   15.4080   -0.7064   -2.2567 H   0  0  0  0  0  0  0  0  0  0  0  0
   14.1777   -1.8298   -1.6322 H   0  0  0  0  0  0  0  0  0  0  0  0
   17.1896   -2.1644   -1.2321 H   0  0  0  0  0  0  0  0  0  0  0  0
   16.4492   -3.3968    0.6314 H   0  0  0  0  0  0  0  0  0  0  0  0
   15.9581   -4.5134   -0.6660 H   0  0  0  0  0  0  0  0  0  0  0  0
   14.7328   -3.4177   -0.0018 H   0  0  0  0  0  0  0  0  0  0  0  0
   15.0214   -3.5883   -2.7797 H   0  0  0  0  0  0  0  0  0  0  0  0
   16.3163   -2.6205   -3.4958 H   0  0  0  0  0  0  0  0  0  0  0  0
   16.7188   -4.1738   -2.5887 H   0  0  0  0  0  0  0  0  0  0  0  0
   17.4103   -1.2994    1.3761 H   0  0  0  0  0  0  0  0  0  0  0  0
   18.3285   -0.2899    0.2256 H   0  0  0  0  0  0  0  0  0  0  0  0
  1  2  1  0
  2  3  1  0
  2  4  1  0
  4  5  1  0
  5  6  1  0
  6  7  2  0
  6  8  1  0
  8  9  1  0
  9 10  1  0
 10 11  1  0
 10 12  1  0
  8 13  1  0
 13 14  1  0
 14 15  2  0
 14 16  1  0
 16 17  1  0
 17 18  1  0
 18 19  1  0
 18 20  1  0
 16 21  1  0
 21 22  1  0
 22 23  2  0
 22 24  1  0
 24 25  1  0
 25 26  1  0
 26 27  1  0
 26 28  1  0
 24 29  1  0
 29 30  1  0
 30 31  2  0
 30 32  1  0
 32 33  1  0
 32 34  1  0
 34 35  1  0
 35 36  2  0
 36 37  1  0
 37 38  2  0
 38 39  1  0
 39 40  2  0
  4 41  1  0
 41 42  2  0
 41 43  1  0
 43 44  1  0
 44 45  1  0
 44 46  1  0
 46 47  2  0
 46 48  1  0
 48 49  1  0
 49 50  1  0
 49 51  1  0
 51 52  2  0
 51 53  1  0
 53 54  1  0
 54 55  1  0
 54 56  1  0
 56 57  2  0
 56 58  1  0
 58 59  1  0
 59 60  1  0
 60 61  1  0
 61 62  1  0
 61 63  1  0
 59 64  1  0
 64 65  2  0
 64 66  1  0
 40 35  1  0
  1 67  1  0
  1 68  1  0
  1 69  1  0
  2 70  1  0
  3 71  1  0
  3 72  1  0
  3 73  1  0
  4 74  1  1
  5 75  1  0
  8 76  1  1
  9 77  1  0
  9 78  1  0
 10 79  1  0
 11 80  1  0
 11 81  1  0
 11 82  1  0
 12 83  1  0
 12 84  1  0
 12 85  1  0
 13 86  1  0
 16 87  1  6
 17 88  1  0
 17 89  1  0
 18 90  1  0
 19 91  1  0
 19 92  1  0
 19 93  1  0
 20 94  1  0
 20 95  1  0
 20 96  1  0
 21 97  1  0
 24 98  1  1
 25 99  1  0
 25100  1  0
 26101  1  0
 27102  1  0
 27103  1  0
 27104  1  0
 28105  1  0
 28106  1  0
 28107  1  0
 29108  1  0
 32109  1  6
 33110  1  0
 33111  1  0
 34112  1  0
 34113  1  0
 36114  1  0
 37115  1  0
 38116  1  0
 39117  1  0
 40118  1  0
 43119  1  0
 44120  1  6
 45121  1  0
 45122  1  0
 45123  1  0
 48124  1  0
 49125  1  1
 50126  1  0
 50127  1  0
 50128  1  0
 53129  1  0
 54130  1  6
 55131  1  0
 55132  1  0
 55133  1  0
 58134  1  0
 59135  1  1
 60136  1  0
 60137  1  0
 61138  1  0
 62139  1  0
 62140  1  0
 62141  1  0
 63142  1  0
 63143  1  0
 63144  1  0
 66145  1  0
 66146  1  0
M  END
$$$$
[H]Oc1c([H])c([H])c(C([H])([H])[C@@]([H])(C(=O)N2C([H])([H])C([H])([H])C([H])([H])[C@@]2([H])C(=O)N([H])[C@]([H])(C(=O)N([H])[C@]([H])(C(=O)N([H])[C@@]([H])(C([H])(C([H])([H])[H])C([H])([H])[H])C(C([H])([H])[H])(C([H])([H])[H])C([H])([H])[H])C([H])([H])c2c([H])c([H])c(O[H])c([H])c2[H])C([H])([H])c2c([H])c([H])c(O[H])c([H])c2[H])N([H])[H])c([H])c1[H]
     RDKit          3D

105108  0  0  0  0  0  0  0  0999 V2000
   -6.9516   -1.5546    2.1425 C   0  0  0  0  0  0  0  0  0  0  0  0
   -5.8277   -2.1102    1.3510 C   0  0  0  0  0  0  0  0  0  0  0  0
   -5.9241   -3.5941    1.2299 C   0  0  0  0  0  0  0  0  0  0  0  0
   -5.4543   -1.3720    0.0967 C   0  0  2  0  0  0  0  0  0  0  0  0
   -5.0693   -0.0255    0.5339 N   0  0  0  0  0  0  0  0  0  0  0  0
   -3.7205    0.3340    0.7096 C   0  0  0  0  0  0  0  0  0  0  0  0
   -2.8878   -0.6247    0.4456 O   0  0  0  0  0  0  0  0  0  0  0  0
   -3.1252    1.5763    1.1378 C   0  0  2  0  0  0  0  0  0  0  0  0
   -3.3163    2.8154    0.3516 C   0  0  0  0  0  0  0  0  0  0  0  0
   -4.6584    3.3226    0.1354 C   0  0  0  0  0  0  0  0  0  0  0  0
   -5.3350    4.0829    1.0575 C   0  0  0  0  0  0  0  0  0  0  0  0
   -6.5846    4.5671    0.7415 C   0  0  0  0  0  0  0  0  0  0  0  0
   -7.1874    4.3197   -0.4675 C   0  0  0  0  0  0  0  0  0  0  0  0
   -8.4538    4.8089   -0.7933 O   0  0  0  0  0  0  0  0  0  0  0  0
   -6.5135    3.5600   -1.3916 C   0  0  0  0  0  0  0  0  0  0  0  0
   -5.2673    3.0770   -1.0764 C   0  0  0  0  0  0  0  0  0  0  0  0
   -1.6890    1.3945    1.3629 N   0  0  0  0  0  0  0  0  0  0  0  0
   -0.7262    1.1742    0.3768 C   0  0  0  0  0  0  0  0  0  0  0  0
   -1.0530    1.1160   -0.8363 O   0  0  0  0  0  0  0  0  0  0  0  0
    0.7171    0.9958    0.6649 C   0  0  2  0  0  0  0  0  0  0  0  0
    1.1665    2.2808    1.3746 C   0  0  0  0  0  0  0  0  0  0  0  0
    2.5936    2.2517    1.7210 C   0  0  0  0  0  0  0  0  0  0  0  0
    3.5872    2.7228    0.8846 C   0  0  0  0  0  0  0  0  0  0  0  0
    4.9124    2.6771    1.2457 C   0  0  0  0  0  0  0  0  0  0  0  0
    5.3183    2.1576    2.4619 C   0  0  0  0  0  0  0  0  0  0  0  0
    6.6617    2.1233    2.7997 O   0  0  0  0  0  0  0  0  0  0  0  0
    4.3157    1.6909    3.2861 C   0  0  0  0  0  0  0  0  0  0  0  0
    2.9767    1.7304    2.9369 C   0  0  0  0  0  0  0  0  0  0  0  0
    1.5288    0.7403   -0.4839 N   0  0  0  0  0  0  0  0  0  0  0  0
    2.4334   -0.3348   -0.5897 C   0  0  0  0  0  0  0  0  0  0  0  0
    2.5381   -1.1206    0.3855 O   0  0  0  0  0  0  0  0  0  0  0  0
    3.2874   -0.6198   -1.7799 C   0  0  2  0  0  0  0  0  0  0  0  0
    2.3810   -0.9366   -2.9164 C   0  0  0  0  0  0  0  0  0  0  0  0
    2.8558   -2.2171   -3.4851 C   0  0  0  0  0  0  0  0  0  0  0  0
    3.8294   -2.7801   -2.4884 C   0  0  0  0  0  0  0  0  0  0  0  0
    4.1526   -1.7286   -1.5656 N   0  0  0  0  0  0  0  0  0  0  0  0
    5.2023   -1.8142   -0.6091 C   0  0  0  0  0  0  0  0  0  0  0  0
    5.3815   -0.7445    0.0910 O   0  0  0  0  0  0  0  0  0  0  0  0
    6.0694   -2.9595   -0.3513 C   0  0  1  0  0  0  0  0  0  0  0  0
    5.5893   -4.2063   -0.9057 N   0  0  0  0  0  0  0  0  0  0  0  0
    7.4907   -2.8058   -0.8503 C   0  0  0  0  0  0  0  0  0  0  0  0
    8.2237   -1.6706   -0.2701 C   0  0  0  0  0  0  0  0  0  0  0  0
    8.9039   -1.8075    0.9081 C   0  0  0  0  0  0  0  0  0  0  0  0
    9.6093   -0.7561    1.4458 C   0  0  0  0  0  0  0  0  0  0  0  0
    9.6152    0.4413    0.7689 C   0  0  0  0  0  0  0  0  0  0  0  0
   10.3314    1.5065    1.3163 O   0  0  0  0  0  0  0  0  0  0  0  0
    8.9375    0.6016   -0.4185 C   0  0  0  0  0  0  0  0  0  0  0  0
    8.2360   -0.4635   -0.9415 C   0  0  0  0  0  0  0  0  0  0  0  0
   -6.3989   -1.3859   -1.0122 C   0  0  0  0  0  0  0  0  0  0  0  0
   -5.8171   -0.5911   -2.1641 C   0  0  0  0  0  0  0  0  0  0  0  0
   -6.6571   -2.7708   -1.5871 C   0  0  0  0  0  0  0  0  0  0  0  0
   -7.7577   -0.7915   -0.7377 C   0  0  0  0  0  0  0  0  0  0  0  0
   -6.7673   -1.7337    3.2464 H   0  0  0  0  0  0  0  0  0  0  0  0
   -7.8964   -2.1502    1.9603 H   0  0  0  0  0  0  0  0  0  0  0  0
   -7.1211   -0.4746    2.0517 H   0  0  0  0  0  0  0  0  0  0  0  0
   -4.9029   -1.9485    2.0077 H   0  0  0  0  0  0  0  0  0  0  0  0
   -5.6600   -4.0209    2.2514 H   0  0  0  0  0  0  0  0  0  0  0  0
   -6.9454   -3.9867    1.0530 H   0  0  0  0  0  0  0  0  0  0  0  0
   -5.1460   -4.0362    0.5712 H   0  0  0  0  0  0  0  0  0  0  0  0
   -4.5081   -1.8553   -0.2271 H   0  0  0  0  0  0  0  0  0  0  0  0
   -5.8118    0.6691    0.7297 H   0  0  0  0  0  0  0  0  0  0  0  0
   -3.5602    1.8019    2.1672 H   0  0  0  0  0  0  0  0  0  0  0  0
   -2.7636    2.8093   -0.6248 H   0  0  0  0  0  0  0  0  0  0  0  0
   -2.7645    3.6309    0.9265 H   0  0  0  0  0  0  0  0  0  0  0  0
   -4.9060    4.3125    2.0339 H   0  0  0  0  0  0  0  0  0  0  0  0
   -7.1452    5.1797    1.4629 H   0  0  0  0  0  0  0  0  0  0  0  0
   -8.4746    5.7286   -1.2440 H   0  0  0  0  0  0  0  0  0  0  0  0
   -6.9115    3.3080   -2.3807 H   0  0  0  0  0  0  0  0  0  0  0  0
   -4.7303    2.4660   -1.8259 H   0  0  0  0  0  0  0  0  0  0  0  0
   -1.3586    1.4321    2.3516 H   0  0  0  0  0  0  0  0  0  0  0  0
    0.8285    0.2067    1.4105 H   0  0  0  0  0  0  0  0  0  0  0  0
    0.8624    3.1741    0.8001 H   0  0  0  0  0  0  0  0  0  0  0  0
    0.5763    2.2922    2.3217 H   0  0  0  0  0  0  0  0  0  0  0  0
    3.2769    3.1302   -0.0664 H   0  0  0  0  0  0  0  0  0  0  0  0
    5.7028    3.0469    0.5914 H   0  0  0  0  0  0  0  0  0  0  0  0
    7.1499    1.2620    2.5190 H   0  0  0  0  0  0  0  0  0  0  0  0
    4.6079    1.2779    4.2444 H   0  0  0  0  0  0  0  0  0  0  0  0
    2.2060    1.3472    3.6220 H   0  0  0  0  0  0  0  0  0  0  0  0
    1.4664    1.3840   -1.3268 H   0  0  0  0  0  0  0  0  0  0  0  0
    3.9010    0.2741   -2.0505 H   0  0  0  0  0  0  0  0  0  0  0  0
    2.4157   -0.1019   -3.6662 H   0  0  0  0  0  0  0  0  0  0  0  0
    1.3183   -1.0970   -2.5800 H   0  0  0  0  0  0  0  0  0  0  0  0
    2.0109   -2.9420   -3.6858 H   0  0  0  0  0  0  0  0  0  0  0  0
    3.3731   -2.1249   -4.4788 H   0  0  0  0  0  0  0  0  0  0  0  0
    3.3712   -3.6686   -2.0488 H   0  0  0  0  0  0  0  0  0  0  0  0
    4.7923   -3.0696   -3.0127 H   0  0  0  0  0  0  0  0  0  0  0  0
    6.1527   -3.0924    0.7514 H   0  0  0  0  0  0  0  0  0  0  0  0
    5.2500   -4.8283   -0.1467 H   0  0  0  0  0  0  0  0  0  0  0  0
    6.3123   -4.7459   -1.4183 H   0  0  0  0  0  0  0  0  0  0  0  0
    7.5546   -2.8151   -1.9470 H   0  0  0  0  0  0  0  0  0  0  0  0
    8.0253   -3.7424   -0.5155 H   0  0  0  0  0  0  0  0  0  0  0  0
    8.9028   -2.7685    1.4576 H   0  0  0  0  0  0  0  0  0  0  0  0
   10.1572   -0.8706    2.3980 H   0  0  0  0  0  0  0  0  0  0  0  0
    9.8063    2.1142    1.9592 H   0  0  0  0  0  0  0  0  0  0  0  0
    8.9543    1.5666   -0.9479 H   0  0  0  0  0  0  0  0  0  0  0  0
    7.7047   -0.3107   -1.8875 H   0  0  0  0  0  0  0  0  0  0  0  0
   -6.3300    0.4128   -2.2159 H   0  0  0  0  0  0  0  0  0  0  0  0
   -4.7369   -0.4019   -2.0633 H   0  0  0  0  0  0  0  0  0  0  0  0
   -6.0600   -1.0991   -3.1441 H   0  0  0  0  0  0  0  0  0  0  0  0
   -5.7626   -3.4055   -1.6282 H   0  0  0  0  0  0  0  0  0  0  0  0
   -7.5458   -3.2279   -1.1110 H   0  0  0  0  0  0  0  0  0  0  0  0
   -6.9695   -2.6809   -2.6758 H   0  0  0  0  0  0  0  0  0  0  0  0
   -8.1931   -0.5381   -1.7303 H   0  0  0  0  0  0  0  0  0  0  0  0
   -8.4564   -1.5347   -0.2913 H   0  0  0  0  0  0  0  0  0  0  0  0
   -7.7224    0.1620   -0.1755 H   0  0  0  0  0  0  0  0  0  0  0  0
  1  2  1  0
  2  3  1  0
  2  4  1  0
  4  5  1  0
  5  6  1  0
  6  7  2  0
  6  8  1  0
  8  9  1  0
  9 10  1  0
 10 11  2  0
 11 12  1  0
 12 13  2  0
 13 14  1  0
 13 15  1  0
 15 16  2  0
  8 17  1  0
 17 18  1  0
 18 19  2  0
 18 20  1  0
 20 21  1  0
 21 22  1  0
 22 23  2  0
 23 24  1  0
 24 25  2  0
 25 26  1  0
 25 27  1  0
 27 28  2  0
 20 29  1  0
 29 30  1  0
 30 31  2  0
 30 32  1  0
 32 33  1  0
 33 34  1  0
 34 35  1  0
 35 36  1  0
 36 37  1  0
 37 38  2  0
 37 39  1  0
 39 40  1  0
 39 41  1  0
 41 42  1  0
 42 43  2  0
 43 44  1  0
 44 45  2  0
 45 46  1  0
 45 47  1  0
 47 48  2  0
  4 49  1  0
 49 50  1  0
 49 51  1  0
 49 52  1  0
 16 10  1  0
 28 22  1  0
 36 32  1  0
 48 42  1  0
  1 53  1  0
  1 54  1  0
  1 55  1  0
  2 56  1  0
  3 57  1  0
  3 58  1  0
  3 59  1  0
  4 60  1  6
  5 61  1  0
  8 62  1  1
  9 63  1  0
  9 64  1  0
 11 65  1  0
 12 66  1  0
 14 67  1  0
 15 68  1  0
 16 69  1  0
 17 70  1  0
 20 71  1  1
 21 72  1  0
 21 73  1  0
 23 74  1  0
 24 75  1  0
 26 76  1  0
 27 77  1  0
 28 78  1  0
 29 79  1  0
 32 80  1  6
 33 81  1  0
 33 82  1  0
 34 83  1  0
 34 84  1  0
 35 85  1  0
 35 86  1  0
 39 87  1  1
 40 88  1  0
 40 89  1  0
 41 90  1  0
 41 91  1  0
 43 92  1  0
 44 93  1  0
 46 94  1  0
 47 95  1  0
 48 96  1  0
 50 97  1  0
 50 98  1  0
 50 99  1  0
 51100  1  0
 51101  1  0
 51102  1  0
 52103  1  0
 52104  1  0
 52105  1  0
M  END
$$$$
[H]c1c([H])c([H])c(C([H])([H])OC(=O)N([H])[C@]([H])(C(=O)N([H])[C@]([H])(C(=O)N([H])[C@]([H])(C(=O)N2C([H])([H])C([H])([H])C([H])([H])[C@@]2([H])C(=O)N([H])[C@]([H])(C(=O)N2C([H])([H])C([H])([H])C([H])([H])[C@@]2([H])C(=O)N([H])[C@@]([H])(C(=O)N([H])[H])C([H])([H])[H])C([H])([H])c2c([H])c([H])c(Cl)c([H])c2[H])C([H])([H])c2c([H])c([H])c([H])c([H])c2[H])C([H])([H])c2c([H])c([H])c([H])c([H])c2[H])C([H])([H])c2c([H])c([H])c([H])c([H])c2[H])c([H])c1[H]
     RDKit          3D

138144  0  0  0  0  0  0  0  0999 V2000
   12.6477    3.7886   -0.1351 C   0  0  0  0  0  0  0  0  0  0  0  0
   12.0277    2.5620   -0.7759 C   0  0  1  0  0  0  0  0  0  0  0  0
   10.5953    2.6698   -0.8336 N   0  0  0  0  0  0  0  0  0  0  0  0
    9.7872    1.7580   -0.1266 C   0  0  0  0  0  0  0  0  0  0  0  0
   10.3519    0.8568    0.5539 O   0  0  0  0  0  0  0  0  0  0  0  0
    8.3207    1.8782   -0.2002 C   0  0  2  0  0  0  0  0  0  0  0  0
    7.7984    3.1581    0.4316 C   0  0  0  0  0  0  0  0  0  0  0  0
    7.8682    2.8291    1.8931 C   0  0  0  0  0  0  0  0  0  0  0  0
    7.5661    1.3592    1.9796 C   0  0  0  0  0  0  0  0  0  0  0  0
    7.7082    0.8513    0.6072 N   0  0  0  0  0  0  0  0  0  0  0  0
    7.3085   -0.4182    0.1472 C   0  0  0  0  0  0  0  0  0  0  0  0
    7.4834   -0.7844   -1.0081 O   0  0  0  0  0  0  0  0  0  0  0  0
    6.6190   -1.3930    1.1054 C   0  0  2  0  0  0  0  0  0  0  0  0
    7.6460   -2.2553    1.7411 C   0  0  0  0  0  0  0  0  0  0  0  0
    7.1413   -3.2379    2.7201 C   0  0  0  0  0  0  0  0  0  0  0  0
    7.0866   -2.9132    4.0812 C   0  0  0  0  0  0  0  0  0  0  0  0
    6.6177   -3.8229    4.9967 C   0  0  0  0  0  0  0  0  0  0  0  0
    6.1832   -5.0815    4.6235 C   0  0  0  0  0  0  0  0  0  0  0  0
    5.5889   -6.2113    5.8456 Cl  0  0  0  0  0  0  0  0  0  0  0  0
    6.2315   -5.4103    3.2948 C   0  0  0  0  0  0  0  0  0  0  0  0
    6.7039   -4.4960    2.3746 C   0  0  0  0  0  0  0  0  0  0  0  0
    5.6761   -2.0859    0.2510 N   0  0  0  0  0  0  0  0  0  0  0  0
    4.3209   -1.7082    0.2339 C   0  0  0  0  0  0  0  0  0  0  0  0
    3.9613   -0.7639    0.9894 O   0  0  0  0  0  0  0  0  0  0  0  0
    3.2749   -2.3463   -0.6298 C   0  0  2  0  0  0  0  0  0  0  0  0
    3.8074   -2.5135   -2.0470 C   0  0  0  0  0  0  0  0  0  0  0  0
    3.9472   -1.0707   -2.5043 C   0  0  0  0  0  0  0  0  0  0  0  0
    2.8880   -0.3421   -1.6756 C   0  0  0  0  0  0  0  0  0  0  0  0
    2.2226   -1.3863   -0.8807 N   0  0  0  0  0  0  0  0  0  0  0  0
    0.8764   -1.4303   -0.5206 C   0  0  0  0  0  0  0  0  0  0  0  0
    0.4204   -2.4573    0.0305 O   0  0  0  0  0  0  0  0  0  0  0  0
    0.0431   -0.2129   -0.8219 C   0  0  2  0  0  0  0  0  0  0  0  0
    0.2741    0.7723    0.2952 C   0  0  0  0  0  0  0  0  0  0  0  0
   -0.4066    2.0592    0.1846 C   0  0  0  0  0  0  0  0  0  0  0  0
    0.1742    2.9768   -0.7046 C   0  0  0  0  0  0  0  0  0  0  0  0
   -0.2995    4.2430   -0.8891 C   0  0  0  0  0  0  0  0  0  0  0  0
   -1.3979    4.6723   -0.1833 C   0  0  0  0  0  0  0  0  0  0  0  0
   -1.9751    3.7682    0.6973 C   0  0  0  0  0  0  0  0  0  0  0  0
   -1.4903    2.4974    0.8735 C   0  0  0  0  0  0  0  0  0  0  0  0
   -1.2974   -0.5840   -1.1076 N   0  0  0  0  0  0  0  0  0  0  0  0
   -2.3949   -0.8765   -0.3093 C   0  0  0  0  0  0  0  0  0  0  0  0
   -2.3984   -0.8886    0.9529 O   0  0  0  0  0  0  0  0  0  0  0  0
   -3.7236   -1.2025   -0.9206 C   0  0  2  0  0  0  0  0  0  0  0  0
   -3.6741   -0.7926   -2.3825 C   0  0  0  0  0  0  0  0  0  0  0  0
   -4.9374   -1.0121   -3.1099 C   0  0  0  0  0  0  0  0  0  0  0  0
   -5.8885   -0.0244   -3.1615 C   0  0  0  0  0  0  0  0  0  0  0  0
   -7.0824   -0.2270   -3.8617 C   0  0  0  0  0  0  0  0  0  0  0  0
   -7.3305   -1.4017   -4.5070 C   0  0  0  0  0  0  0  0  0  0  0  0
   -6.3769   -2.4044   -4.4617 C   0  0  0  0  0  0  0  0  0  0  0  0
   -5.1804   -2.1980   -3.7570 C   0  0  0  0  0  0  0  0  0  0  0  0
   -4.7359   -0.5054   -0.1828 N   0  0  0  0  0  0  0  0  0  0  0  0
   -6.0313   -1.0196    0.1057 C   0  0  0  0  0  0  0  0  0  0  0  0
   -6.3266   -2.1588   -0.2953 O   0  0  0  0  0  0  0  0  0  0  0  0
   -7.0233   -0.2121    0.8640 C   0  0  2  0  0  0  0  0  0  0  0  0
   -7.2174   -0.6908    2.2731 C   0  0  0  0  0  0  0  0  0  0  0  0
   -7.7381   -2.0732    2.3813 C   0  0  0  0  0  0  0  0  0  0  0  0
   -9.1356   -2.2575    2.3837 C   0  0  0  0  0  0  0  0  0  0  0  0
   -9.6690   -3.5073    2.4981 C   0  0  0  0  0  0  0  0  0  0  0  0
   -8.8895   -4.6517    2.6170 C   0  0  0  0  0  0  0  0  0  0  0  0
   -7.5300   -4.4737    2.6144 C   0  0  0  0  0  0  0  0  0  0  0  0
   -6.9643   -3.2021    2.4981 C   0  0  0  0  0  0  0  0  0  0  0  0
   -8.2883   -0.4151    0.1443 N   0  0  0  0  0  0  0  0  0  0  0  0
   -9.0353    0.7018   -0.3044 C   0  0  0  0  0  0  0  0  0  0  0  0
   -8.6000    1.8590   -0.0696 O   0  0  0  0  0  0  0  0  0  0  0  0
  -10.2159    0.5627   -0.9889 O   0  0  0  0  0  0  0  0  0  0  0  0
  -11.0190    1.6133   -1.4688 C   0  0  0  0  0  0  0  0  0  0  0  0
  -11.4958    2.4346   -0.3594 C   0  0  0  0  0  0  0  0  0  0  0  0
  -12.4497    1.8904    0.4827 C   0  0  0  0  0  0  0  0  0  0  0  0
  -12.9376    2.6145    1.5211 C   0  0  0  0  0  0  0  0  0  0  0  0
  -12.4790    3.9094    1.7413 C   0  0  0  0  0  0  0  0  0  0  0  0
  -11.5362    4.4409    0.9038 C   0  0  0  0  0  0  0  0  0  0  0  0
  -11.0296    3.7097   -0.1607 C   0  0  0  0  0  0  0  0  0  0  0  0
   12.6029    2.4524   -2.1649 C   0  0  0  0  0  0  0  0  0  0  0  0
   14.0241    2.3283   -2.2050 N   0  0  0  0  0  0  0  0  0  0  0  0
   11.8366    2.4758   -3.1286 O   0  0  0  0  0  0  0  0  0  0  0  0
   12.7085    4.6025   -0.8920 H   0  0  0  0  0  0  0  0  0  0  0  0
   12.1695    4.0818    0.8074 H   0  0  0  0  0  0  0  0  0  0  0  0
   13.7114    3.5306    0.0852 H   0  0  0  0  0  0  0  0  0  0  0  0
   12.3230    1.6832   -0.1812 H   0  0  0  0  0  0  0  0  0  0  0  0
   10.1320    3.4181   -1.3937 H   0  0  0  0  0  0  0  0  0  0  0  0
    7.9637    1.8439   -1.2746 H   0  0  0  0  0  0  0  0  0  0  0  0
    6.7241    3.2318    0.1255 H   0  0  0  0  0  0  0  0  0  0  0  0
    8.3825    4.0184    0.1075 H   0  0  0  0  0  0  0  0  0  0  0  0
    8.9011    3.0324    2.2940 H   0  0  0  0  0  0  0  0  0  0  0  0
    7.0984    3.4323    2.4448 H   0  0  0  0  0  0  0  0  0  0  0  0
    6.5205    1.2543    2.3521 H   0  0  0  0  0  0  0  0  0  0  0  0
    8.3074    0.8338    2.6253 H   0  0  0  0  0  0  0  0  0  0  0  0
    6.0574   -0.8142    1.8475 H   0  0  0  0  0  0  0  0  0  0  0  0
    8.3363   -1.5603    2.3013 H   0  0  0  0  0  0  0  0  0  0  0  0
    8.3311   -2.7414    0.9931 H   0  0  0  0  0  0  0  0  0  0  0  0
    7.4230   -1.9284    4.3979 H   0  0  0  0  0  0  0  0  0  0  0  0
    6.5643   -3.5970    6.0490 H   0  0  0  0  0  0  0  0  0  0  0  0
    5.8854   -6.4098    3.0041 H   0  0  0  0  0  0  0  0  0  0  0  0
    6.7437   -4.7625    1.3109 H   0  0  0  0  0  0  0  0  0  0  0  0
    6.0118   -2.8512   -0.3427 H   0  0  0  0  0  0  0  0  0  0  0  0
    2.9971   -3.3005   -0.2408 H   0  0  0  0  0  0  0  0  0  0  0  0
    4.7201   -3.0986   -2.1088 H   0  0  0  0  0  0  0  0  0  0  0  0
    3.0032   -2.9983   -2.6331 H   0  0  0  0  0  0  0  0  0  0  0  0
    3.7539   -1.0194   -3.5866 H   0  0  0  0  0  0  0  0  0  0  0  0
    4.9440   -0.6850   -2.3195 H   0  0  0  0  0  0  0  0  0  0  0  0
    3.3017    0.4679   -1.0682 H   0  0  0  0  0  0  0  0  0  0  0  0
    2.2264    0.1149   -2.4322 H   0  0  0  0  0  0  0  0  0  0  0  0
    0.4778    0.3143   -1.7305 H   0  0  0  0  0  0  0  0  0  0  0  0
    1.3793    0.9680    0.3078 H   0  0  0  0  0  0  0  0  0  0  0  0
    0.0924    0.2849    1.2938 H   0  0  0  0  0  0  0  0  0  0  0  0
    1.0456    2.6869   -1.2996 H   0  0  0  0  0  0  0  0  0  0  0  0
    0.1747    4.9287   -1.5939 H   0  0  0  0  0  0  0  0  0  0  0  0
   -1.7896    5.6687   -0.3129 H   0  0  0  0  0  0  0  0  0  0  0  0
   -2.8427    4.1285    1.2562 H   0  0  0  0  0  0  0  0  0  0  0  0
   -1.9705    1.8565    1.5678 H   0  0  0  0  0  0  0  0  0  0  0  0
   -1.4651   -0.6402   -2.1897 H   0  0  0  0  0  0  0  0  0  0  0  0
   -3.9791   -2.2840   -0.8588 H   0  0  0  0  0  0  0  0  0  0  0  0
   -3.2506    0.2126   -2.4648 H   0  0  0  0  0  0  0  0  0  0  0  0
   -2.9107   -1.5132   -2.8327 H   0  0  0  0  0  0  0  0  0  0  0  0
   -5.7699    0.9342   -2.6795 H   0  0  0  0  0  0  0  0  0  0  0  0
   -7.8101    0.5792   -3.8807 H   0  0  0  0  0  0  0  0  0  0  0  0
   -8.2635   -1.5648   -5.0580 H   0  0  0  0  0  0  0  0  0  0  0  0
   -6.5838   -3.3193   -4.9718 H   0  0  0  0  0  0  0  0  0  0  0  0
   -4.5061   -3.0378   -3.7834 H   0  0  0  0  0  0  0  0  0  0  0  0
   -4.5102    0.4452    0.1690 H   0  0  0  0  0  0  0  0  0  0  0  0
   -6.7889    0.8796    0.8429 H   0  0  0  0  0  0  0  0  0  0  0  0
   -7.9129    0.0169    2.7906 H   0  0  0  0  0  0  0  0  0  0  0  0
   -6.2215   -0.6842    2.8173 H   0  0  0  0  0  0  0  0  0  0  0  0
   -9.7303   -1.3539    2.2894 H   0  0  0  0  0  0  0  0  0  0  0  0
  -10.7583   -3.5941    2.4944 H   0  0  0  0  0  0  0  0  0  0  0  0
   -9.3692   -5.6106    2.7022 H   0  0  0  0  0  0  0  0  0  0  0  0
   -6.8930   -5.3415    2.7043 H   0  0  0  0  0  0  0  0  0  0  0  0
   -5.8966   -3.0970    2.5036 H   0  0  0  0  0  0  0  0  0  0  0  0
   -8.6081   -1.3669   -0.0334 H   0  0  0  0  0  0  0  0  0  0  0  0
  -11.8275    1.1549   -2.0793 H   0  0  0  0  0  0  0  0  0  0  0  0
  -10.4017    2.2380   -2.1894 H   0  0  0  0  0  0  0  0  0  0  0  0
  -12.8183    0.8789    0.3267 H   0  0  0  0  0  0  0  0  0  0  0  0
  -13.6823    2.2142    2.1937 H   0  0  0  0  0  0  0  0  0  0  0  0
  -12.8751    4.5054    2.5849 H   0  0  0  0  0  0  0  0  0  0  0  0
  -11.1789    5.4408    1.0644 H   0  0  0  0  0  0  0  0  0  0  0  0
  -10.2760    4.1675   -0.8011 H   0  0  0  0  0  0  0  0  0  0  0  0
   14.6363    3.1053   -1.8400 H   0  0  0  0  0  0  0  0  0  0  0  0
   14.4127    1.4469   -2.6039 H   0  0  0  0  0  0  0  0  0  0  0  0
  1  2  1  0
  2  3  1  0
  3  4  1  0
  4  5  2  0
  4  6  1  0
  6  7  1  0
  7  8  1  0
  8  9  1  0
  9 10  1  0
 10 11  1  0
 11 12  2  0
 11 13  1  0
 13 14  1  0
 14 15  1  0
 15 16  2  0
 16 17  1  0
 17 18  2  0
 18 19  1  0
 18 20  1  0
 20 21  2  0
 13 22  1  0
 22 23  1  0
 23 24  2  0
 23 25  1  0
 25 26  1  0
 26 27  1  0
 27 28  1  0
 28 29  1  0
 29 30  1  0
 30 31  2  0
 30 32  1  0
 32 33  1  0
 33 34  1  0
 34 35  2  0
 35 36  1  0
 36 37  2  0
 37 38  1  0
 38 39  2  0
 32 40  1  0
 40 41  1  0
 41 42  2  0
 41 43  1  0
 43 44  1  0
 44 45  1  0
 45 46  2  0
 46 47  1  0
 47 48  2  0
 48 49  1  0
 49 50  2  0
 43 51  1  0
 51 52  1  0
 52 53  2  0
 52 54  1  0
 54 55  1  0
 55 56  1  0
 56 57  2  0
 57 58  1  0
 58 59  2  0
 59 60  1  0
 60 61  2  0
 54 62  1  0
 62 63  1  0
 63 64  2  0
 63 65  1  0
 65 66  1  0
 66 67  1  0
 67 68  2  0
 68 69  1  0
 69 70  2  0
 70 71  1  0
 71 72  2  0
  2 73  1  0
 73 74  1  0
 73 75  2  0
 10  6  1  0
 21 15  1  0
 29 25  1  0
 39 34  1  0
 50 45  1  0
 61 56  1  0
 72 67  1  0
  1 76  1  0
  1 77  1  0
  1 78  1  0
  2 79  1  1
  3 80  1  0
  6 81  1  6
  7 82  1  0
  7 83  1  0
  8 84  1  0
  8 85  1  0
  9 86  1  0
  9 87  1  0
 13 88  1  1
 14 89  1  0
 14 90  1  0
 16 91  1  0
 17 92  1  0
 20 93  1  0
 21 94  1  0
 22 95  1  0
 25 96  1  1
 26 97  1  0
 26 98  1  0
 27 99  1  0
 27100  1  0
 28101  1  0
 28102  1  0
 32103  1  6
 33104  1  0
 33105  1  0
 35106  1  0
 36107  1  0
 37108  1  0
 38109  1  0
 39110  1  0
 40111  1  0
 43112  1  6
 44113  1  0
 44114  1  0
 46115  1  0
 47116  1  0
 48117  1  0
 49118  1  0
 50119  1  0
 51120  1  0
 54121  1  1
 55122  1  0
 55123  1  0
 57124  1  0
 58125  1  0
 59126  1  0
 60127  1  0
 61128  1  0
 62129  1  0
 66130  1  0
 66131  1  0
 68132  1  0
 69133  1  0
 70134  1  0
 71135  1  0
 72136  1  0
 74137  1  0
 74138  1  0
M  END
$$$$
[H]N=C(N([H])[H])N([H])C([H])([H])C([H])([H])C([H])([H])[C@@]([H])(C(=O)N([H])[C@]([H])(C(=O)O[H])C([H])([H])c1c([H])c([H])c([H])c([H])c1[H])N([H])C(=O)[C@@]([H])(N([H])C(=O)[C@@]([H])(N([H])[H])C([H])([H])c1c([H])c([H])c([H])c([H])c1[H])C([H])(C([H])([H])[H])C([H])([H])[H]
     RDKit          3D

 82 83  0  0  0  0  0  0  0  0999 V2000
    1.9473   -1.0938   -2.1218 C   0  0  0  0  0  0  0  0  0  0  0  0
    2.3891    0.2635   -1.6456 C   0  0  0  0  0  0  0  0  0  0  0  0
    3.6790    0.6689   -2.3833 C   0  0  0  0  0  0  0  0  0  0  0  0
    2.5353    0.3947   -0.1885 C   0  0  2  0  0  0  0  0  0  0  0  0
    3.4885   -0.4851    0.4288 N   0  0  0  0  0  0  0  0  0  0  0  0
    4.5618   -0.1232    1.2484 C   0  0  0  0  0  0  0  0  0  0  0  0
    4.7397    1.0874    1.4993 O   0  0  0  0  0  0  0  0  0  0  0  0
    5.4852   -1.1151    1.8242 C   0  0  1  0  0  0  0  0  0  0  0  0
    5.1864   -2.4698    1.3565 N   0  0  0  0  0  0  0  0  0  0  0  0
    6.9349   -0.8672    1.6173 C   0  0  0  0  0  0  0  0  0  0  0  0
    7.3810   -0.8001    0.2136 C   0  0  0  0  0  0  0  0  0  0  0  0
    7.7304   -1.9136   -0.5173 C   0  0  0  0  0  0  0  0  0  0  0  0
    8.1818   -1.8091   -1.8408 C   0  0  0  0  0  0  0  0  0  0  0  0
    8.2780   -0.5718   -2.4237 C   0  0  0  0  0  0  0  0  0  0  0  0
    7.9379    0.5591   -1.7252 C   0  0  0  0  0  0  0  0  0  0  0  0
    7.4955    0.4257   -0.4192 C   0  0  0  0  0  0  0  0  0  0  0  0
    1.2194    0.3819    0.4837 C   0  0  0  0  0  0  0  0  0  0  0  0
    1.0824   -0.3453    1.5203 O   0  0  0  0  0  0  0  0  0  0  0  0
    0.1321    1.1239    0.0407 N   0  0  0  0  0  0  0  0  0  0  0  0
   -1.1824    1.1336    0.7096 C   0  0  1  0  0  0  0  0  0  0  0  0
   -1.5939    2.5402    0.9405 C   0  0  0  0  0  0  0  0  0  0  0  0
   -2.8787    2.8243    1.6054 C   0  0  0  0  0  0  0  0  0  0  0  0
   -2.9565    4.3729    1.7282 C   0  0  0  0  0  0  0  0  0  0  0  0
   -4.1837    4.7433    2.3771 N   0  0  0  0  0  0  0  0  0  0  0  0
   -4.4284    4.4529    3.7496 C   0  0  0  0  0  0  0  0  0  0  0  0
   -5.7294    4.0537    4.1252 N   0  0  0  0  0  0  0  0  0  0  0  0
   -3.4701    4.5615    4.5994 N   0  0  0  0  0  0  0  0  0  0  0  0
   -2.1367    0.4021   -0.1169 C   0  0  0  0  0  0  0  0  0  0  0  0
   -1.7250    0.0567   -1.2909 O   0  0  0  0  0  0  0  0  0  0  0  0
   -3.4440    0.0142    0.1919 N   0  0  0  0  0  0  0  0  0  0  0  0
   -4.2367   -0.7316   -0.7957 C   0  0  1  0  0  0  0  0  0  0  0  0
   -4.5557   -2.0735   -0.2317 C   0  0  0  0  0  0  0  0  0  0  0  0
   -5.3386   -2.9733   -1.0966 C   0  0  0  0  0  0  0  0  0  0  0  0
   -4.6885   -3.7857   -2.0489 C   0  0  0  0  0  0  0  0  0  0  0  0
   -5.3799   -4.6496   -2.8474 C   0  0  0  0  0  0  0  0  0  0  0  0
   -6.7496   -4.7660   -2.7563 C   0  0  0  0  0  0  0  0  0  0  0  0
   -7.4165   -3.9855   -1.8350 C   0  0  0  0  0  0  0  0  0  0  0  0
   -6.7055   -3.1202   -1.0385 C   0  0  0  0  0  0  0  0  0  0  0  0
   -5.4014    0.0491   -1.2340 C   0  0  0  0  0  0  0  0  0  0  0  0
   -6.2933   -0.3747   -2.1842 O   0  0  0  0  0  0  0  0  0  0  0  0
   -5.6407    1.2074   -0.7282 O   0  0  0  0  0  0  0  0  0  0  0  0
    2.8301   -1.7256   -2.3004 H   0  0  0  0  0  0  0  0  0  0  0  0
    1.4469   -0.9814   -3.1288 H   0  0  0  0  0  0  0  0  0  0  0  0
    1.1877   -1.5353   -1.4632 H   0  0  0  0  0  0  0  0  0  0  0  0
    1.6390    0.9954   -2.0017 H   0  0  0  0  0  0  0  0  0  0  0  0
    4.4379   -0.1226   -2.3028 H   0  0  0  0  0  0  0  0  0  0  0  0
    3.4706    1.0132   -3.3959 H   0  0  0  0  0  0  0  0  0  0  0  0
    4.0626    1.5518   -1.8060 H   0  0  0  0  0  0  0  0  0  0  0  0
    2.9403    1.4343    0.0232 H   0  0  0  0  0  0  0  0  0  0  0  0
    3.3477   -1.5036    0.2340 H   0  0  0  0  0  0  0  0  0  0  0  0
    5.2651   -1.0775    2.9437 H   0  0  0  0  0  0  0  0  0  0  0  0
    4.2907   -2.7635    1.8066 H   0  0  0  0  0  0  0  0  0  0  0  0
    5.1444   -2.4494    0.3145 H   0  0  0  0  0  0  0  0  0  0  0  0
    7.4987   -1.7457    2.0590 H   0  0  0  0  0  0  0  0  0  0  0  0
    7.3221    0.0026    2.1972 H   0  0  0  0  0  0  0  0  0  0  0  0
    7.6574   -2.8909   -0.0691 H   0  0  0  0  0  0  0  0  0  0  0  0
    8.4518   -2.7212   -2.3883 H   0  0  0  0  0  0  0  0  0  0  0  0
    8.6220   -0.4842   -3.4313 H   0  0  0  0  0  0  0  0  0  0  0  0
    8.0094    1.5559   -2.1756 H   0  0  0  0  0  0  0  0  0  0  0  0
    7.2306    1.3019    0.1463 H   0  0  0  0  0  0  0  0  0  0  0  0
    0.1943    1.7246   -0.8036 H   0  0  0  0  0  0  0  0  0  0  0  0
   -1.0634    0.5717    1.6550 H   0  0  0  0  0  0  0  0  0  0  0  0
   -0.8005    3.1089    1.5238 H   0  0  0  0  0  0  0  0  0  0  0  0
   -1.5880    3.0355   -0.0867 H   0  0  0  0  0  0  0  0  0  0  0  0
   -2.9553    2.4627    2.6457 H   0  0  0  0  0  0  0  0  0  0  0  0
   -3.7913    2.4841    1.0688 H   0  0  0  0  0  0  0  0  0  0  0  0
   -2.9156    4.8214    0.7248 H   0  0  0  0  0  0  0  0  0  0  0  0
   -2.0659    4.7334    2.2890 H   0  0  0  0  0  0  0  0  0  0  0  0
   -4.9255    5.2384    1.8438 H   0  0  0  0  0  0  0  0  0  0  0  0
   -6.4605    4.7612    4.2766 H   0  0  0  0  0  0  0  0  0  0  0  0
   -5.9405    3.0500    4.2468 H   0  0  0  0  0  0  0  0  0  0  0  0
   -2.5296    4.8559    4.2954 H   0  0  0  0  0  0  0  0  0  0  0  0
   -3.8765    0.2125    1.0963 H   0  0  0  0  0  0  0  0  0  0  0  0
   -3.6174   -0.9100   -1.7243 H   0  0  0  0  0  0  0  0  0  0  0  0
   -5.0488   -1.9359    0.7710 H   0  0  0  0  0  0  0  0  0  0  0  0
   -3.5993   -2.6094    0.0206 H   0  0  0  0  0  0  0  0  0  0  0  0
   -3.6214   -3.6822   -2.1056 H   0  0  0  0  0  0  0  0  0  0  0  0
   -4.8252   -5.2498   -3.5606 H   0  0  0  0  0  0  0  0  0  0  0  0
   -7.3120   -5.4392   -3.3746 H   0  0  0  0  0  0  0  0  0  0  0  0
   -8.4856   -4.0608   -1.7472 H   0  0  0  0  0  0  0  0  0  0  0  0
   -7.2496   -2.5102   -0.3134 H   0  0  0  0  0  0  0  0  0  0  0  0
   -6.6280    0.2200   -2.9353 H   0  0  0  0  0  0  0  0  0  0  0  0
  1  2  1  0
  2  3  1  0
  2  4  1  0
  4  5  1  0
  5  6  1  0
  6  7  2  0
  6  8  1  0
  8  9  1  0
  8 10  1  0
 10 11  1  0
 11 12  2  0
 12 13  1  0
 13 14  2  0
 14 15  1  0
 15 16  2  0
  4 17  1  0
 17 18  2  0
 17 19  1  0
 19 20  1  0
 20 21  1  0
 21 22  1  0
 22 23  1  0
 23 24  1  0
 24 25  1  0
 25 26  1  0
 25 27  2  3
 20 28  1  0
 28 29  2  0
 28 30  1  0
 30 31  1  0
 31 32  1  0
 32 33  1  0
 33 34  2  0
 34 35  1  0
 35 36  2  0
 36 37  1  0
 37 38  2  0
 31 39  1  0
 39 40  1  0
 39 41  2  0
 16 11  1  0
 38 33  1  0
  1 42  1  0
  1 43  1  0
  1 44  1  0
  2 45  1  0
  3 46  1  0
  3 47  1  0
  3 48  1  0
  4 49  1  6
  5 50  1  0
  8 51  1  1
  9 52  1  0
  9 53  1  0
 10 54  1  0
 10 55  1  0
 12 56  1  0
 13 57  1  0
 14 58  1  0
 15 59  1  0
 16 60  1  0
 19 61  1  0
 20 62  1  1
 21 63  1  0
 21 64  1  0
 22 65  1  0
 22 66  1  0
 23 67  1  0
 23 68  1  0
 24 69  1  0
 26 70  1  0
 26 71  1  0
 27 72  1  0
 30 73  1  0
 31 74  1  6
 32 75  1  0
 32 76  1  0
 34 77  1  0
 35 78  1  0
 36 79  1  0
 37 80  1  0
 38 81  1  0
 40 82  1  0
M  END
$$$$
[H]c1c([H])c([H])c(N([H])C(=O)N([H])[C@]2([H])C([H])([H])C([H])([H])[C@]([H])(N([H])C(=O)N([H])c3c([H])c([H])c(C(F)(F)F)c([H])c3[H])C([H])([H])C2([H])[H])c(Cl)c1[H]
     RDKit          3D

 53 55  0  0  0  0  0  0  0  0999 V2000
  -10.4713    0.6599    0.2266 F   0  0  0  0  0  0  0  0  0  0  0  0
   -9.7691   -0.3995   -0.3536 C   0  0  0  0  0  0  0  0  0  0  0  0
   -9.7854   -0.2670   -1.7433 F   0  0  0  0  0  0  0  0  0  0  0  0
  -10.2167   -1.5952    0.0999 F   0  0  0  0  0  0  0  0  0  0  0  0
   -8.3392   -0.2137    0.0421 C   0  0  0  0  0  0  0  0  0  0  0  0
   -7.6834   -1.1098    0.8538 C   0  0  0  0  0  0  0  0  0  0  0  0
   -6.3723   -0.9239    1.1878 C   0  0  0  0  0  0  0  0  0  0  0  0
   -5.6710    0.1856    0.7061 C   0  0  0  0  0  0  0  0  0  0  0  0
   -4.3245    0.3478    1.0955 N   0  0  0  0  0  0  0  0  0  0  0  0
   -3.2930    0.2723    0.0821 C   0  0  0  0  0  0  0  0  0  0  0  0
   -3.6419    0.0846   -1.0971 O   0  0  0  0  0  0  0  0  0  0  0  0
   -1.9497    0.4080    0.4425 N   0  0  0  0  0  0  0  0  0  0  0  0
   -0.9237    0.2969   -0.5894 C   0  0  2  0  0  0  0  0  0  0  0  0
   -0.2195   -1.0511   -0.3940 C   0  0  0  0  0  0  0  0  0  0  0  0
    1.1533   -0.8740    0.2123 C   0  0  0  0  0  0  0  0  0  0  0  0
    2.0272   -0.0799   -0.7594 C   0  0  1  0  0  0  0  0  0  0  0  0
    1.2933    1.0698   -1.3581 C   0  0  0  0  0  0  0  0  0  0  0  0
    0.0788    1.4053   -0.5363 C   0  0  0  0  0  0  0  0  0  0  0  0
    3.2026    0.3876   -0.0731 N   0  0  0  0  0  0  0  0  0  0  0  0
    4.5008   -0.0864   -0.2745 C   0  0  0  0  0  0  0  0  0  0  0  0
    4.6600   -0.9908   -1.1452 O   0  0  0  0  0  0  0  0  0  0  0  0
    5.5976    0.4004    0.4430 N   0  0  0  0  0  0  0  0  0  0  0  0
    6.9294   -0.0136    0.2810 C   0  0  0  0  0  0  0  0  0  0  0  0
    7.4416   -0.7616   -0.7371 C   0  0  0  0  0  0  0  0  0  0  0  0
    8.7966   -1.0745   -0.8137 C   0  0  0  0  0  0  0  0  0  0  0  0
    9.6591   -0.6449    0.1333 C   0  0  0  0  0  0  0  0  0  0  0  0
    9.2159    0.1164    1.1903 C   0  0  0  0  0  0  0  0  0  0  0  0
    7.8619    0.4178    1.2484 C   0  0  0  0  0  0  0  0  0  0  0  0
    7.2809    1.3584    2.6019 Cl  0  0  0  0  0  0  0  0  0  0  0  0
   -6.3514    1.0854   -0.1164 C   0  0  0  0  0  0  0  0  0  0  0  0
   -7.6558    0.8695   -0.4261 C   0  0  0  0  0  0  0  0  0  0  0  0
   -8.2307   -1.9638    1.2094 H   0  0  0  0  0  0  0  0  0  0  0  0
   -5.8536   -1.6487    1.8306 H   0  0  0  0  0  0  0  0  0  0  0  0
   -4.0286    0.5210    2.0567 H   0  0  0  0  0  0  0  0  0  0  0  0
   -1.6282    0.5832    1.4046 H   0  0  0  0  0  0  0  0  0  0  0  0
   -1.3618    0.2470   -1.6023 H   0  0  0  0  0  0  0  0  0  0  0  0
   -0.1510   -1.6268   -1.3180 H   0  0  0  0  0  0  0  0  0  0  0  0
   -0.8187   -1.6564    0.3339 H   0  0  0  0  0  0  0  0  0  0  0  0
    1.6108   -1.8785    0.3061 H   0  0  0  0  0  0  0  0  0  0  0  0
    1.0339   -0.3847    1.1848 H   0  0  0  0  0  0  0  0  0  0  0  0
    2.3842   -0.8264   -1.5135 H   0  0  0  0  0  0  0  0  0  0  0  0
    1.9739    1.9568   -1.4706 H   0  0  0  0  0  0  0  0  0  0  0  0
    0.9380    0.7954   -2.3783 H   0  0  0  0  0  0  0  0  0  0  0  0
    0.4327    1.6364    0.4980 H   0  0  0  0  0  0  0  0  0  0  0  0
   -0.4067    2.3578   -0.9416 H   0  0  0  0  0  0  0  0  0  0  0  0
    2.9860    1.1587    0.6364 H   0  0  0  0  0  0  0  0  0  0  0  0
    5.4143    1.1498    1.1814 H   0  0  0  0  0  0  0  0  0  0  0  0
    6.8351   -1.1289   -1.5220 H   0  0  0  0  0  0  0  0  0  0  0  0
    9.1270   -1.6824   -1.6494 H   0  0  0  0  0  0  0  0  0  0  0  0
   10.7132   -0.9060    0.0416 H   0  0  0  0  0  0  0  0  0  0  0  0
    9.9108    0.4619    1.9332 H   0  0  0  0  0  0  0  0  0  0  0  0
   -5.7843    1.9392   -0.4784 H   0  0  0  0  0  0  0  0  0  0  0  0
   -8.1274    1.6156   -1.0680 H   0  0  0  0  0  0  0  0  0  0  0  0
  1  2  1  0
  2  3  1  0
  2  4  1  0
  2  5  1  0
  5  6  2  0
  6  7  1  0
  7  8  2  0
  8  9  1  0
  9 10  1  0
 10 11  2  0
 10 12  1  0
 12 13  1  0
 13 14  1  0
 14 15  1  0
 15 16  1  0
 16 17  1  0
 17 18  1  0
 16 19  1  0
 19 20  1  0
 20 21  2  0
 20 22  1  0
 22 23  1  0
 23 24  2  0
 24 25  1  0
 25 26  2  0
 26 27  1  0
 27 28  2  0
 28 29  1  0
  8 30  1  0
 30 31  2  0
 31  5  1  0
 18 13  1  0
 28 23  1  0
  6 32  1  0
  7 33  1  0
  9 34  1  0
 12 35  1  0
 13 36  1  6
 14 37  1  0
 14 38  1  0
 15 39  1  0
 15 40  1  0
 16 41  1  6
 17 42  1  0
 17 43  1  0
 18 44  1  0
 18 45  1  0
 19 46  1  0
 22 47  1  0
 24 48  1  0
 25 49  1  0
 26 50  1  0
 27 51  1  0
 30 52  1  0
 31 53  1  0
M  END
$$$$
[H]c1c([H])c([H])c(C([H])([H])[C@@]([H])(C(=O)N([H])[H])N([H])C(=O)[C@@]([H])(N([H])C(=O)[C@@]([H])(N([H])C(=O)[C@@]([H])(N([H])C(=O)[C@@]([H])(N([H])C(=O)C([H])([H])[H])C([H])([H])c2c([H])c([H])c([H])c([H])c2[H])C([H])([H])c2c([H])c([H])c([H])c([H])c2[H])C([H])([H])c2c([H])c([H])c([H])c([H])c2[H])C([H])([H])c2c([H])c([H])c([H])c([H])c2[H])c([H])c1[H]
     RDKit          3D

109113  0  0  0  0  0  0  0  0999 V2000
   -6.2843    1.3636    5.3136 C   0  0  0  0  0  0  0  0  0  0  0  0
   -6.0955    1.2519    3.8523 C   0  0  0  0  0  0  0  0  0  0  0  0
   -7.0683    1.2208    3.0487 O   0  0  0  0  0  0  0  0  0  0  0  0
   -4.8013    1.1763    3.3069 N   0  0  0  0  0  0  0  0  0  0  0  0
   -4.4879    1.0694    1.9111 C   0  0  1  0  0  0  0  0  0  0  0  0
   -3.6681    2.2315    1.4671 C   0  0  0  0  0  0  0  0  0  0  0  0
   -4.4884    3.4668    1.7115 C   0  0  0  0  0  0  0  0  0  0  0  0
   -4.3724    4.1884    2.8828 C   0  0  0  0  0  0  0  0  0  0  0  0
   -5.1523    5.3255    3.0730 C   0  0  0  0  0  0  0  0  0  0  0  0
   -6.0449    5.7523    2.1119 C   0  0  0  0  0  0  0  0  0  0  0  0
   -6.1474    5.0265    0.9593 C   0  0  0  0  0  0  0  0  0  0  0  0
   -5.3769    3.8893    0.7531 C   0  0  0  0  0  0  0  0  0  0  0  0
   -3.9551   -0.2572    1.5137 C   0  0  0  0  0  0  0  0  0  0  0  0
   -3.9324   -1.1622    2.3913 O   0  0  0  0  0  0  0  0  0  0  0  0
   -3.4839   -0.5406    0.2199 N   0  0  0  0  0  0  0  0  0  0  0  0
   -2.9724   -1.7556   -0.2935 C   0  0  1  0  0  0  0  0  0  0  0  0
   -3.3146   -2.0055   -1.7010 C   0  0  0  0  0  0  0  0  0  0  0  0
   -4.8031   -2.0807   -1.9287 C   0  0  0  0  0  0  0  0  0  0  0  0
   -5.5303   -0.9764   -2.3043 C   0  0  0  0  0  0  0  0  0  0  0  0
   -6.9017   -1.1038   -2.4881 C   0  0  0  0  0  0  0  0  0  0  0  0
   -7.5575   -2.3002   -2.3062 C   0  0  0  0  0  0  0  0  0  0  0  0
   -6.8266   -3.4081   -1.9291 C   0  0  0  0  0  0  0  0  0  0  0  0
   -5.4656   -3.2758   -1.7484 C   0  0  0  0  0  0  0  0  0  0  0  0
   -1.5650   -2.0746    0.0947 C   0  0  0  0  0  0  0  0  0  0  0  0
   -1.2621   -1.9432    1.3029 O   0  0  0  0  0  0  0  0  0  0  0  0
   -0.5971   -2.5035   -0.8251 N   0  0  0  0  0  0  0  0  0  0  0  0
    0.7504   -2.8636   -0.5325 C   0  0  1  0  0  0  0  0  0  0  0  0
    1.4138   -3.6899   -1.5651 C   0  0  0  0  0  0  0  0  0  0  0  0
    0.7185   -4.9742   -1.8231 C   0  0  0  0  0  0  0  0  0  0  0  0
    0.9922   -6.0879   -1.0906 C   0  0  0  0  0  0  0  0  0  0  0  0
    0.3602   -7.2995   -1.3113 C   0  0  0  0  0  0  0  0  0  0  0  0
   -0.5795   -7.3807   -2.3077 C   0  0  0  0  0  0  0  0  0  0  0  0
   -0.8778   -6.2818   -3.0614 C   0  0  0  0  0  0  0  0  0  0  0  0
   -0.2393   -5.0988   -2.8227 C   0  0  0  0  0  0  0  0  0  0  0  0
    1.5722   -1.7207   -0.0171 C   0  0  0  0  0  0  0  0  0  0  0  0
    1.0121   -0.6418    0.2053 O   0  0  0  0  0  0  0  0  0  0  0  0
    2.9403   -1.8877    0.2056 N   0  0  0  0  0  0  0  0  0  0  0  0
    3.8683   -0.9207    0.7246 C   0  0  1  0  0  0  0  0  0  0  0  0
    5.0766   -1.4372    1.3674 C   0  0  0  0  0  0  0  0  0  0  0  0
    5.9659   -2.3030    0.6027 C   0  0  0  0  0  0  0  0  0  0  0  0
    5.7698   -3.6687    0.6665 C   0  0  0  0  0  0  0  0  0  0  0  0
    6.5647   -4.5579   -0.0167 C   0  0  0  0  0  0  0  0  0  0  0  0
    7.6138   -4.1011   -0.8107 C   0  0  0  0  0  0  0  0  0  0  0  0
    7.8047   -2.7470   -0.8723 C   0  0  0  0  0  0  0  0  0  0  0  0
    6.9935   -1.8495   -0.1753 C   0  0  0  0  0  0  0  0  0  0  0  0
    3.9610    0.3024   -0.0993 C   0  0  0  0  0  0  0  0  0  0  0  0
    3.3000    0.3636   -1.1490 O   0  0  0  0  0  0  0  0  0  0  0  0
    4.7608    1.4043    0.2738 N   0  0  0  0  0  0  0  0  0  0  0  0
    4.8010    2.6636   -0.5176 C   0  0  1  0  0  0  0  0  0  0  0  0
    4.3699    3.7510    0.4425 C   0  0  0  0  0  0  0  0  0  0  0  0
    4.2927    5.1086   -0.0791 C   0  0  0  0  0  0  0  0  0  0  0  0
    5.3131    6.0312   -0.0369 C   0  0  0  0  0  0  0  0  0  0  0  0
    5.2004    7.3242   -0.5265 C   0  0  0  0  0  0  0  0  0  0  0  0
    3.9922    7.7297   -1.0967 C   0  0  0  0  0  0  0  0  0  0  0  0
    2.9601    6.8481   -1.1574 C   0  0  0  0  0  0  0  0  0  0  0  0
    3.1088    5.5787   -0.6637 C   0  0  0  0  0  0  0  0  0  0  0  0
    6.1644    2.8218   -1.0488 C   0  0  0  0  0  0  0  0  0  0  0  0
    6.5902    3.8463   -1.9240 N   0  0  0  0  0  0  0  0  0  0  0  0
    7.0969    1.9880   -0.7306 O   0  0  0  0  0  0  0  0  0  0  0  0
   -5.5642    2.1536    5.6636 H   0  0  0  0  0  0  0  0  0  0  0  0
   -5.9956    0.4284    5.8227 H   0  0  0  0  0  0  0  0  0  0  0  0
   -7.3049    1.6874    5.5627 H   0  0  0  0  0  0  0  0  0  0  0  0
   -3.9814    1.2019    3.9715 H   0  0  0  0  0  0  0  0  0  0  0  0
   -5.4831    1.1370    1.3467 H   0  0  0  0  0  0  0  0  0  0  0  0
   -3.3857    2.1713    0.3889 H   0  0  0  0  0  0  0  0  0  0  0  0
   -2.7797    2.3478    2.1262 H   0  0  0  0  0  0  0  0  0  0  0  0
   -3.6982    3.9136    3.6628 H   0  0  0  0  0  0  0  0  0  0  0  0
   -5.0599    5.8795    3.9840 H   0  0  0  0  0  0  0  0  0  0  0  0
   -6.6321    6.6326    2.2894 H   0  0  0  0  0  0  0  0  0  0  0  0
   -6.8489    5.3596    0.2025 H   0  0  0  0  0  0  0  0  0  0  0  0
   -5.4919    3.3455   -0.1773 H   0  0  0  0  0  0  0  0  0  0  0  0
   -3.5319    0.2955   -0.4559 H   0  0  0  0  0  0  0  0  0  0  0  0
   -3.5531   -2.5706    0.3211 H   0  0  0  0  0  0  0  0  0  0  0  0
   -2.9296   -1.2433   -2.3957 H   0  0  0  0  0  0  0  0  0  0  0  0
   -2.9179   -2.9964   -2.0666 H   0  0  0  0  0  0  0  0  0  0  0  0
   -5.0080   -0.0333   -2.4510 H   0  0  0  0  0  0  0  0  0  0  0  0
   -7.4664   -0.2063   -2.7917 H   0  0  0  0  0  0  0  0  0  0  0  0
   -8.6130   -2.4219   -2.4409 H   0  0  0  0  0  0  0  0  0  0  0  0
   -7.3383   -4.3602   -1.7863 H   0  0  0  0  0  0  0  0  0  0  0  0
   -4.8718   -4.1529   -1.4488 H   0  0  0  0  0  0  0  0  0  0  0  0
   -0.9212   -2.5564   -1.8346 H   0  0  0  0  0  0  0  0  0  0  0  0
    0.6660   -3.5005    0.4268 H   0  0  0  0  0  0  0  0  0  0  0  0
    2.4733   -3.8958   -1.4161 H   0  0  0  0  0  0  0  0  0  0  0  0
    1.3716   -3.1067   -2.5364 H   0  0  0  0  0  0  0  0  0  0  0  0
    1.7243   -6.0497   -0.3028 H   0  0  0  0  0  0  0  0  0  0  0  0
    0.5779   -8.1900   -0.7248 H   0  0  0  0  0  0  0  0  0  0  0  0
   -1.0924   -8.3070   -2.5077 H   0  0  0  0  0  0  0  0  0  0  0  0
   -1.6248   -6.3271   -3.8604 H   0  0  0  0  0  0  0  0  0  0  0  0
   -0.4874   -4.2565   -3.4289 H   0  0  0  0  0  0  0  0  0  0  0  0
    3.3564   -2.8281   -0.0230 H   0  0  0  0  0  0  0  0  0  0  0  0
    3.2336   -0.4720    1.6207 H   0  0  0  0  0  0  0  0  0  0  0  0
    4.7933   -1.8902    2.3682 H   0  0  0  0  0  0  0  0  0  0  0  0
    5.6916   -0.5431    1.6927 H   0  0  0  0  0  0  0  0  0  0  0  0
    4.9680   -4.0507    1.2755 H   0  0  0  0  0  0  0  0  0  0  0  0
    6.3517   -5.6169    0.0827 H   0  0  0  0  0  0  0  0  0  0  0  0
    8.2092   -4.8301   -1.3231 H   0  0  0  0  0  0  0  0  0  0  0  0
    8.6113   -2.3559   -1.4868 H   0  0  0  0  0  0  0  0  0  0  0  0
    7.2412   -0.8102   -0.2961 H   0  0  0  0  0  0  0  0  0  0  0  0
    5.3804    1.4201    1.1237 H   0  0  0  0  0  0  0  0  0  0  0  0
    4.1048    2.5602   -1.3636 H   0  0  0  0  0  0  0  0  0  0  0  0
    3.3356    3.4405    0.7809 H   0  0  0  0  0  0  0  0  0  0  0  0
    4.9898    3.6723    1.3710 H   0  0  0  0  0  0  0  0  0  0  0  0
    6.2649    5.7622    0.3946 H   0  0  0  0  0  0  0  0  0  0  0  0
    6.0000    8.0457   -0.4912 H   0  0  0  0  0  0  0  0  0  0  0  0
    3.9096    8.7366   -1.4755 H   0  0  0  0  0  0  0  0  0  0  0  0
    2.0080    7.1764   -1.6103 H   0  0  0  0  0  0  0  0  0  0  0  0
    2.2913    4.8636   -0.7014 H   0  0  0  0  0  0  0  0  0  0  0  0
    7.4429    4.4491   -1.7080 H   0  0  0  0  0  0  0  0  0  0  0  0
    6.1080    4.0669   -2.8155 H   0  0  0  0  0  0  0  0  0  0  0  0
  1  2  1  0
  2  3  2  0
  2  4  1  0
  4  5  1  0
  5  6  1  0
  6  7  1  0
  7  8  2  0
  8  9  1  0
  9 10  2  0
 10 11  1  0
 11 12  2  0
  5 13  1  0
 13 14  2  0
 13 15  1  0
 15 16  1  0
 16 17  1  0
 17 18  1  0
 18 19  2  0
 19 20  1  0
 20 21  2  0
 21 22  1  0
 22 23  2  0
 16 24  1  0
 24 25  2  0
 24 26  1  0
 26 27  1  0
 27 28  1  0
 28 29  1  0
 29 30  2  0
 30 31  1  0
 31 32  2  0
 32 33  1  0
 33 34  2  0
 27 35  1  0
 35 36  2  0
 35 37  1  0
 37 38  1  0
 38 39  1  0
 39 40  1  0
 40 41  2  0
 41 42  1  0
 42 43  2  0
 43 44  1  0
 44 45  2  0
 38 46  1  0
 46 47  2  0
 46 48  1  0
 48 49  1  0
 49 50  1  0
 50 51  1  0
 51 52  2  0
 52 53  1  0
 53 54  2  0
 54 55  1  0
 55 56  2  0
 49 57  1  0
 57 58  1  0
 57 59  2  0
 12  7  1  0
 23 18  1  0
 34 29  1  0
 45 40  1  0
 56 51  1  0
  1 60  1  0
  1 61  1  0
  1 62  1  0
  4 63  1  0
  5 64  1  6
  6 65  1  0
  6 66  1  0
  8 67  1  0
  9 68  1  0
 10 69  1  0
 11 70  1  0
 12 71  1  0
 15 72  1  0
 16 73  1  1
 17 74  1  0
 17 75  1  0
 19 76  1  0
 20 77  1  0
 21 78  1  0
 22 79  1  0
 23 80  1  0
 26 81  1  0
 27 82  1  1
 28 83  1  0
 28 84  1  0
 30 85  1  0
 31 86  1  0
 32 87  1  0
 33 88  1  0
 34 89  1  0
 37 90  1  0
 38 91  1  1
 39 92  1  0
 39 93  1  0
 41 94  1  0
 42 95  1  0
 43 96  1  0
 44 97  1  0
 45 98  1  0
 48 99  1  0
 49100  1  6
 50101  1  0
 50102  1  0
 52103  1  0
 53104  1  0
 54105  1  0
 55106  1  0
 56107  1  0
 58108  1  0
 58109  1  0
M  END
$$$$
[H]c1c([H])c(C#N)c([H])c(N([H])C(=O)c2c([H])c([H])c([H])c(C(F)(F)F)c2[H])c1[H]
     RDKit          3D

 30 31  0  0  0  0  0  0  0  0999 V2000
   -4.7820    2.3221    0.7979 F   0  0  0  0  0  0  0  0  0  0  0  0
   -4.2639    1.8941   -0.4182 C   0  0  0  0  0  0  0  0  0  0  0  0
   -5.3521    1.6574   -1.2520 F   0  0  0  0  0  0  0  0  0  0  0  0
   -3.4283    2.8300   -0.9228 F   0  0  0  0  0  0  0  0  0  0  0  0
   -3.5827    0.6021   -0.1959 C   0  0  0  0  0  0  0  0  0  0  0  0
   -4.3425   -0.5399   -0.2002 C   0  0  0  0  0  0  0  0  0  0  0  0
   -3.7564   -1.7599    0.0167 C   0  0  0  0  0  0  0  0  0  0  0  0
   -2.4009   -1.8221    0.2393 C   0  0  0  0  0  0  0  0  0  0  0  0
   -1.6234   -0.6723    0.2448 C   0  0  0  0  0  0  0  0  0  0  0  0
   -2.2246    0.5385    0.0256 C   0  0  0  0  0  0  0  0  0  0  0  0
   -0.1954   -0.7885    0.5156 C   0  0  0  0  0  0  0  0  0  0  0  0
    0.0902   -1.6095    1.4281 O   0  0  0  0  0  0  0  0  0  0  0  0
    0.7644   -0.0683   -0.1728 N   0  0  0  0  0  0  0  0  0  0  0  0
    2.1577   -0.1584    0.0381 C   0  0  0  0  0  0  0  0  0  0  0  0
    2.8000   -1.1679    0.7047 C   0  0  0  0  0  0  0  0  0  0  0  0
    4.1961   -1.1884    0.8829 C   0  0  0  0  0  0  0  0  0  0  0  0
    4.9733   -0.1697    0.3781 C   0  0  0  0  0  0  0  0  0  0  0  0
    4.3653    0.8674   -0.3025 C   0  0  0  0  0  0  0  0  0  0  0  0
    3.0062    0.8474   -0.4528 C   0  0  0  0  0  0  0  0  0  0  0  0
    5.1898    1.9518   -0.8303 C   0  0  0  0  0  0  0  0  0  0  0  0
    5.8586    2.8061   -1.2317 N   0  0  0  0  0  0  0  0  0  0  0  0
   -5.4142   -0.5194   -0.3748 H   0  0  0  0  0  0  0  0  0  0  0  0
   -4.3613   -2.6508    0.0102 H   0  0  0  0  0  0  0  0  0  0  0  0
   -1.9589   -2.7953    0.4105 H   0  0  0  0  0  0  0  0  0  0  0  0
   -1.6612    1.4635    0.0253 H   0  0  0  0  0  0  0  0  0  0  0  0
    0.4372    0.6107   -0.9220 H   0  0  0  0  0  0  0  0  0  0  0  0
    2.2566   -2.0162    1.1121 H   0  0  0  0  0  0  0  0  0  0  0  0
    4.6841   -2.0031    1.4204 H   0  0  0  0  0  0  0  0  0  0  0  0
    6.0468   -0.1252    0.4825 H   0  0  0  0  0  0  0  0  0  0  0  0
    2.5217    1.6638   -0.9905 H   0  0  0  0  0  0  0  0  0  0  0  0
  1  2  1  0
  2  3  1  0
  2  4  1  0
  2  5  1  0
  5  6  2  0
  6  7  1  0
  7  8  2  0
  8  9  1  0
  9 10  2  0
  9 11  1  0
 11 12  2  0
 11 13  1  0
 13 14  1  0
 14 15  2  0
 15 16  1  0
 16 17  2  0
 17 18  1  0
 18 19  2  0
 18 20  1  0
 20 21  3  0
 10  5  1  0
 19 14  1  0
  6 22  1  0
  7 23  1  0
  8 24  1  0
 10 25  1  0
 13 26  1  0
 15 27  1  0
 16 28  1  0
 17 29  1  0
 19 30  1  0
M  END
$$$$
[H]O[C@@]1([H])C([H])([H])C([H])([H])[C@]2(C([H])([H])[H])[C@@]3([H])C([H])([H])C([H])([H])[C@]4(C([H])([H])[H])[C@@]([H])(O[H])C([H])([H])C([H])([H])[C@@]4([H])[C@]3([H])C([H])([H])[C@@]([H])(O[H])[C@]2([H])C1([H])[H]
     RDKit          3D

 54 57  0  0  0  0  0  0  0  0999 V2000
   -3.1815   -0.0982   -1.4165 C   0  0  0  0  0  0  0  0  0  0  0  0
   -2.6670    0.5402   -0.1595 C   0  0  2  0  0  0  0  0  0  0  0  0
   -1.8281    1.7187   -0.3444 C   0  0  0  0  0  0  0  0  0  0  0  0
   -0.4896    1.7471    0.2969 C   0  0  0  0  0  0  0  0  0  0  0  0
    0.2407    0.4728    0.4096 C   0  0  1  0  0  0  0  0  0  0  0  0
   -0.6251   -0.7458    0.0448 C   0  0  1  0  0  0  0  0  0  0  0  0
    0.0111   -2.0296    0.4248 C   0  0  0  0  0  0  0  0  0  0  0  0
    1.3835   -1.7807    0.9452 C   0  0  1  0  0  0  0  0  0  0  0  0
    2.0479   -3.0315    0.9616 O   0  0  0  0  0  0  0  0  0  0  0  0
    2.2207   -0.8869    0.0606 C   0  0  2  0  0  0  0  0  0  0  0  0
    3.5432   -0.7402    0.7832 C   0  0  0  0  0  0  0  0  0  0  0  0
    4.4296    0.1977    0.0115 C   0  0  1  0  0  0  0  0  0  0  0  0
    4.7028   -0.2651   -1.2722 O   0  0  0  0  0  0  0  0  0  0  0  0
    3.8212    1.5528    0.0355 C   0  0  0  0  0  0  0  0  0  0  0  0
    2.3517    1.6289   -0.0050 C   0  0  0  0  0  0  0  0  0  0  0  0
    1.5816    0.4104   -0.2903 C   0  0  2  0  0  0  0  0  0  0  0  0
    1.2618    0.3705   -1.7925 C   0  0  0  0  0  0  0  0  0  0  0  0
   -1.9047   -0.4691    0.7117 C   0  0  2  0  0  0  0  0  0  0  0  0
   -2.9043   -1.5259    0.8335 C   0  0  0  0  0  0  0  0  0  0  0  0
   -4.1816   -0.7304    1.1040 C   0  0  0  0  0  0  0  0  0  0  0  0
   -3.8596    0.7166    0.7607 C   0  0  2  0  0  0  0  0  0  0  0  0
   -4.9212    1.3385    0.1433 O   0  0  0  0  0  0  0  0  0  0  0  0
   -4.2636   -0.3384   -1.3706 H   0  0  0  0  0  0  0  0  0  0  0  0
   -2.6601   -0.9999   -1.7257 H   0  0  0  0  0  0  0  0  0  0  0  0
   -3.0776    0.6575   -2.2302 H   0  0  0  0  0  0  0  0  0  0  0  0
   -1.6986    1.8986   -1.4526 H   0  0  0  0  0  0  0  0  0  0  0  0
   -2.4076    2.6298   -0.0087 H   0  0  0  0  0  0  0  0  0  0  0  0
    0.1203    2.5116   -0.2719 H   0  0  0  0  0  0  0  0  0  0  0  0
   -0.6219    2.2459    1.3052 H   0  0  0  0  0  0  0  0  0  0  0  0
    0.4810    0.2994    1.5025 H   0  0  0  0  0  0  0  0  0  0  0  0
   -0.7559   -0.7249   -1.0521 H   0  0  0  0  0  0  0  0  0  0  0  0
   -0.0097   -2.7935   -0.3793 H   0  0  0  0  0  0  0  0  0  0  0  0
   -0.5870   -2.4723    1.2647 H   0  0  0  0  0  0  0  0  0  0  0  0
    1.3868   -1.4533    2.0111 H   0  0  0  0  0  0  0  0  0  0  0  0
    1.9135   -3.4884    0.0771 H   0  0  0  0  0  0  0  0  0  0  0  0
    2.4544   -1.5078   -0.8545 H   0  0  0  0  0  0  0  0  0  0  0  0
    4.0097   -1.7365    0.8056 H   0  0  0  0  0  0  0  0  0  0  0  0
    3.4377   -0.3508    1.8009 H   0  0  0  0  0  0  0  0  0  0  0  0
    5.4166    0.2107    0.5447 H   0  0  0  0  0  0  0  0  0  0  0  0
    4.8886    0.5385   -1.8362 H   0  0  0  0  0  0  0  0  0  0  0  0
    4.3172    2.1442   -0.7929 H   0  0  0  0  0  0  0  0  0  0  0  0
    4.2063    2.0651    0.9688 H   0  0  0  0  0  0  0  0  0  0  0  0
    2.0823    2.4067   -0.7836 H   0  0  0  0  0  0  0  0  0  0  0  0
    1.9562    2.0856    0.9508 H   0  0  0  0  0  0  0  0  0  0  0  0
    0.9765   -0.6359   -2.1232 H   0  0  0  0  0  0  0  0  0  0  0  0
    2.1668    0.6486   -2.3825 H   0  0  0  0  0  0  0  0  0  0  0  0
    0.5196    1.1535   -1.9749 H   0  0  0  0  0  0  0  0  0  0  0  0
   -1.7828    0.0434    1.6991 H   0  0  0  0  0  0  0  0  0  0  0  0
   -2.7410   -2.2355    1.6709 H   0  0  0  0  0  0  0  0  0  0  0  0
   -3.0633   -2.1220   -0.0712 H   0  0  0  0  0  0  0  0  0  0  0  0
   -5.0385   -1.1090    0.5438 H   0  0  0  0  0  0  0  0  0  0  0  0
   -4.3700   -0.7739    2.2164 H   0  0  0  0  0  0  0  0  0  0  0  0
   -3.5120    1.2539    1.6633 H   0  0  0  0  0  0  0  0  0  0  0  0
   -4.7773    1.5581   -0.8001 H   0  0  0  0  0  0  0  0  0  0  0  0
  2  1  1  6
  2  3  1  0
  3  4  1  0
  4  5  1  0
  5  6  1  0
  6  7  1  0
  7  8  1  0
  8  9  1  0
  8 10  1  0
 10 11  1  0
 11 12  1  0
 12 13  1  0
 12 14  1  0
 14 15  1  0
 15 16  1  0
 16 17  1  6
  6 18  1  0
 18 19  1  0
 19 20  1  0
 20 21  1  0
 21 22  1  0
 18  2  1  0
 21  2  1  0
 16  5  1  0
 16 10  1  0
  1 23  1  0
  1 24  1  0
  1 25  1  0
  3 26  1  0
  3 27  1  0
  4 28  1  0
  4 29  1  0
  5 30  1  1
  6 31  1  6
  7 32  1  0
  7 33  1  0
  8 34  1  1
  9 35  1  0
 10 36  1  6
 11 37  1  0
 11 38  1  0
 12 39  1  1
 13 40  1  0
 14 41  1  0
 14 42  1  0
 15 43  1  0
 15 44  1  0
 17 45  1  0
 17 46  1  0
 17 47  1  0
 18 48  1  1
 19 49  1  0
 19 50  1  0
 20 51  1  0
 20 52  1  0
 21 53  1  1
 22 54  1  0
M  END
$$$$
[H]c1c([H])c(-c2nc(C(=O)N3C([H])([H])C([H])([H])N(C(=O)c4c([H])c([H])c(Cl)c([H])c4[H])C([H])([H])C3([H])[H])nn2[H])c([H])c([H])c1F
     RDKit          3D

 46 49  0  0  0  0  0  0  0  0999 V2000
    9.2917    2.1448    0.5264 F   0  0  0  0  0  0  0  0  0  0  0  0
    8.0384    1.6965    0.3798 C   0  0  0  0  0  0  0  0  0  0  0  0
    7.3695    1.2462    1.4842 C   0  0  0  0  0  0  0  0  0  0  0  0
    6.0763    0.7816    1.3430 C   0  0  0  0  0  0  0  0  0  0  0  0
    5.4170    0.7476    0.1342 C   0  0  0  0  0  0  0  0  0  0  0  0
    6.1227    1.2102   -0.9608 C   0  0  0  0  0  0  0  0  0  0  0  0
    7.4180    1.6827   -0.8604 C   0  0  0  0  0  0  0  0  0  0  0  0
    4.0615    0.2615   -0.0206 C   0  0  0  0  0  0  0  0  0  0  0  0
    3.3359    0.1877   -1.1464 N   0  0  0  0  0  0  0  0  0  0  0  0
    2.1455   -0.3066   -0.9080 N   0  0  0  0  0  0  0  0  0  0  0  0
    2.0485   -0.5773    0.3987 C   0  0  0  0  0  0  0  0  0  0  0  0
    3.2563   -0.2156    0.9379 N   0  0  0  0  0  0  0  0  0  0  0  0
    0.9635   -1.1292    1.1802 C   0  0  0  0  0  0  0  0  0  0  0  0
    1.1146   -1.2908    2.4136 O   0  0  0  0  0  0  0  0  0  0  0  0
   -0.2537   -1.4841    0.5766 N   0  0  0  0  0  0  0  0  0  0  0  0
   -1.3409   -2.0296    1.3881 C   0  0  0  0  0  0  0  0  0  0  0  0
   -2.6427   -1.2697    1.0505 C   0  0  0  0  0  0  0  0  0  0  0  0
   -2.7962   -1.1441   -0.3546 N   0  0  0  0  0  0  0  0  0  0  0  0
   -1.7979   -1.9054   -1.1987 C   0  0  0  0  0  0  0  0  0  0  0  0
   -0.4418   -1.3128   -0.8559 C   0  0  0  0  0  0  0  0  0  0  0  0
   -3.7273   -0.4401   -1.0856 C   0  0  0  0  0  0  0  0  0  0  0  0
   -3.5904   -0.4954   -2.4011 O   0  0  0  0  0  0  0  0  0  0  0  0
   -4.8392    0.3578   -0.6177 C   0  0  0  0  0  0  0  0  0  0  0  0
   -5.5694    1.1086   -1.5840 C   0  0  0  0  0  0  0  0  0  0  0  0
   -6.6439    1.8542   -1.1960 C   0  0  0  0  0  0  0  0  0  0  0  0
   -7.0791    1.9284    0.1101 C   0  0  0  0  0  0  0  0  0  0  0  0
   -8.4708    2.9115    0.5277 Cl  0  0  0  0  0  0  0  0  0  0  0  0
   -6.4004    1.2188    1.0653 C   0  0  0  0  0  0  0  0  0  0  0  0
   -5.2969    0.4525    0.6665 C   0  0  0  0  0  0  0  0  0  0  0  0
    7.8783    1.2658    2.4566 H   0  0  0  0  0  0  0  0  0  0  0  0
    5.5539    0.4272    2.2209 H   0  0  0  0  0  0  0  0  0  0  0  0
    5.6458    1.2017   -1.9249 H   0  0  0  0  0  0  0  0  0  0  0  0
    7.9210    2.0326   -1.7527 H   0  0  0  0  0  0  0  0  0  0  0  0
    3.7375    0.5070   -2.0785 H   0  0  0  0  0  0  0  0  0  0  0  0
   -1.1142   -1.7797    2.4353 H   0  0  0  0  0  0  0  0  0  0  0  0
   -1.4809   -3.0885    1.2294 H   0  0  0  0  0  0  0  0  0  0  0  0
   -3.4315   -1.8961    1.4868 H   0  0  0  0  0  0  0  0  0  0  0  0
   -2.6050   -0.2927    1.5637 H   0  0  0  0  0  0  0  0  0  0  0  0
   -2.0560   -1.8057   -2.2448 H   0  0  0  0  0  0  0  0  0  0  0  0
   -1.7732   -2.9590   -0.8260 H   0  0  0  0  0  0  0  0  0  0  0  0
    0.2894   -1.9653   -1.3929 H   0  0  0  0  0  0  0  0  0  0  0  0
   -0.4217   -0.2688   -1.1719 H   0  0  0  0  0  0  0  0  0  0  0  0
   -5.2319    1.0558   -2.6075 H   0  0  0  0  0  0  0  0  0  0  0  0
   -7.1828    2.4164   -1.9501 H   0  0  0  0  0  0  0  0  0  0  0  0
   -6.6797    1.2263    2.1054 H   0  0  0  0  0  0  0  0  0  0  0  0
   -4.8177   -0.0977    1.4583 H   0  0  0  0  0  0  0  0  0  0  0  0
  1  2  1  0
  2  3  2  0
  3  4  1  0
  4  5  2  0
  5  6  1  0
  6  7  2  0
  5  8  1  0
  8  9  1  0
  9 10  1  0
 10 11  2  0
 11 12  1  0
 11 13  1  0
 13 14  2  0
 13 15  1  0
 15 16  1  0
 16 17  1  0
 17 18  1  0
 18 19  1  0
 19 20  1  0
 18 21  1  0
 21 22  2  0
 21 23  1  0
 23 24  2  0
 24 25  1  0
 25 26  2  0
 26 27  1  0
 26 28  1  0
 28 29  2  0
  7  2  1  0
 12  8  2  0
 20 15  1  0
 29 23  1  0
  3 30  1  0
  4 31  1  0
  6 32  1  0
  7 33  1  0
  9 34  1  0
 16 35  1  0
 16 36  1  0
 17 37  1  0
 17 38  1  0
 19 39  1  0
 19 40  1  0
 20 41  1  0
 20 42  1  0
 24 43  1  0
 25 44  1  0
 28 45  1  0
 29 46  1  0
M  END
$$$$
[H]c1nc(N([H])[H])c(C(=O)N([H])c2c([H])c([H])c(-c3c([H])nn(C4([H])C([H])([H])C([H])([H])N([H])C([H])([H])C4([H])[H])c3[H])c([H])c2[H])c([H])c1-c1c([H])nn(C([H])([H])[H])c1[H]
     RDKit          3D

 59 63  0  0  0  0  0  0  0  0999 V2000
   10.3701    2.0219    0.2938 C   0  0  0  0  0  0  0  0  0  0  0  0
    9.0397    1.5631   -0.0836 N   0  0  0  0  0  0  0  0  0  0  0  0
    8.4747    0.3654    0.1527 C   0  0  0  0  0  0  0  0  0  0  0  0
    7.1820    0.3328   -0.3839 C   0  0  0  0  0  0  0  0  0  0  0  0
    7.0104    1.5745   -0.9509 C   0  0  0  0  0  0  0  0  0  0  0  0
    8.1373    2.2811   -0.7528 N   0  0  0  0  0  0  0  0  0  0  0  0
    6.2852   -0.8010   -0.3126 C   0  0  0  0  0  0  0  0  0  0  0  0
    6.7375   -2.0994   -0.2992 C   0  0  0  0  0  0  0  0  0  0  0  0
    5.8971   -3.1480   -0.2426 N   0  0  0  0  0  0  0  0  0  0  0  0
    4.5659   -3.0143   -0.1957 C   0  0  0  0  0  0  0  0  0  0  0  0
    3.6862   -4.1273   -0.1282 N   0  0  0  0  0  0  0  0  0  0  0  0
    4.0484   -1.7099   -0.2078 C   0  0  0  0  0  0  0  0  0  0  0  0
    4.9002   -0.6301   -0.2647 C   0  0  0  0  0  0  0  0  0  0  0  0
    2.5918   -1.5417   -0.1817 C   0  0  0  0  0  0  0  0  0  0  0  0
    1.9171   -2.5787   -0.1648 O   0  0  0  0  0  0  0  0  0  0  0  0
    2.0327   -0.2619   -0.1790 N   0  0  0  0  0  0  0  0  0  0  0  0
    0.6571    0.0094   -0.1593 C   0  0  0  0  0  0  0  0  0  0  0  0
    0.2386    1.3093   -0.4911 C   0  0  0  0  0  0  0  0  0  0  0  0
   -1.0881    1.6583   -0.4941 C   0  0  0  0  0  0  0  0  0  0  0  0
   -2.0475    0.7302   -0.1680 C   0  0  0  0  0  0  0  0  0  0  0  0
   -1.6751   -0.5495    0.1626 C   0  0  0  0  0  0  0  0  0  0  0  0
   -0.3062   -0.9049    0.1646 C   0  0  0  0  0  0  0  0  0  0  0  0
   -3.4416    1.1020   -0.1828 C   0  0  0  0  0  0  0  0  0  0  0  0
   -4.0011    2.3327    0.1128 C   0  0  0  0  0  0  0  0  0  0  0  0
   -5.3097    2.2161   -0.0467 N   0  0  0  0  0  0  0  0  0  0  0  0
   -5.6224    0.9795   -0.4280 N   0  0  0  0  0  0  0  0  0  0  0  0
   -4.5041    0.2580   -0.5246 C   0  0  0  0  0  0  0  0  0  0  0  0
   -6.9530    0.4667   -0.7119 C   0  0  0  0  0  0  0  0  0  0  0  0
   -8.0588    1.2992   -0.1557 C   0  0  0  0  0  0  0  0  0  0  0  0
   -8.3883    1.0649    1.2798 C   0  0  0  0  0  0  0  0  0  0  0  0
   -8.3482   -0.3234    1.6877 N   0  0  0  0  0  0  0  0  0  0  0  0
   -7.1284   -0.9782    1.2527 C   0  0  0  0  0  0  0  0  0  0  0  0
   -7.0641   -0.9555   -0.2583 C   0  0  0  0  0  0  0  0  0  0  0  0
   11.0020    1.0858    0.3326 H   0  0  0  0  0  0  0  0  0  0  0  0
   10.7579    2.7217   -0.4774 H   0  0  0  0  0  0  0  0  0  0  0  0
   10.3274    2.4457    1.3062 H   0  0  0  0  0  0  0  0  0  0  0  0
    8.9271   -0.4556    0.6704 H   0  0  0  0  0  0  0  0  0  0  0  0
    6.1143    1.9121   -1.4680 H   0  0  0  0  0  0  0  0  0  0  0  0
    7.8099   -2.2460   -0.3377 H   0  0  0  0  0  0  0  0  0  0  0  0
    3.3163   -4.4576    0.7851 H   0  0  0  0  0  0  0  0  0  0  0  0
    3.4068   -4.6187   -0.9949 H   0  0  0  0  0  0  0  0  0  0  0  0
    4.5747    0.4030   -0.2774 H   0  0  0  0  0  0  0  0  0  0  0  0
    2.6674    0.6050   -0.1849 H   0  0  0  0  0  0  0  0  0  0  0  0
    0.9823    2.0366   -0.7464 H   0  0  0  0  0  0  0  0  0  0  0  0
   -1.3635    2.6834   -0.7584 H   0  0  0  0  0  0  0  0  0  0  0  0
   -2.3811   -1.3115    0.4235 H   0  0  0  0  0  0  0  0  0  0  0  0
   -0.0843   -1.9065    0.4447 H   0  0  0  0  0  0  0  0  0  0  0  0
   -3.4932    3.2412    0.4201 H   0  0  0  0  0  0  0  0  0  0  0  0
   -4.3989   -0.7829   -0.8101 H   0  0  0  0  0  0  0  0  0  0  0  0
   -7.1252    0.4360   -1.8317 H   0  0  0  0  0  0  0  0  0  0  0  0
   -7.7237    2.3756   -0.2277 H   0  0  0  0  0  0  0  0  0  0  0  0
   -8.9519    1.2502   -0.8093 H   0  0  0  0  0  0  0  0  0  0  0  0
   -9.4613    1.3894    1.4279 H   0  0  0  0  0  0  0  0  0  0  0  0
   -7.7994    1.6788    1.9890 H   0  0  0  0  0  0  0  0  0  0  0  0
   -9.1924   -0.8635    1.3893 H   0  0  0  0  0  0  0  0  0  0  0  0
   -6.2476   -0.5642    1.7393 H   0  0  0  0  0  0  0  0  0  0  0  0
   -7.2130   -2.0476    1.5557 H   0  0  0  0  0  0  0  0  0  0  0  0
   -6.2492   -1.5958   -0.6131 H   0  0  0  0  0  0  0  0  0  0  0  0
   -8.0366   -1.3557   -0.6366 H   0  0  0  0  0  0  0  0  0  0  0  0
  1  2  1  0
  2  3  1  0
  3  4  2  0
  4  5  1  0
  5  6  2  0
  4  7  1  0
  7  8  2  0
  8  9  1  0
  9 10  2  0
 10 11  1  0
 10 12  1  0
 12 13  2  0
 12 14  1  0
 14 15  2  0
 14 16  1  0
 16 17  1  0
 17 18  2  0
 18 19  1  0
 19 20  2  0
 20 21  1  0
 21 22  2  0
 20 23  1  0
 23 24  1  0
 24 25  2  0
 25 26  1  0
 26 27  1  0
 26 28  1  0
 28 29  1  0
 29 30  1  0
 30 31  1  0
 31 32  1  0
 32 33  1  0
  6  2  1  0
 13  7  1  0
 22 17  1  0
 27 23  2  0
 33 28  1  0
  1 34  1  0
  1 35  1  0
  1 36  1  0
  3 37  1  0
  5 38  1  0
  8 39  1  0
 11 40  1  0
 11 41  1  0
 13 42  1  0
 16 43  1  0
 18 44  1  0
 19 45  1  0
 21 46  1  0
 22 47  1  0
 24 48  1  0
 27 49  1  0
 28 50  1  0
 29 51  1  0
 29 52  1  0
 30 53  1  0
 30 54  1  0
 31 55  1  0
 32 56  1  0
 32 57  1  0
 33 58  1  0
 33 59  1  0
M  END
$$$$
[H]N(C(=O)[C@]([H])(C(=O)C([H])([H])[H])C([H])([H])[H])[C@]([H])(C(=O)N([H])[C@]([H])(C(=O)N([H])[C@]([H])(C(=O)N([H])[C@]([H])(C(=O)N([H])[C@]([H])(C(=O)N([H])[C@]([H])(C(=O)N([H])[C@]([H])(C(=O)N([H])[C@]([H])(C(=O)N1C([H])([H])C([H])([H])C([H])([H])[C@@]1([H])C(=O)N(C([H])([H])[H])C([H])([H])[H])C([H])([H])C([H])(C([H])([H])[H])C([H])([H])[H])C([H])([H])[H])C([H])([H])[H])C([H])([H])[H])C([H])([H])[H])C([H])([H])[H])C([H])([H])[H])C([H])([H])[H]
     RDKit          3D

126126  0  0  0  0  0  0  0  0999 V2000
   -9.7728   -0.2568   -2.7394 C   0  0  0  0  0  0  0  0  0  0  0  0
   -9.0900    1.0832   -2.8919 C   0  0  0  0  0  0  0  0  0  0  0  0
  -10.0042    1.8805   -3.8499 C   0  0  0  0  0  0  0  0  0  0  0  0
   -8.8991    1.8259   -1.6235 C   0  0  0  0  0  0  0  0  0  0  0  0
   -8.0792    1.2636   -0.5666 C   0  0  2  0  0  0  0  0  0  0  0  0
   -6.6802    0.9824   -1.0234 N   0  0  0  0  0  0  0  0  0  0  0  0
   -6.1382   -0.2982   -1.0166 C   0  0  0  0  0  0  0  0  0  0  0  0
   -6.7685   -1.3081   -0.7045 O   0  0  0  0  0  0  0  0  0  0  0  0
   -4.7047   -0.5725   -1.3577 C   0  0  2  0  0  0  0  0  0  0  0  0
   -4.7166   -2.2058   -1.3231 C   0  0  0  0  0  0  0  0  0  0  0  0
   -3.8631   -0.2528   -0.2787 N   0  0  0  0  0  0  0  0  0  0  0  0
   -3.1769   -0.9391    0.6906 C   0  0  0  0  0  0  0  0  0  0  0  0
   -3.1313   -2.1559    0.9491 O   0  0  0  0  0  0  0  0  0  0  0  0
   -2.2600   -0.0451    1.5722 C   0  0  2  0  0  0  0  0  0  0  0  0
   -2.9953    1.1095    2.1263 C   0  0  0  0  0  0  0  0  0  0  0  0
   -1.3042    0.2862    0.5374 N   0  0  0  0  0  0  0  0  0  0  0  0
   -0.8002    1.4745    0.0841 C   0  0  0  0  0  0  0  0  0  0  0  0
   -0.9771    2.5991    0.4845 O   0  0  0  0  0  0  0  0  0  0  0  0
    0.1149    1.1921   -1.1284 C   0  0  2  0  0  0  0  0  0  0  0  0
   -0.6664    0.3149   -2.1166 C   0  0  0  0  0  0  0  0  0  0  0  0
    1.1163    0.3605   -0.4717 N   0  0  0  0  0  0  0  0  0  0  0  0
    2.0592   -0.3967   -1.0938 C   0  0  0  0  0  0  0  0  0  0  0  0
    2.2491   -0.5183   -2.3521 O   0  0  0  0  0  0  0  0  0  0  0  0
    3.0158   -1.1791   -0.2186 C   0  0  2  0  0  0  0  0  0  0  0  0
    2.8609   -0.6276    1.2088 C   0  0  0  0  0  0  0  0  0  0  0  0
    4.2649   -0.7324   -0.8353 N   0  0  0  0  0  0  0  0  0  0  0  0
    5.3682   -0.3201   -0.1871 C   0  0  0  0  0  0  0  0  0  0  0  0
    5.4546   -0.3645    1.0900 O   0  0  0  0  0  0  0  0  0  0  0  0
    6.5419    0.2212   -0.9834 C   0  0  2  0  0  0  0  0  0  0  0  0
    6.6216   -0.3608   -2.3288 C   0  0  0  0  0  0  0  0  0  0  0  0
    7.6051    0.0483   -0.0660 N   0  0  0  0  0  0  0  0  0  0  0  0
    8.0233    1.2403    0.6912 C   0  0  0  0  0  0  0  0  0  0  0  0
    7.5989    2.3407    0.6299 O   0  0  0  0  0  0  0  0  0  0  0  0
    9.1869    0.9053    1.6371 C   0  0  2  0  0  0  0  0  0  0  0  0
   10.0039    2.1513    1.7614 C   0  0  0  0  0  0  0  0  0  0  0  0
    9.8819   -0.1003    0.8120 N   0  0  0  0  0  0  0  0  0  0  0  0
   10.6838    0.0754   -0.2366 C   0  0  0  0  0  0  0  0  0  0  0  0
   10.9796    1.2636   -0.6112 O   0  0  0  0  0  0  0  0  0  0  0  0
   11.3003   -0.9852   -1.0648 C   0  0  2  0  0  0  0  0  0  0  0  0
   11.0504   -2.3913   -0.7370 C   0  0  0  0  0  0  0  0  0  0  0  0
   12.7344   -0.5887   -1.1207 N   0  0  0  0  0  0  0  0  0  0  0  0
   13.3452   -0.2199    0.0844 C   0  0  0  0  0  0  0  0  0  0  0  0
   12.7352   -0.2424    1.2006 O   0  0  0  0  0  0  0  0  0  0  0  0
   14.7396    0.2263    0.1264 C   0  0  1  0  0  0  0  0  0  0  0  0
   15.5766   -1.0044   -0.2568 C   0  0  0  0  0  0  0  0  0  0  0  0
   14.9532    1.3486   -0.7778 C   0  0  0  0  0  0  0  0  0  0  0  0
   14.2377    2.6307   -0.5282 C   0  0  0  0  0  0  0  0  0  0  0  0
   15.7065    1.2830   -1.7452 O   0  0  0  0  0  0  0  0  0  0  0  0
   -8.4941    0.2646    0.3872 C   0  0  0  0  0  0  0  0  0  0  0  0
   -7.4444   -0.3445    1.0096 O   0  0  0  0  0  0  0  0  0  0  0  0
   -9.6442   -0.3062    0.8925 N   0  0  0  0  0  0  0  0  0  0  0  0
   -9.7543   -1.7588    1.1592 C   0  0  0  0  0  0  0  0  0  0  0  0
  -11.2106   -2.0368    0.9996 C   0  0  0  0  0  0  0  0  0  0  0  0
  -11.8912   -0.6764    0.8489 C   0  0  0  0  0  0  0  0  0  0  0  0
  -10.8660    0.2126    1.5161 C   0  0  1  0  0  0  0  0  0  0  0  0
  -10.8548   -0.1231    2.9434 C   0  0  0  0  0  0  0  0  0  0  0  0
   -9.8960   -0.7413    3.5337 O   0  0  0  0  0  0  0  0  0  0  0  0
  -11.9133    0.1973    3.8118 N   0  0  0  0  0  0  0  0  0  0  0  0
  -12.0127   -0.3911    5.1525 C   0  0  0  0  0  0  0  0  0  0  0  0
  -12.8782    1.1921    3.4052 C   0  0  0  0  0  0  0  0  0  0  0  0
   -9.1100   -0.9081   -2.1466 H   0  0  0  0  0  0  0  0  0  0  0  0
   -9.9220   -0.7610   -3.7396 H   0  0  0  0  0  0  0  0  0  0  0  0
  -10.7286   -0.1851   -2.2275 H   0  0  0  0  0  0  0  0  0  0  0  0
   -8.1402    0.9831   -3.4781 H   0  0  0  0  0  0  0  0  0  0  0  0
   -9.6125    2.8781   -4.0647 H   0  0  0  0  0  0  0  0  0  0  0  0
  -11.0344    1.9498   -3.4492 H   0  0  0  0  0  0  0  0  0  0  0  0
  -10.0797    1.2890   -4.8062 H   0  0  0  0  0  0  0  0  0  0  0  0
   -9.9148    2.1656   -1.2986 H   0  0  0  0  0  0  0  0  0  0  0  0
   -8.4517    2.8492   -1.9756 H   0  0  0  0  0  0  0  0  0  0  0  0
   -7.8345    2.1819    0.1535 H   0  0  0  0  0  0  0  0  0  0  0  0
   -6.1421    1.7842   -1.3342 H   0  0  0  0  0  0  0  0  0  0  0  0
   -4.3933   -0.3793   -2.3300 H   0  0  0  0  0  0  0  0  0  0  0  0
   -5.3261   -2.5042   -2.1582 H   0  0  0  0  0  0  0  0  0  0  0  0
   -3.6730   -2.5261   -1.3761 H   0  0  0  0  0  0  0  0  0  0  0  0
   -5.1865   -2.3887   -0.3417 H   0  0  0  0  0  0  0  0  0  0  0  0
   -3.7167    0.8505   -0.2343 H   0  0  0  0  0  0  0  0  0  0  0  0
   -1.7440   -0.6234    2.3177 H   0  0  0  0  0  0  0  0  0  0  0  0
   -2.2552    1.9177    2.4973 H   0  0  0  0  0  0  0  0  0  0  0  0
   -3.7255    1.6302    1.5421 H   0  0  0  0  0  0  0  0  0  0  0  0
   -3.4926    0.7267    3.0927 H   0  0  0  0  0  0  0  0  0  0  0  0
   -0.9077   -0.6249    0.0994 H   0  0  0  0  0  0  0  0  0  0  0  0
    0.4860    1.9958   -1.6502 H   0  0  0  0  0  0  0  0  0  0  0  0
   -0.7943   -0.7148   -1.7950 H   0  0  0  0  0  0  0  0  0  0  0  0
   -0.1254    0.3059   -3.0786 H   0  0  0  0  0  0  0  0  0  0  0  0
   -1.6723    0.7652   -2.2617 H   0  0  0  0  0  0  0  0  0  0  0  0
    1.0700    0.4097    0.5866 H   0  0  0  0  0  0  0  0  0  0  0  0
    2.8879   -2.2310   -0.1367 H   0  0  0  0  0  0  0  0  0  0  0  0
    3.4876   -1.1961    1.9431 H   0  0  0  0  0  0  0  0  0  0  0  0
    1.8062   -0.8756    1.5555 H   0  0  0  0  0  0  0  0  0  0  0  0
    3.0465    0.4420    1.2688 H   0  0  0  0  0  0  0  0  0  0  0  0
    4.2715   -0.8038   -1.9041 H   0  0  0  0  0  0  0  0  0  0  0  0
    6.3197    1.3401   -1.1421 H   0  0  0  0  0  0  0  0  0  0  0  0
    6.2682   -1.4275   -2.4112 H   0  0  0  0  0  0  0  0  0  0  0  0
    7.6194   -0.2889   -2.8391 H   0  0  0  0  0  0  0  0  0  0  0  0
    5.9195    0.2031   -3.0284 H   0  0  0  0  0  0  0  0  0  0  0  0
    8.0678   -0.8540    0.0279 H   0  0  0  0  0  0  0  0  0  0  0  0
    8.8365    0.5011    2.5533 H   0  0  0  0  0  0  0  0  0  0  0  0
    9.6851    2.6184    2.7361 H   0  0  0  0  0  0  0  0  0  0  0  0
    9.7271    2.9181    0.9911 H   0  0  0  0  0  0  0  0  0  0  0  0
   11.0639    1.9551    1.8579 H   0  0  0  0  0  0  0  0  0  0  0  0
    9.6708   -1.0925    1.1577 H   0  0  0  0  0  0  0  0  0  0  0  0
   10.9123   -0.8349   -2.1441 H   0  0  0  0  0  0  0  0  0  0  0  0
   11.9382   -3.0083   -1.0697 H   0  0  0  0  0  0  0  0  0  0  0  0
   10.2051   -2.7776   -1.4004 H   0  0  0  0  0  0  0  0  0  0  0  0
   10.7728   -2.6680    0.2782 H   0  0  0  0  0  0  0  0  0  0  0  0
   13.1986   -0.5752   -2.0168 H   0  0  0  0  0  0  0  0  0  0  0  0
   15.0530    0.5103    1.1842 H   0  0  0  0  0  0  0  0  0  0  0  0
   16.6526   -0.7770   -0.2715 H   0  0  0  0  0  0  0  0  0  0  0  0
   15.3641   -1.7817    0.5401 H   0  0  0  0  0  0  0  0  0  0  0  0
   15.1613   -1.3868   -1.2063 H   0  0  0  0  0  0  0  0  0  0  0  0
   13.7513    2.9971   -1.4579 H   0  0  0  0  0  0  0  0  0  0  0  0
   13.3856    2.4895    0.1997 H   0  0  0  0  0  0  0  0  0  0  0  0
   14.9063    3.3862   -0.0999 H   0  0  0  0  0  0  0  0  0  0  0  0
   -9.2245   -2.2791    0.2726 H   0  0  0  0  0  0  0  0  0  0  0  0
   -9.3134   -2.0570    2.0665 H   0  0  0  0  0  0  0  0  0  0  0  0
  -11.6645   -2.5503    1.8527 H   0  0  0  0  0  0  0  0  0  0  0  0
  -11.4255   -2.5889    0.0531 H   0  0  0  0  0  0  0  0  0  0  0  0
  -11.8990   -0.4104   -0.2078 H   0  0  0  0  0  0  0  0  0  0  0  0
  -12.8717   -0.6776    1.3303 H   0  0  0  0  0  0  0  0  0  0  0  0
  -10.9804    1.2710    1.3863 H   0  0  0  0  0  0  0  0  0  0  0  0
  -11.8553    0.3423    5.9397 H   0  0  0  0  0  0  0  0  0  0  0  0
  -12.9922   -0.9064    5.3104 H   0  0  0  0  0  0  0  0  0  0  0  0
  -11.2359   -1.2022    5.1990 H   0  0  0  0  0  0  0  0  0  0  0  0
  -12.4505    2.1712    3.8416 H   0  0  0  0  0  0  0  0  0  0  0  0
  -13.8873    1.0464    3.8191 H   0  0  0  0  0  0  0  0  0  0  0  0
  -12.8741    1.3995    2.3172 H   0  0  0  0  0  0  0  0  0  0  0  0
  1  2  1  0
  2  3  1  0
  2  4  1  0
  4  5  1  0
  5  6  1  0
  6  7  1  0
  7  8  2  0
  7  9  1  0
  9 10  1  0
  9 11  1  0
 11 12  1  0
 12 13  2  0
 12 14  1  0
 14 15  1  0
 14 16  1  0
 16 17  1  0
 17 18  2  0
 17 19  1  0
 19 20  1  0
 19 21  1  0
 21 22  1  0
 22 23  2  0
 22 24  1  0
 24 25  1  0
 24 26  1  0
 26 27  1  0
 27 28  2  0
 27 29  1  0
 29 30  1  0
 29 31  1  0
 31 32  1  0
 32 33  2  0
 32 34  1  0
 34 35  1  0
 34 36  1  0
 36 37  1  0
 37 38  2  0
 37 39  1  0
 39 40  1  0
 39 41  1  0
 41 42  1  0
 42 43  2  0
 42 44  1  0
 44 45  1  0
 44 46  1  0
 46 47  1  0
 46 48  2  0
  5 49  1  0
 49 50  2  0
 49 51  1  0
 51 52  1  0
 52 53  1  0
 53 54  1  0
 54 55  1  0
 55 56  1  0
 56 57  2  0
 56 58  1  0
 58 59  1  0
 58 60  1  0
 55 51  1  0
  1 61  1  0
  1 62  1  0
  1 63  1  0
  2 64  1  0
  3 65  1  0
  3 66  1  0
  3 67  1  0
  4 68  1  0
  4 69  1  0
  5 70  1  1
  6 71  1  0
  9 72  1  6
 10 73  1  0
 10 74  1  0
 10 75  1  0
 11 76  1  0
 14 77  1  1
 15 78  1  0
 15 79  1  0
 15 80  1  0
 16 81  1  0
 19 82  1  6
 20 83  1  0
 20 84  1  0
 20 85  1  0
 21 86  1  0
 24 87  1  1
 25 88  1  0
 25 89  1  0
 25 90  1  0
 26 91  1  0
 29 92  1  6
 30 93  1  0
 30 94  1  0
 30 95  1  0
 31 96  1  0
 34 97  1  1
 35 98  1  0
 35 99  1  0
 35100  1  0
 36101  1  0
 39102  1  6
 40103  1  0
 40104  1  0
 40105  1  0
 41106  1  0
 44107  1  1
 45108  1  0
 45109  1  0
 45110  1  0
 47111  1  0
 47112  1  0
 47113  1  0
 52114  1  0
 52115  1  0
 53116  1  0
 53117  1  0
 54118  1  0
 54119  1  0
 55120  1  1
 59121  1  0
 59122  1  0
 59123  1  0
 60124  1  0
 60125  1  0
 60126  1  0
M  END
$$$$
[H]c1nc(C(F)(F)F)c([H])c(C(=O)N([H])c2c([H])c([H])c(C([H])([H])[H])c(C(=O)N([H])c3c([H])c([H])c([H])c(-c4c([H])c([H])nc(N5C([H])([H])C([H])([H])OC([H])([H])C5([H])[H])c4[H])c3[H])c2[H])c1[H]
     RDKit          3D

 67 71  0  0  0  0  0  0  0  0999 V2000
    1.0033   -2.6907    1.1098 C   0  0  0  0  0  0  0  0  0  0  0  0
    2.3189   -2.1188    0.8508 C   0  0  0  0  0  0  0  0  0  0  0  0
    3.4248   -2.3788    1.6591 C   0  0  0  0  0  0  0  0  0  0  0  0
    4.6845   -1.8424    1.3534 C   0  0  0  0  0  0  0  0  0  0  0  0
    4.8850   -1.0487    0.2573 C   0  0  0  0  0  0  0  0  0  0  0  0
    6.1254   -0.4736   -0.1114 N   0  0  0  0  0  0  0  0  0  0  0  0
    7.3428   -1.0946    0.2095 C   0  0  0  0  0  0  0  0  0  0  0  0
    7.4935   -2.1819    0.7994 O   0  0  0  0  0  0  0  0  0  0  0  0
    8.5910   -0.4130   -0.1765 C   0  0  0  0  0  0  0  0  0  0  0  0
    9.5639   -1.0890   -0.8515 C   0  0  0  0  0  0  0  0  0  0  0  0
   10.7167   -0.3652   -1.1708 C   0  0  0  0  0  0  0  0  0  0  0  0
   10.8645    0.9207   -0.8362 N   0  0  0  0  0  0  0  0  0  0  0  0
    9.9249    1.6021   -0.1758 C   0  0  0  0  0  0  0  0  0  0  0  0
    8.7779    0.9286    0.1559 C   0  0  0  0  0  0  0  0  0  0  0  0
   10.0513    3.0168    0.2246 C   0  0  0  0  0  0  0  0  0  0  0  0
    9.1023    3.7692   -0.4504 F   0  0  0  0  0  0  0  0  0  0  0  0
    9.7689    3.1900    1.5722 F   0  0  0  0  0  0  0  0  0  0  0  0
   11.3083    3.5297   -0.0471 F   0  0  0  0  0  0  0  0  0  0  0  0
    3.7752   -0.7923   -0.5499 C   0  0  0  0  0  0  0  0  0  0  0  0
    2.5510   -1.3232   -0.2345 C   0  0  0  0  0  0  0  0  0  0  0  0
    1.4028   -0.9228   -1.0850 C   0  0  0  0  0  0  0  0  0  0  0  0
    1.5082   -1.1975   -2.3016 O   0  0  0  0  0  0  0  0  0  0  0  0
    0.3406   -0.2894   -0.4322 N   0  0  0  0  0  0  0  0  0  0  0  0
   -0.8883    0.1646   -0.9734 C   0  0  0  0  0  0  0  0  0  0  0  0
   -1.1111    0.2263   -2.3161 C   0  0  0  0  0  0  0  0  0  0  0  0
   -2.3676    0.6265   -2.7865 C   0  0  0  0  0  0  0  0  0  0  0  0
   -3.4077    0.9680   -1.9091 C   0  0  0  0  0  0  0  0  0  0  0  0
   -3.1765    0.9094   -0.5500 C   0  0  0  0  0  0  0  0  0  0  0  0
   -1.9339    0.5130   -0.1311 C   0  0  0  0  0  0  0  0  0  0  0  0
   -4.2580    1.1797    0.3897 C   0  0  0  0  0  0  0  0  0  0  0  0
   -4.0813    1.7901    1.6226 C   0  0  0  0  0  0  0  0  0  0  0  0
   -5.2064    1.8481    2.4258 C   0  0  0  0  0  0  0  0  0  0  0  0
   -6.4032    1.3692    2.0988 N   0  0  0  0  0  0  0  0  0  0  0  0
   -6.5830    0.7760    0.9078 C   0  0  0  0  0  0  0  0  0  0  0  0
   -5.5046    0.6841    0.0505 C   0  0  0  0  0  0  0  0  0  0  0  0
   -7.7903    0.1686    0.5026 N   0  0  0  0  0  0  0  0  0  0  0  0
   -8.6170   -0.6568    1.4035 C   0  0  0  0  0  0  0  0  0  0  0  0
  -10.0411   -0.5662    0.8634 C   0  0  0  0  0  0  0  0  0  0  0  0
  -10.2711    0.7385    0.4545 O   0  0  0  0  0  0  0  0  0  0  0  0
   -9.5993    1.0980   -0.6989 C   0  0  0  0  0  0  0  0  0  0  0  0
   -8.2694    0.3456   -0.8447 C   0  0  0  0  0  0  0  0  0  0  0  0
    1.0765   -3.6459    1.7234 H   0  0  0  0  0  0  0  0  0  0  0  0
    0.3040   -2.0534    1.6744 H   0  0  0  0  0  0  0  0  0  0  0  0
    0.4746   -3.0097    0.1724 H   0  0  0  0  0  0  0  0  0  0  0  0
    3.2723   -3.0072    2.5206 H   0  0  0  0  0  0  0  0  0  0  0  0
    5.4953   -2.0729    2.0191 H   0  0  0  0  0  0  0  0  0  0  0  0
    6.1540    0.4486   -0.6381 H   0  0  0  0  0  0  0  0  0  0  0  0
    9.4705   -2.1396   -1.1535 H   0  0  0  0  0  0  0  0  0  0  0  0
   11.4818   -0.8863   -1.7002 H   0  0  0  0  0  0  0  0  0  0  0  0
    7.9653    1.4084    0.6882 H   0  0  0  0  0  0  0  0  0  0  0  0
    3.9137   -0.1643   -1.4332 H   0  0  0  0  0  0  0  0  0  0  0  0
    0.4830   -0.0880    0.6256 H   0  0  0  0  0  0  0  0  0  0  0  0
   -0.3663   -0.0194   -3.0477 H   0  0  0  0  0  0  0  0  0  0  0  0
   -2.5224    0.6649   -3.8433 H   0  0  0  0  0  0  0  0  0  0  0  0
   -4.3563    1.2620   -2.3319 H   0  0  0  0  0  0  0  0  0  0  0  0
   -1.7532    0.4690    0.9313 H   0  0  0  0  0  0  0  0  0  0  0  0
   -3.1275    2.1659    1.8603 H   0  0  0  0  0  0  0  0  0  0  0  0
   -5.0860    2.3285    3.3946 H   0  0  0  0  0  0  0  0  0  0  0  0
   -5.6659    0.2168   -0.9064 H   0  0  0  0  0  0  0  0  0  0  0  0
   -8.2782   -1.7234    1.2193 H   0  0  0  0  0  0  0  0  0  0  0  0
   -8.5129   -0.3815    2.4525 H   0  0  0  0  0  0  0  0  0  0  0  0
  -10.1181   -1.2971   -0.0005 H   0  0  0  0  0  0  0  0  0  0  0  0
  -10.7453   -0.8378    1.6425 H   0  0  0  0  0  0  0  0  0  0  0  0
   -9.3613    2.1796   -0.6417 H   0  0  0  0  0  0  0  0  0  0  0  0
  -10.1910    0.9231   -1.6274 H   0  0  0  0  0  0  0  0  0  0  0  0
   -7.5759    0.9635   -1.4348 H   0  0  0  0  0  0  0  0  0  0  0  0
   -8.4466   -0.6218   -1.3592 H   0  0  0  0  0  0  0  0  0  0  0  0
  1  2  1  0
  2  3  2  0
  3  4  1  0
  4  5  2  0
  5  6  1  0
  6  7  1  0
  7  8  2  0
  7  9  1  0
  9 10  2  0
 10 11  1  0
 11 12  2  0
 12 13  1  0
 13 14  2  0
 13 15  1  0
 15 16  1  0
 15 17  1  0
 15 18  1  0
  5 19  1  0
 19 20  2  0
 20 21  1  0
 21 22  2  0
 21 23  1  0
 23 24  1  0
 24 25  2  0
 25 26  1  0
 26 27  2  0
 27 28  1  0
 28 29  2  0
 28 30  1  0
 30 31  2  0
 31 32  1  0
 32 33  2  0
 33 34  1  0
 34 35  2  0
 34 36  1  0
 36 37  1  0
 37 38  1  0
 38 39  1  0
 39 40  1  0
 40 41  1  0
 20  2  1  0
 29 24  1  0
 35 30  1  0
 41 36  1  0
 14  9  1  0
  1 42  1  0
  1 43  1  0
  1 44  1  0
  3 45  1  0
  4 46  1  0
  6 47  1  0
 10 48  1  0
 11 49  1  0
 14 50  1  0
 19 51  1  0
 23 52  1  0
 25 53  1  0
 26 54  1  0
 27 55  1  0
 29 56  1  0
 31 57  1  0
 32 58  1  0
 35 59  1  0
 37 60  1  0
 37 61  1  0
 38 62  1  0
 38 63  1  0
 40 64  1  0
 40 65  1  0
 41 66  1  0
 41 67  1  0
M  END
$$$$
[H]c1nc(N([H])c2c([H])c([H])c(N3C([H])([H])C([H])([H])C([H])(N4C([H])([H])C([H])([H])OC([H])([H])C4([H])[H])C([H])([H])C3([H])[H])c([H])c2OC([H])([H])[H])nc(N([H])c2c([H])c([H])c([H])c([H])c2S(=O)(=O)C([H])(C([H])([H])[H])C([H])([H])[H])c1Cl
     RDKit          3D

 78 82  0  0  0  0  0  0  0  0999 V2000
   -2.7990   -4.7366   -1.3510 C   0  0  0  0  0  0  0  0  0  0  0  0
   -1.4818   -4.2815   -1.0963 O   0  0  0  0  0  0  0  0  0  0  0  0
   -1.2626   -2.9268   -0.9115 C   0  0  0  0  0  0  0  0  0  0  0  0
   -2.2756   -1.9993   -0.9649 C   0  0  0  0  0  0  0  0  0  0  0  0
   -2.0617   -0.6368   -0.7804 C   0  0  0  0  0  0  0  0  0  0  0  0
   -0.7814   -0.2202   -0.5369 C   0  0  0  0  0  0  0  0  0  0  0  0
    0.2811   -1.1355   -0.4738 C   0  0  0  0  0  0  0  0  0  0  0  0
    0.0363   -2.4736   -0.6602 C   0  0  0  0  0  0  0  0  0  0  0  0
    1.0486   -3.4282   -0.5632 N   0  0  0  0  0  0  0  0  0  0  0  0
    2.4501   -3.2971   -0.5441 C   0  0  0  0  0  0  0  0  0  0  0  0
    3.1806   -4.4584   -0.3853 N   0  0  0  0  0  0  0  0  0  0  0  0
    4.4963   -4.5095   -0.3751 C   0  0  0  0  0  0  0  0  0  0  0  0
    5.2173   -3.3469   -0.5311 C   0  0  0  0  0  0  0  0  0  0  0  0
    6.9576   -3.3296   -0.5341 Cl  0  0  0  0  0  0  0  0  0  0  0  0
    4.5356   -2.1282   -0.6989 C   0  0  0  0  0  0  0  0  0  0  0  0
    5.3043   -0.9689   -0.8278 N   0  0  0  0  0  0  0  0  0  0  0  0
    4.9428    0.3708   -1.0715 C   0  0  0  0  0  0  0  0  0  0  0  0
    3.7071    0.7399   -1.5352 C   0  0  0  0  0  0  0  0  0  0  0  0
    3.4274    2.0598   -1.8188 C   0  0  0  0  0  0  0  0  0  0  0  0
    4.3635    3.0489   -1.6512 C   0  0  0  0  0  0  0  0  0  0  0  0
    5.6208    2.6944   -1.1820 C   0  0  0  0  0  0  0  0  0  0  0  0
    5.9101    1.3798   -0.8961 C   0  0  0  0  0  0  0  0  0  0  0  0
    7.5019    1.0371   -0.2945 S   0  0  0  0  0  0  0  0  0  0  0  0
    8.2978    0.1131   -1.1647 O   0  0  0  0  0  0  0  0  0  0  0  0
    8.2966    2.3490   -0.2987 O   0  0  0  0  0  0  0  0  0  0  0  0
    7.4681    0.4327    1.3549 C   0  0  0  0  0  0  0  0  0  0  0  0
    8.8634   -0.1388    1.7159 C   0  0  0  0  0  0  0  0  0  0  0  0
    7.0596    1.4683    2.3670 C   0  0  0  0  0  0  0  0  0  0  0  0
    3.1822   -2.2006   -0.6916 N   0  0  0  0  0  0  0  0  0  0  0  0
   -3.1115    0.3177   -0.8518 N   0  0  0  0  0  0  0  0  0  0  0  0
   -4.3569    0.0033   -1.5564 C   0  0  0  0  0  0  0  0  0  0  0  0
   -5.4456    0.9770   -1.1084 C   0  0  0  0  0  0  0  0  0  0  0  0
   -5.4163    1.0960    0.3875 C   0  0  0  0  0  0  0  0  0  0  0  0
   -4.1724    1.8834    0.7406 C   0  0  0  0  0  0  0  0  0  0  0  0
   -3.0537    1.6221   -0.2518 C   0  0  0  0  0  0  0  0  0  0  0  0
   -6.5566    1.8175    0.8825 N   0  0  0  0  0  0  0  0  0  0  0  0
   -6.4174    2.0469    2.3263 C   0  0  0  0  0  0  0  0  0  0  0  0
   -7.6213    2.8766    2.7374 C   0  0  0  0  0  0  0  0  0  0  0  0
   -8.8104    2.1862    2.5319 O   0  0  0  0  0  0  0  0  0  0  0  0
   -8.9221    1.9916    1.1601 C   0  0  0  0  0  0  0  0  0  0  0  0
   -7.7951    1.0731    0.7374 C   0  0  0  0  0  0  0  0  0  0  0  0
   -2.8361   -5.8616   -1.3099 H   0  0  0  0  0  0  0  0  0  0  0  0
   -3.1900   -4.3824   -2.3292 H   0  0  0  0  0  0  0  0  0  0  0  0
   -3.5377   -4.4041   -0.5867 H   0  0  0  0  0  0  0  0  0  0  0  0
   -3.2912   -2.3704   -1.1607 H   0  0  0  0  0  0  0  0  0  0  0  0
   -0.5304    0.8148   -0.3940 H   0  0  0  0  0  0  0  0  0  0  0  0
    1.2667   -0.7437   -0.2556 H   0  0  0  0  0  0  0  0  0  0  0  0
    0.7052   -4.4618   -0.4798 H   0  0  0  0  0  0  0  0  0  0  0  0
    5.0715   -5.4367   -0.2489 H   0  0  0  0  0  0  0  0  0  0  0  0
    6.3584   -1.1165   -0.7423 H   0  0  0  0  0  0  0  0  0  0  0  0
    2.9114   -0.0041   -1.7193 H   0  0  0  0  0  0  0  0  0  0  0  0
    2.4405    2.3544   -2.1905 H   0  0  0  0  0  0  0  0  0  0  0  0
    4.1803    4.0991   -1.8612 H   0  0  0  0  0  0  0  0  0  0  0  0
    6.3509    3.4879   -1.0554 H   0  0  0  0  0  0  0  0  0  0  0  0
    6.8109   -0.4447    1.4204 H   0  0  0  0  0  0  0  0  0  0  0  0
    8.9078   -1.1290    1.2165 H   0  0  0  0  0  0  0  0  0  0  0  0
    8.8703   -0.2948    2.7926 H   0  0  0  0  0  0  0  0  0  0  0  0
    9.6590    0.5303    1.3215 H   0  0  0  0  0  0  0  0  0  0  0  0
    6.3760    2.2282    1.9706 H   0  0  0  0  0  0  0  0  0  0  0  0
    8.0149    1.9242    2.7543 H   0  0  0  0  0  0  0  0  0  0  0  0
    6.5683    1.0168    3.2596 H   0  0  0  0  0  0  0  0  0  0  0  0
   -4.2295    0.1961   -2.6622 H   0  0  0  0  0  0  0  0  0  0  0  0
   -4.6789   -1.0320   -1.4555 H   0  0  0  0  0  0  0  0  0  0  0  0
   -6.3764    0.6017   -1.5329 H   0  0  0  0  0  0  0  0  0  0  0  0
   -5.2359    1.9773   -1.5346 H   0  0  0  0  0  0  0  0  0  0  0  0
   -5.4040    0.1109    0.8986 H   0  0  0  0  0  0  0  0  0  0  0  0
   -4.4001    2.9747    0.6779 H   0  0  0  0  0  0  0  0  0  0  0  0
   -3.8424    1.6927    1.7865 H   0  0  0  0  0  0  0  0  0  0  0  0
   -3.1634    2.3692   -1.0913 H   0  0  0  0  0  0  0  0  0  0  0  0
   -2.0806    1.8030    0.1914 H   0  0  0  0  0  0  0  0  0  0  0  0
   -6.4486    1.0642    2.8141 H   0  0  0  0  0  0  0  0  0  0  0  0
   -5.5199    2.6190    2.5767 H   0  0  0  0  0  0  0  0  0  0  0  0
   -7.6190    3.7806    2.0982 H   0  0  0  0  0  0  0  0  0  0  0  0
   -7.5723    3.1645    3.7921 H   0  0  0  0  0  0  0  0  0  0  0  0
   -8.6856    2.9938    0.6972 H   0  0  0  0  0  0  0  0  0  0  0  0
   -9.9176    1.6194    0.8580 H   0  0  0  0  0  0  0  0  0  0  0  0
   -7.9512    0.6460   -0.2539 H   0  0  0  0  0  0  0  0  0  0  0  0
   -7.7886    0.2449    1.4991 H   0  0  0  0  0  0  0  0  0  0  0  0
  1  2  1  0
  2  3  1  0
  3  4  2  0
  4  5  1  0
  5  6  2  0
  6  7  1  0
  7  8  2  0
  8  9  1  0
  9 10  1  0
 10 11  2  0
 11 12  1  0
 12 13  2  0
 13 14  1  0
 13 15  1  0
 15 16  1  0
 16 17  1  0
 17 18  2  0
 18 19  1  0
 19 20  2  0
 20 21  1  0
 21 22  2  0
 22 23  1  0
 23 24  2  0
 23 25  2  0
 23 26  1  0
 26 27  1  0
 26 28  1  0
 15 29  2  0
  5 30  1  0
 30 31  1  0
 31 32  1  0
 32 33  1  0
 33 34  1  0
 34 35  1  0
 33 36  1  0
 36 37  1  0
 37 38  1  0
 38 39  1  0
 39 40  1  0
 40 41  1  0
  8  3  1  0
 29 10  1  0
 35 30  1  0
 41 36  1  0
 22 17  1  0
  1 42  1  0
  1 43  1  0
  1 44  1  0
  4 45  1  0
  6 46  1  0
  7 47  1  0
  9 48  1  0
 12 49  1  0
 16 50  1  0
 18 51  1  0
 19 52  1  0
 20 53  1  0
 21 54  1  0
 26 55  1  0
 27 56  1  0
 27 57  1  0
 27 58  1  0
 28 59  1  0
 28 60  1  0
 28 61  1  0
 31 62  1  0
 31 63  1  0
 32 64  1  0
 32 65  1  0
 33 66  1  0
 34 67  1  0
 34 68  1  0
 35 69  1  0
 35 70  1  0
 37 71  1  0
 37 72  1  0
 38 73  1  0
 38 74  1  0
 40 75  1  0
 40 76  1  0
 41 77  1  0
 41 78  1  0
M  END
$$$$
[H]c1nc(N([H])c2c([H])c([H])c(N3C([H])([H])C([H])([H])C([H])(C([H])([H])[H])C([H])([H])C3([H])[H])c([H])c2OC([H])([H])[H])nc(N([H])c2c([H])c([H])c([H])c([H])c2S(=O)(=O)C([H])(C([H])([H])[H])C([H])([H])[H])c1Cl
     RDKit          3D

 68 71  0  0  0  0  0  0  0  0999 V2000
    2.3512   -2.9450   -1.7144 C   0  0  0  0  0  0  0  0  0  0  0  0
    1.5598   -2.0466   -0.9654 O   0  0  0  0  0  0  0  0  0  0  0  0
    2.1329   -0.9265   -0.3358 C   0  0  0  0  0  0  0  0  0  0  0  0
    3.4718   -0.6873   -0.4386 C   0  0  0  0  0  0  0  0  0  0  0  0
    4.0995    0.3887    0.1512 C   0  0  0  0  0  0  0  0  0  0  0  0
    3.3361    1.2654    0.8804 C   0  0  0  0  0  0  0  0  0  0  0  0
    1.9437    1.0281    0.9949 C   0  0  0  0  0  0  0  0  0  0  0  0
    1.3324   -0.0360    0.4097 C   0  0  0  0  0  0  0  0  0  0  0  0
   -0.0133   -0.3289    0.4758 N   0  0  0  0  0  0  0  0  0  0  0  0
   -1.0472    0.3624    1.1476 C   0  0  0  0  0  0  0  0  0  0  0  0
   -0.8750    1.4696    1.8664 N   0  0  0  0  0  0  0  0  0  0  0  0
   -1.8953    2.0822    2.4818 C   0  0  0  0  0  0  0  0  0  0  0  0
   -3.1776    1.6068    2.4091 C   0  0  0  0  0  0  0  0  0  0  0  0
   -4.4990    2.3815    3.2006 Cl  0  0  0  0  0  0  0  0  0  0  0  0
   -3.3986    0.4453    1.6627 C   0  0  0  0  0  0  0  0  0  0  0  0
   -4.6895   -0.0870    1.5095 N   0  0  0  0  0  0  0  0  0  0  0  0
   -5.0271   -1.2633    0.8224 C   0  0  0  0  0  0  0  0  0  0  0  0
   -4.1358   -2.2830    0.5172 C   0  0  0  0  0  0  0  0  0  0  0  0
   -4.5242   -3.4793   -0.0643 C   0  0  0  0  0  0  0  0  0  0  0  0
   -5.8367   -3.6670   -0.3497 C   0  0  0  0  0  0  0  0  0  0  0  0
   -6.7192   -2.6751   -0.0563 C   0  0  0  0  0  0  0  0  0  0  0  0
   -6.3981   -1.4548    0.5231 C   0  0  0  0  0  0  0  0  0  0  0  0
   -7.6253   -0.2789    0.7298 S   0  0  0  0  0  0  0  0  0  0  0  0
   -8.9741   -0.9593    0.4514 O   0  0  0  0  0  0  0  0  0  0  0  0
   -7.8212    0.1553    2.1626 O   0  0  0  0  0  0  0  0  0  0  0  0
   -7.6136    1.0738   -0.3791 C   0  0  0  0  0  0  0  0  0  0  0  0
   -8.0361    0.5749   -1.7553 C   0  0  0  0  0  0  0  0  0  0  0  0
   -6.4255    1.9373   -0.4369 C   0  0  0  0  0  0  0  0  0  0  0  0
   -2.3230   -0.0875    1.0908 N   0  0  0  0  0  0  0  0  0  0  0  0
    5.5216    0.5782   -0.0012 N   0  0  0  0  0  0  0  0  0  0  0  0
    6.2392   -0.3974   -0.7911 C   0  0  0  0  0  0  0  0  0  0  0  0
    7.7144   -0.2089   -0.8029 C   0  0  0  0  0  0  0  0  0  0  0  0
    8.0814    1.2543   -0.7040 C   0  0  0  0  0  0  0  0  0  0  0  0
    9.5670    1.4051   -0.7535 C   0  0  0  0  0  0  0  0  0  0  0  0
    7.5916    1.7526    0.6340 C   0  0  0  0  0  0  0  0  0  0  0  0
    6.1032    1.7159    0.6420 C   0  0  0  0  0  0  0  0  0  0  0  0
    3.0642   -3.4820   -1.0647 H   0  0  0  0  0  0  0  0  0  0  0  0
    1.6509   -3.6299   -2.2501 H   0  0  0  0  0  0  0  0  0  0  0  0
    2.9754   -2.3988   -2.4771 H   0  0  0  0  0  0  0  0  0  0  0  0
    4.0722   -1.3949   -1.0241 H   0  0  0  0  0  0  0  0  0  0  0  0
    3.7506    2.1161    1.3625 H   0  0  0  0  0  0  0  0  0  0  0  0
    1.3699    1.7321    1.5717 H   0  0  0  0  0  0  0  0  0  0  0  0
   -0.3825   -1.2181   -0.0547 H   0  0  0  0  0  0  0  0  0  0  0  0
   -1.6769    2.9810    3.0498 H   0  0  0  0  0  0  0  0  0  0  0  0
   -5.4335    0.4918    2.0115 H   0  0  0  0  0  0  0  0  0  0  0  0
   -3.0905   -2.2171    0.7288 H   0  0  0  0  0  0  0  0  0  0  0  0
   -3.7677   -4.2436   -0.2799 H   0  0  0  0  0  0  0  0  0  0  0  0
   -6.1714   -4.5948   -0.8045 H   0  0  0  0  0  0  0  0  0  0  0  0
   -7.7739   -2.8778   -0.3084 H   0  0  0  0  0  0  0  0  0  0  0  0
   -8.4837    1.7340   -0.0671 H   0  0  0  0  0  0  0  0  0  0  0  0
   -9.0807    0.1776   -1.7265 H   0  0  0  0  0  0  0  0  0  0  0  0
   -7.3966   -0.2216   -2.1362 H   0  0  0  0  0  0  0  0  0  0  0  0
   -8.0537    1.4606   -2.4227 H   0  0  0  0  0  0  0  0  0  0  0  0
   -6.7001    2.8268   -1.0833 H   0  0  0  0  0  0  0  0  0  0  0  0
   -5.5419    1.4917   -0.9360 H   0  0  0  0  0  0  0  0  0  0  0  0
   -6.1968    2.3641    0.5411 H   0  0  0  0  0  0  0  0  0  0  0  0
    6.0377   -1.4385   -0.4222 H   0  0  0  0  0  0  0  0  0  0  0  0
    5.8857   -0.3829   -1.8640 H   0  0  0  0  0  0  0  0  0  0  0  0
    8.1443   -0.6275   -1.7186 H   0  0  0  0  0  0  0  0  0  0  0  0
    8.1663   -0.7601    0.0497 H   0  0  0  0  0  0  0  0  0  0  0  0
    7.5680    1.7920   -1.5178 H   0  0  0  0  0  0  0  0  0  0  0  0
   10.0074    0.7024   -1.4932 H   0  0  0  0  0  0  0  0  0  0  0  0
    9.7896    2.4668   -1.0447 H   0  0  0  0  0  0  0  0  0  0  0  0
   10.0332    1.2112    0.2250 H   0  0  0  0  0  0  0  0  0  0  0  0
    7.9159    2.8002    0.8007 H   0  0  0  0  0  0  0  0  0  0  0  0
    7.9664    1.1183    1.4486 H   0  0  0  0  0  0  0  0  0  0  0  0
    5.6431    2.6356    0.1879 H   0  0  0  0  0  0  0  0  0  0  0  0
    5.7185    1.7197    1.7028 H   0  0  0  0  0  0  0  0  0  0  0  0
  1  2  1  0
  2  3  1  0
  3  4  2  0
  4  5  1  0
  5  6  2  0
  6  7  1  0
  7  8  2  0
  8  9  1  0
  9 10  1  0
 10 11  2  0
 11 12  1  0
 12 13  2  0
 13 14  1  0
 13 15  1  0
 15 16  1  0
 16 17  1  0
 17 18  2  0
 18 19  1  0
 19 20  2  0
 20 21  1  0
 21 22  2  0
 22 23  1  0
 23 24  2  0
 23 25  2  0
 23 26  1  0
 26 27  1  0
 26 28  1  0
 15 29  2  0
  5 30  1  0
 30 31  1  0
 31 32  1  0
 32 33  1  0
 33 34  1  0
 33 35  1  0
 35 36  1  0
  8  3  1  0
 29 10  1  0
 36 30  1  0
 22 17  1  0
  1 37  1  0
  1 38  1  0
  1 39  1  0
  4 40  1  0
  6 41  1  0
  7 42  1  0
  9 43  1  0
 12 44  1  0
 16 45  1  0
 18 46  1  0
 19 47  1  0
 20 48  1  0
 21 49  1  0
 26 50  1  0
 27 51  1  0
 27 52  1  0
 27 53  1  0
 28 54  1  0
 28 55  1  0
 28 56  1  0
 31 57  1  0
 31 58  1  0
 32 59  1  0
 32 60  1  0
 33 61  1  0
 34 62  1  0
 34 63  1  0
 34 64  1  0
 35 65  1  0
 35 66  1  0
 36 67  1  0
 36 68  1  0
M  END
$$$$
[H]c1nc2c([H])c(OC([H])([H])C([H])([H])C([H])([H])N3C([H])([H])C([H])([H])C3([H])[H])c(OC([H])([H])[H])c([H])c2c(Oc2c([H])c([H])c(N([H])C(=O)c3nn(C([H])([H])[H])c(=O)n(C([H])([H])[H])c3=O)c([H])c2F)c1[H]
     RDKit          3D

 70 74  0  0  0  0  0  0  0  0999 V2000
   -3.2546    1.2272   -3.6590 C   0  0  0  0  0  0  0  0  0  0  0  0
   -4.0681    0.9266   -2.5562 O   0  0  0  0  0  0  0  0  0  0  0  0
   -3.6058    0.5222   -1.3335 C   0  0  0  0  0  0  0  0  0  0  0  0
   -2.2581    0.3774   -1.0936 C   0  0  0  0  0  0  0  0  0  0  0  0
   -1.7911   -0.0300    0.1380 C   0  0  0  0  0  0  0  0  0  0  0  0
   -0.4175   -0.1664    0.3452 C   0  0  0  0  0  0  0  0  0  0  0  0
    0.4650    0.1062   -0.6712 O   0  0  0  0  0  0  0  0  0  0  0  0
    1.8228    0.0645   -0.5481 C   0  0  0  0  0  0  0  0  0  0  0  0
    2.6076   -0.8478   -1.2582 C   0  0  0  0  0  0  0  0  0  0  0  0
    3.9694   -0.9015   -1.1484 C   0  0  0  0  0  0  0  0  0  0  0  0
    4.6569   -0.0308   -0.3051 C   0  0  0  0  0  0  0  0  0  0  0  0
    6.0512   -0.1057   -0.2032 N   0  0  0  0  0  0  0  0  0  0  0  0
    6.9261    0.7052    0.5152 C   0  0  0  0  0  0  0  0  0  0  0  0
    6.6160    1.6882    1.2279 O   0  0  0  0  0  0  0  0  0  0  0  0
    8.3796    0.3750    0.4317 C   0  0  0  0  0  0  0  0  0  0  0  0
    8.8344   -0.6485   -0.2913 N   0  0  0  0  0  0  0  0  0  0  0  0
   10.1122   -0.9526   -0.3757 N   0  0  0  0  0  0  0  0  0  0  0  0
   10.6046   -2.0687   -1.1654 C   0  0  0  0  0  0  0  0  0  0  0  0
   10.9923   -0.1818    0.3082 C   0  0  0  0  0  0  0  0  0  0  0  0
   12.2054   -0.4663    0.2312 O   0  0  0  0  0  0  0  0  0  0  0  0
   10.6046    0.8644    1.0560 N   0  0  0  0  0  0  0  0  0  0  0  0
   11.5879    1.6491    1.7615 C   0  0  0  0  0  0  0  0  0  0  0  0
    9.2917    1.1404    1.1152 C   0  0  0  0  0  0  0  0  0  0  0  0
    8.9189    2.1179    1.8131 O   0  0  0  0  0  0  0  0  0  0  0  0
    3.8995    0.8697    0.3972 C   0  0  0  0  0  0  0  0  0  0  0  0
    2.5032    0.9203    0.2800 C   0  0  0  0  0  0  0  0  0  0  0  0
    1.8142    1.8714    0.9987 F   0  0  0  0  0  0  0  0  0  0  0  0
   -0.0113   -0.5793    1.6022 C   0  0  0  0  0  0  0  0  0  0  0  0
   -0.9337   -0.8406    2.5992 C   0  0  0  0  0  0  0  0  0  0  0  0
   -2.2334   -0.6886    2.3303 N   0  0  0  0  0  0  0  0  0  0  0  0
   -2.6912   -0.2902    1.1263 C   0  0  0  0  0  0  0  0  0  0  0  0
   -4.0647   -0.1421    0.8813 C   0  0  0  0  0  0  0  0  0  0  0  0
   -4.5640    0.2611   -0.3329 C   0  0  0  0  0  0  0  0  0  0  0  0
   -5.8678    0.4103   -0.5994 O   0  0  0  0  0  0  0  0  0  0  0  0
   -7.0475    0.2480    0.0528 C   0  0  0  0  0  0  0  0  0  0  0  0
   -7.4245   -1.1144    0.5234 C   0  0  0  0  0  0  0  0  0  0  0  0
   -8.7476   -1.1488    1.2320 C   0  0  0  0  0  0  0  0  0  0  0  0
   -9.8859   -0.7661    0.6128 N   0  0  0  0  0  0  0  0  0  0  0  0
  -10.6053   -1.2981   -0.4302 C   0  0  0  0  0  0  0  0  0  0  0  0
  -11.0639    0.0900   -0.8194 C   0  0  0  0  0  0  0  0  0  0  0  0
  -10.4983    0.4857    0.5593 C   0  0  0  0  0  0  0  0  0  0  0  0
   -2.9852    0.3105   -4.2499 H   0  0  0  0  0  0  0  0  0  0  0  0
   -2.3683    1.8229   -3.4211 H   0  0  0  0  0  0  0  0  0  0  0  0
   -3.8691    1.8427   -4.3707 H   0  0  0  0  0  0  0  0  0  0  0  0
   -1.5072    0.5746   -1.8514 H   0  0  0  0  0  0  0  0  0  0  0  0
    2.0874   -1.5269   -1.9140 H   0  0  0  0  0  0  0  0  0  0  0  0
    4.5002   -1.6304   -1.7264 H   0  0  0  0  0  0  0  0  0  0  0  0
    6.5057   -0.9029   -0.7586 H   0  0  0  0  0  0  0  0  0  0  0  0
    9.7190   -2.5165   -1.6685 H   0  0  0  0  0  0  0  0  0  0  0  0
   11.0935   -2.8412   -0.5424 H   0  0  0  0  0  0  0  0  0  0  0  0
   11.2798   -1.6908   -1.9570 H   0  0  0  0  0  0  0  0  0  0  0  0
   11.9044    1.1873    2.7218 H   0  0  0  0  0  0  0  0  0  0  0  0
   12.5096    1.7687    1.1362 H   0  0  0  0  0  0  0  0  0  0  0  0
   11.1928    2.6815    1.8894 H   0  0  0  0  0  0  0  0  0  0  0  0
    4.3313    1.5959    1.0879 H   0  0  0  0  0  0  0  0  0  0  0  0
    1.0276   -0.7273    1.8555 H   0  0  0  0  0  0  0  0  0  0  0  0
   -0.5804   -1.1603    3.5655 H   0  0  0  0  0  0  0  0  0  0  0  0
   -4.7219   -0.3537    1.7133 H   0  0  0  0  0  0  0  0  0  0  0  0
   -7.0086    0.8940    0.9884 H   0  0  0  0  0  0  0  0  0  0  0  0
   -7.8982    0.7382   -0.5227 H   0  0  0  0  0  0  0  0  0  0  0  0
   -6.6608   -1.4940    1.2165 H   0  0  0  0  0  0  0  0  0  0  0  0
   -7.3855   -1.7806   -0.3609 H   0  0  0  0  0  0  0  0  0  0  0  0
   -8.8761   -2.1824    1.6891 H   0  0  0  0  0  0  0  0  0  0  0  0
   -8.5867   -0.5180    2.1645 H   0  0  0  0  0  0  0  0  0  0  0  0
  -11.5126   -1.8791   -0.0892 H   0  0  0  0  0  0  0  0  0  0  0  0
  -10.1276   -1.8807   -1.2323 H   0  0  0  0  0  0  0  0  0  0  0  0
  -12.1309    0.2566   -0.9342 H   0  0  0  0  0  0  0  0  0  0  0  0
  -10.4662    0.6031   -1.5833 H   0  0  0  0  0  0  0  0  0  0  0  0
  -11.3906    0.5367    1.2583 H   0  0  0  0  0  0  0  0  0  0  0  0
   -9.9044    1.4141    0.5484 H   0  0  0  0  0  0  0  0  0  0  0  0
  1  2  1  0
  2  3  1  0
  3  4  2  0
  4  5  1  0
  5  6  2  0
  6  7  1  0
  7  8  1  0
  8  9  2  0
  9 10  1  0
 10 11  2  0
 11 12  1  0
 12 13  1  0
 13 14  2  0
 13 15  1  0
 15 16  2  0
 16 17  1  0
 17 18  1  0
 17 19  1  0
 19 20  2  0
 19 21  1  0
 21 22  1  0
 21 23  1  0
 23 24  2  0
 11 25  1  0
 25 26  2  0
 26 27  1  0
  6 28  1  0
 28 29  2  0
 29 30  1  0
 30 31  2  0
 31 32  1  0
 32 33  2  0
 33 34  1  0
 34 35  1  0
 35 36  1  0
 36 37  1  0
 37 38  1  0
 38 39  1  0
 39 40  1  0
 40 41  1  0
 33  3  1  0
 41 38  1  0
 31  5  1  0
 26  8  1  0
 23 15  1  0
  1 42  1  0
  1 43  1  0
  1 44  1  0
  4 45  1  0
  9 46  1  0
 10 47  1  0
 12 48  1  0
 18 49  1  0
 18 50  1  0
 18 51  1  0
 22 52  1  0
 22 53  1  0
 22 54  1  0
 25 55  1  0
 28 56  1  0
 29 57  1  0
 32 58  1  0
 35 59  1  0
 35 60  1  0
 36 61  1  0
 36 62  1  0
 37 63  1  0
 37 64  1  0
 39 65  1  0
 39 66  1  0
 40 67  1  0
 40 68  1  0
 41 69  1  0
 41 70  1  0
M  END
$$$$
[H]c1nc(N2C([H])([H])C([H])([H])N(C(=O)C3([H])C([H])([H])C3([H])[H])C([H])([H])C2([H])[H])c2c(-c3c([H])c([H])c(C([H])([H])[H])c([H])c3[H])c([H])n([H])c2n1
     RDKit          3D

 50 54  0  0  0  0  0  0  0  0999 V2000
   -4.0964    2.9062    2.1660 C   0  0  0  0  0  0  0  0  0  0  0  0
   -3.5831    2.0486    1.0720 C   0  0  0  0  0  0  0  0  0  0  0  0
   -2.6016    2.4386    0.1891 C   0  0  0  0  0  0  0  0  0  0  0  0
   -2.1534    1.6225   -0.8063 C   0  0  0  0  0  0  0  0  0  0  0  0
   -2.6628    0.3719   -0.9723 C   0  0  0  0  0  0  0  0  0  0  0  0
   -3.6573   -0.0309   -0.0823 C   0  0  0  0  0  0  0  0  0  0  0  0
   -4.1140    0.7850    0.9226 C   0  0  0  0  0  0  0  0  0  0  0  0
   -2.3175   -0.5884   -1.9941 C   0  0  0  0  0  0  0  0  0  0  0  0
   -3.2119   -0.9926   -3.0146 C   0  0  0  0  0  0  0  0  0  0  0  0
   -2.6070   -1.8188   -3.8459 N   0  0  0  0  0  0  0  0  0  0  0  0
   -1.3380   -1.9910   -3.4277 C   0  0  0  0  0  0  0  0  0  0  0  0
   -0.3203   -2.7197   -3.9120 N   0  0  0  0  0  0  0  0  0  0  0  0
    0.8832   -2.7501   -3.3280 C   0  0  0  0  0  0  0  0  0  0  0  0
    1.0623   -2.0329   -2.2344 N   0  0  0  0  0  0  0  0  0  0  0  0
    0.0958   -1.2545   -1.6532 C   0  0  0  0  0  0  0  0  0  0  0  0
    0.4139   -0.6043   -0.4552 N   0  0  0  0  0  0  0  0  0  0  0  0
   -0.1216   -1.0521    0.8047 C   0  0  0  0  0  0  0  0  0  0  0  0
    1.0124   -1.4284    1.7577 C   0  0  0  0  0  0  0  0  0  0  0  0
    2.1623   -0.5020    1.5645 N   0  0  0  0  0  0  0  0  0  0  0  0
    1.8410    0.7569    0.9966 C   0  0  0  0  0  0  0  0  0  0  0  0
    1.3576    0.4880   -0.4485 C   0  0  0  0  0  0  0  0  0  0  0  0
    3.4247   -0.9323    1.9479 C   0  0  0  0  0  0  0  0  0  0  0  0
    3.4228   -2.1525    2.4385 O   0  0  0  0  0  0  0  0  0  0  0  0
    4.7390   -0.3255    1.9237 C   0  0  0  0  0  0  0  0  0  0  0  0
    5.1726    0.3721    0.6358 C   0  0  0  0  0  0  0  0  0  0  0  0
    5.0854    1.0922    1.9402 C   0  0  0  0  0  0  0  0  0  0  0  0
   -1.1372   -1.2194   -2.2528 C   0  0  0  0  0  0  0  0  0  0  0  0
   -3.4808    3.8240    2.2847 H   0  0  0  0  0  0  0  0  0  0  0  0
   -4.1436    2.4018    3.1339 H   0  0  0  0  0  0  0  0  0  0  0  0
   -5.1315    3.2845    1.9281 H   0  0  0  0  0  0  0  0  0  0  0  0
   -2.2099    3.4521    0.3478 H   0  0  0  0  0  0  0  0  0  0  0  0
   -1.3843    1.9599   -1.4791 H   0  0  0  0  0  0  0  0  0  0  0  0
   -4.1063   -1.0277   -0.1659 H   0  0  0  0  0  0  0  0  0  0  0  0
   -4.9027    0.4294    1.6068 H   0  0  0  0  0  0  0  0  0  0  0  0
   -4.2247   -0.6432   -3.0533 H   0  0  0  0  0  0  0  0  0  0  0  0
   -2.9772   -2.3030   -4.7082 H   0  0  0  0  0  0  0  0  0  0  0  0
    1.7019   -3.3644   -3.7588 H   0  0  0  0  0  0  0  0  0  0  0  0
   -0.5988   -0.1577    1.2850 H   0  0  0  0  0  0  0  0  0  0  0  0
   -0.7997   -1.9007    0.7398 H   0  0  0  0  0  0  0  0  0  0  0  0
    1.3272   -2.4718    1.6123 H   0  0  0  0  0  0  0  0  0  0  0  0
    0.6551   -1.2230    2.7839 H   0  0  0  0  0  0  0  0  0  0  0  0
    2.5948    1.5154    0.9080 H   0  0  0  0  0  0  0  0  0  0  0  0
    0.9376    1.1491    1.5799 H   0  0  0  0  0  0  0  0  0  0  0  0
    0.9755    1.4176   -0.9099 H   0  0  0  0  0  0  0  0  0  0  0  0
    2.2623    0.2028   -1.0196 H   0  0  0  0  0  0  0  0  0  0  0  0
    5.5666   -1.0210    2.3425 H   0  0  0  0  0  0  0  0  0  0  0  0
    4.4483    0.6415   -0.1328 H   0  0  0  0  0  0  0  0  0  0  0  0
    6.2065    0.0864    0.2486 H   0  0  0  0  0  0  0  0  0  0  0  0
    4.4123    1.9314    2.1355 H   0  0  0  0  0  0  0  0  0  0  0  0
    6.1206    1.3300    2.3590 H   0  0  0  0  0  0  0  0  0  0  0  0
  1  2  1  0
  2  3  2  0
  3  4  1  0
  4  5  2  0
  5  6  1  0
  6  7  2  0
  5  8  1  0
  8  9  2  0
  9 10  1  0
 10 11  1  0
 11 12  2  0
 12 13  1  0
 13 14  2  0
 14 15  1  0
 15 16  1  0
 16 17  1  0
 17 18  1  0
 18 19  1  0
 19 20  1  0
 20 21  1  0
 19 22  1  0
 22 23  2  0
 22 24  1  0
 24 25  1  0
 25 26  1  0
 15 27  2  0
  7  2  1  0
 27  8  1  0
 27 11  1  0
 21 16  1  0
 26 24  1  0
  1 28  1  0
  1 29  1  0
  1 30  1  0
  3 31  1  0
  4 32  1  0
  6 33  1  0
  7 34  1  0
  9 35  1  0
 10 36  1  0
 13 37  1  0
 17 38  1  0
 17 39  1  0
 18 40  1  0
 18 41  1  0
 20 42  1  0
 20 43  1  0
 21 44  1  0
 21 45  1  0
 24 46  1  0
 25 47  1  0
 25 48  1  0
 26 49  1  0
 26 50  1  0
M  END
$$$$
[H]c1nc2c([H])c(OC([H])([H])C([H])([H])C([H])([H])N3C([H])([H])C([H])([H])N(C([H])([H])[H])C([H])([H])C3([H])[H])c(OC([H])([H])[H])c([H])c2c(Oc2c([H])c([H])c(N([H])C(=O)N([H])c3c([H])c([H])c([H])c([H])c3[H])c([H])c2F)c1[H]
     RDKit          3D

 75 79  0  0  0  0  0  0  0  0999 V2000
   -1.1858    4.8121    0.3673 C   0  0  0  0  0  0  0  0  0  0  0  0
   -2.2897    3.8995    0.4639 O   0  0  0  0  0  0  0  0  0  0  0  0
   -2.0357    2.5459    0.3675 C   0  0  0  0  0  0  0  0  0  0  0  0
   -0.7572    2.0682    0.1823 C   0  0  0  0  0  0  0  0  0  0  0  0
   -0.5425    0.7107    0.0908 C   0  0  0  0  0  0  0  0  0  0  0  0
    0.7339    0.1616   -0.0981 C   0  0  0  0  0  0  0  0  0  0  0  0
    1.7586    1.0535   -0.1843 O   0  0  0  0  0  0  0  0  0  0  0  0
    3.0958    0.8329   -0.3247 C   0  0  0  0  0  0  0  0  0  0  0  0
    3.7061    1.3094   -1.4739 C   0  0  0  0  0  0  0  0  0  0  0  0
    5.0400    1.1042   -1.6386 C   0  0  0  0  0  0  0  0  0  0  0  0
    5.8540    0.4299   -0.7056 C   0  0  0  0  0  0  0  0  0  0  0  0
    7.2155    0.2573   -0.9681 N   0  0  0  0  0  0  0  0  0  0  0  0
    8.2438   -0.2067   -0.1151 C   0  0  0  0  0  0  0  0  0  0  0  0
    8.0143   -0.5361    1.0714 O   0  0  0  0  0  0  0  0  0  0  0  0
    9.5815   -0.3179   -0.5704 N   0  0  0  0  0  0  0  0  0  0  0  0
   10.6819   -0.7623    0.1556 C   0  0  0  0  0  0  0  0  0  0  0  0
   11.9627   -0.4780   -0.3503 C   0  0  0  0  0  0  0  0  0  0  0  0
   13.1064   -0.8880    0.2819 C   0  0  0  0  0  0  0  0  0  0  0  0
   13.0647   -1.6016    1.4485 C   0  0  0  0  0  0  0  0  0  0  0  0
   11.8324   -1.9033    1.9803 C   0  0  0  0  0  0  0  0  0  0  0  0
   10.6731   -1.4768    1.3213 C   0  0  0  0  0  0  0  0  0  0  0  0
    5.2073   -0.0199    0.4084 C   0  0  0  0  0  0  0  0  0  0  0  0
    3.8321    0.1679    0.6241 C   0  0  0  0  0  0  0  0  0  0  0  0
    3.2776   -0.3097    1.7874 F   0  0  0  0  0  0  0  0  0  0  0  0
    0.9051   -1.2009   -0.1851 C   0  0  0  0  0  0  0  0  0  0  0  0
   -0.1822   -2.0467   -0.0865 C   0  0  0  0  0  0  0  0  0  0  0  0
   -1.3993   -1.5069    0.0946 N   0  0  0  0  0  0  0  0  0  0  0  0
   -1.5937   -0.1589    0.1834 C   0  0  0  0  0  0  0  0  0  0  0  0
   -2.8722    0.3467    0.3701 C   0  0  0  0  0  0  0  0  0  0  0  0
   -3.1474    1.6883    0.4683 C   0  0  0  0  0  0  0  0  0  0  0  0
   -4.3317    2.1775    0.6407 O   0  0  0  0  0  0  0  0  0  0  0  0
   -5.6368    2.1545    0.7977 C   0  0  0  0  0  0  0  0  0  0  0  0
   -6.5658    1.6187   -0.2220 C   0  0  0  0  0  0  0  0  0  0  0  0
   -6.4783    0.2157   -0.6296 C   0  0  0  0  0  0  0  0  0  0  0  0
   -6.6714   -0.7667    0.3939 N   0  0  0  0  0  0  0  0  0  0  0  0
   -6.5532   -2.0777   -0.2126 C   0  0  0  0  0  0  0  0  0  0  0  0
   -7.7975   -2.4955   -0.9658 C   0  0  0  0  0  0  0  0  0  0  0  0
   -8.9470   -2.5098   -0.0946 N   0  0  0  0  0  0  0  0  0  0  0  0
  -10.0423   -1.7161   -0.5631 C   0  0  0  0  0  0  0  0  0  0  0  0
   -8.5444   -2.0601    1.2039 C   0  0  0  0  0  0  0  0  0  0  0  0
   -7.8871   -0.6812    1.1158 C   0  0  0  0  0  0  0  0  0  0  0  0
   -0.7614    4.6774   -0.6490 H   0  0  0  0  0  0  0  0  0  0  0  0
   -0.4002    4.5680    1.0933 H   0  0  0  0  0  0  0  0  0  0  0  0
   -1.5597    5.8560    0.4355 H   0  0  0  0  0  0  0  0  0  0  0  0
    0.0967    2.7124    0.1043 H   0  0  0  0  0  0  0  0  0  0  0  0
    3.1486    1.8424   -2.2474 H   0  0  0  0  0  0  0  0  0  0  0  0
    5.5032    1.4775   -2.5315 H   0  0  0  0  0  0  0  0  0  0  0  0
    7.5353    0.5096   -1.9609 H   0  0  0  0  0  0  0  0  0  0  0  0
    9.7340   -0.0274   -1.5868 H   0  0  0  0  0  0  0  0  0  0  0  0
   12.0147    0.0906   -1.2780 H   0  0  0  0  0  0  0  0  0  0  0  0
   14.0711   -0.6348   -0.1636 H   0  0  0  0  0  0  0  0  0  0  0  0
   13.9904   -1.9206    1.9401 H   0  0  0  0  0  0  0  0  0  0  0  0
   11.7595   -2.4684    2.9048 H   0  0  0  0  0  0  0  0  0  0  0  0
    9.7646   -1.7626    1.7919 H   0  0  0  0  0  0  0  0  0  0  0  0
    5.7388   -0.5573    1.1839 H   0  0  0  0  0  0  0  0  0  0  0  0
    1.8784   -1.6323   -0.3397 H   0  0  0  0  0  0  0  0  0  0  0  0
   -0.0745   -3.1311   -0.1523 H   0  0  0  0  0  0  0  0  0  0  0  0
   -3.6619   -0.4188    0.4427 H   0  0  0  0  0  0  0  0  0  0  0  0
   -5.8764    1.5532    1.7534 H   0  0  0  0  0  0  0  0  0  0  0  0
   -6.1040    3.1632    1.1163 H   0  0  0  0  0  0  0  0  0  0  0  0
   -6.4340    2.2366   -1.1643 H   0  0  0  0  0  0  0  0  0  0  0  0
   -7.6364    1.8517    0.0611 H   0  0  0  0  0  0  0  0  0  0  0  0
   -5.5595   -0.0391   -1.1969 H   0  0  0  0  0  0  0  0  0  0  0  0
   -7.3012    0.0554   -1.3943 H   0  0  0  0  0  0  0  0  0  0  0  0
   -5.7324   -2.0415   -0.9885 H   0  0  0  0  0  0  0  0  0  0  0  0
   -6.2218   -2.8524    0.5060 H   0  0  0  0  0  0  0  0  0  0  0  0
   -7.9251   -1.8326   -1.8386 H   0  0  0  0  0  0  0  0  0  0  0  0
   -7.6255   -3.5500   -1.2810 H   0  0  0  0  0  0  0  0  0  0  0  0
   -9.7099   -0.9922   -1.3208 H   0  0  0  0  0  0  0  0  0  0  0  0
  -10.8823   -2.3609   -0.9560 H   0  0  0  0  0  0  0  0  0  0  0  0
  -10.4887   -1.1645    0.2911 H   0  0  0  0  0  0  0  0  0  0  0  0
   -9.4575   -1.9025    1.8355 H   0  0  0  0  0  0  0  0  0  0  0  0
   -7.8556   -2.7203    1.7342 H   0  0  0  0  0  0  0  0  0  0  0  0
   -8.6476   -0.0070    0.6784 H   0  0  0  0  0  0  0  0  0  0  0  0
   -7.6448   -0.4109    2.1703 H   0  0  0  0  0  0  0  0  0  0  0  0
  1  2  1  0
  2  3  1  0
  3  4  2  0
  4  5  1  0
  5  6  2  0
  6  7  1  0
  7  8  1  0
  8  9  2  0
  9 10  1  0
 10 11  2  0
 11 12  1  0
 12 13  1  0
 13 14  2  0
 13 15  1  0
 15 16  1  0
 16 17  2  0
 17 18  1  0
 18 19  2  0
 19 20  1  0
 20 21  2  0
 11 22  1  0
 22 23  2  0
 23 24  1  0
  6 25  1  0
 25 26  2  0
 26 27  1  0
 27 28  2  0
 28 29  1  0
 29 30  2  0
 30 31  1  0
 31 32  1  0
 32 33  1  0
 33 34  1  0
 34 35  1  0
 35 36  1  0
 36 37  1  0
 37 38  1  0
 38 39  1  0
 38 40  1  0
 40 41  1  0
 30  3  1  0
 41 35  1  0
 28  5  1  0
 23  8  1  0
 21 16  1  0
  1 42  1  0
  1 43  1  0
  1 44  1  0
  4 45  1  0
  9 46  1  0
 10 47  1  0
 12 48  1  0
 15 49  1  0
 17 50  1  0
 18 51  1  0
 19 52  1  0
 20 53  1  0
 21 54  1  0
 22 55  1  0
 25 56  1  0
 26 57  1  0
 29 58  1  0
 32 59  1  0
 32 60  1  0
 33 61  1  0
 33 62  1  0
 34 63  1  0
 34 64  1  0
 36 65  1  0
 36 66  1  0
 37 67  1  0
 37 68  1  0
 39 69  1  0
 39 70  1  0
 39 71  1  0
 40 72  1  0
 40 73  1  0
 41 74  1  0
 41 75  1  0
M  END
$$$$
[H]O[C@]1([H])[C@]([H])(n2c([H])nc3c(N([H])[H])nc([H])nc32)O[C@@]([H])(C([H])([H])OP(=O)(O[H])O[H])[C@]1([H])O[H]
     RDKit          3D

 37 39  0  0  0  0  0  0  0  0999 V2000
   -5.9151    1.8100    0.7991 N   0  0  0  0  0  0  0  0  0  0  0  0
   -5.0042    0.8008    0.4058 C   0  0  0  0  0  0  0  0  0  0  0  0
   -5.3772   -0.3951   -0.0638 N   0  0  0  0  0  0  0  0  0  0  0  0
   -4.4717   -1.3436   -0.4334 C   0  0  0  0  0  0  0  0  0  0  0  0
   -3.1558   -1.0783   -0.3265 N   0  0  0  0  0  0  0  0  0  0  0  0
   -2.7012    0.0954    0.1345 C   0  0  0  0  0  0  0  0  0  0  0  0
   -1.4749    0.5613    0.3195 N   0  0  0  0  0  0  0  0  0  0  0  0
   -1.6169    1.8101    0.8084 C   0  0  0  0  0  0  0  0  0  0  0  0
   -2.9444    2.1007    0.9195 N   0  0  0  0  0  0  0  0  0  0  0  0
   -3.6362    1.0404    0.5027 C   0  0  0  0  0  0  0  0  0  0  0  0
   -0.2478   -0.0870    0.0674 C   0  0  2  0  0  0  0  0  0  0  0  0
    0.7644    0.7505   -0.4089 O   0  0  0  0  0  0  0  0  0  0  0  0
    1.7933   -0.0504   -0.8205 C   0  0  1  0  0  0  0  0  0  0  0  0
    2.9769   -0.0726    0.0869 C   0  0  0  0  0  0  0  0  0  0  0  0
    3.5566    1.1813    0.2577 O   0  0  0  0  0  0  0  0  0  0  0  0
    4.8894    1.0927    1.2921 P   0  0  0  0  0  0  0  0  0  0  0  0
    6.2743    0.7731    0.3461 O   0  0  0  0  0  0  0  0  0  0  0  0
    4.7021   -0.0636    2.4872 O   0  0  0  0  0  0  0  0  0  0  0  0
    5.0914    2.4340    1.9719 O   0  0  0  0  0  0  0  0  0  0  0  0
    1.2648   -1.4720   -0.9223 C   0  0  2  0  0  0  0  0  0  0  0  0
    1.6661   -2.0817   -2.1001 O   0  0  0  0  0  0  0  0  0  0  0  0
   -0.2479   -1.1691   -0.9579 C   0  0  2  0  0  0  0  0  0  0  0  0
   -0.4599   -0.7451   -2.2491 O   0  0  0  0  0  0  0  0  0  0  0  0
   -5.5908    2.7549    1.0140 H   0  0  0  0  0  0  0  0  0  0  0  0
   -6.9230    1.5426    0.8574 H   0  0  0  0  0  0  0  0  0  0  0  0
   -4.8149   -2.3093   -0.8130 H   0  0  0  0  0  0  0  0  0  0  0  0
   -0.8490    2.5304    1.0926 H   0  0  0  0  0  0  0  0  0  0  0  0
    0.1642   -0.5293    1.0010 H   0  0  0  0  0  0  0  0  0  0  0  0
    2.1212    0.2559   -1.8560 H   0  0  0  0  0  0  0  0  0  0  0  0
    3.7502   -0.7219   -0.3751 H   0  0  0  0  0  0  0  0  0  0  0  0
    2.7039   -0.5507    1.0537 H   0  0  0  0  0  0  0  0  0  0  0  0
    5.9956    0.4358   -0.5382 H   0  0  0  0  0  0  0  0  0  0  0  0
    5.4620   -0.7178    2.5333 H   0  0  0  0  0  0  0  0  0  0  0  0
    1.4721   -2.0595   -0.0204 H   0  0  0  0  0  0  0  0  0  0  0  0
    2.1892   -2.9022   -1.8490 H   0  0  0  0  0  0  0  0  0  0  0  0
   -0.7915   -2.0808   -0.6740 H   0  0  0  0  0  0  0  0  0  0  0  0
   -0.6153   -1.5399   -2.8131 H   0  0  0  0  0  0  0  0  0  0  0  0
  1  2  1  0
  2  3  2  0
  3  4  1  0
  4  5  2  0
  5  6  1  0
  6  7  1  0
  7  8  1  0
  8  9  2  0
  9 10  1  0
  7 11  1  0
 11 12  1  0
 12 13  1  0
 13 14  1  0
 14 15  1  0
 15 16  1  0
 16 17  1  0
 16 18  1  0
 16 19  2  0
 13 20  1  0
 20 21  1  0
 20 22  1  0
 22 23  1  0
 10  2  1  0
 22 11  1  0
 10  6  2  0
  1 24  1  0
  1 25  1  0
  4 26  1  0
  8 27  1  0
 11 28  1  1
 13 29  1  6
 14 30  1  0
 14 31  1  0
 17 32  1  0
 18 33  1  0
 20 34  1  1
 21 35  1  0
 22 36  1  1
 23 37  1  0
M  END
$$$$
[H]c1c([H])c(S(=O)(=O)N(C([H])([H])c2c([H])c([H])c(C(F)(F)F)c([H])c2[H])C([H])(C([H])([H])[H])C([H])([H])[H])c([H])c([H])c1OC([H])([H])[H]
     RDKit          3D

 46 47  0  0  0  0  0  0  0  0999 V2000
    7.0903    1.6007   -0.7087 C   0  0  0  0  0  0  0  0  0  0  0  0
    6.3379    0.4311   -0.6269 O   0  0  0  0  0  0  0  0  0  0  0  0
    5.0407    0.3685   -0.1472 C   0  0  0  0  0  0  0  0  0  0  0  0
    4.3122    1.4549    0.2965 C   0  0  0  0  0  0  0  0  0  0  0  0
    3.0006    1.2803    0.7624 C   0  0  0  0  0  0  0  0  0  0  0  0
    2.4058    0.0204    0.7807 C   0  0  0  0  0  0  0  0  0  0  0  0
    3.1780   -1.0163    0.3340 C   0  0  0  0  0  0  0  0  0  0  0  0
    4.4512   -0.8985   -0.1245 C   0  0  0  0  0  0  0  0  0  0  0  0
    0.8025   -0.3574    1.3411 S   0  0  0  0  0  0  0  0  0  0  0  0
    0.4484    0.8852    2.2270 O   0  0  0  0  0  0  0  0  0  0  0  0
    0.7618   -1.4974    2.3298 O   0  0  0  0  0  0  0  0  0  0  0  0
   -0.3729   -0.3904    0.1612 N   0  0  0  0  0  0  0  0  0  0  0  0
   -0.6817    0.8153   -0.4782 C   0  0  0  0  0  0  0  0  0  0  0  0
   -2.1974    0.9769   -0.5266 C   0  0  0  0  0  0  0  0  0  0  0  0
   -2.8041    0.8253   -1.7483 C   0  0  0  0  0  0  0  0  0  0  0  0
   -4.1872    0.7792   -1.7151 C   0  0  0  0  0  0  0  0  0  0  0  0
   -4.9211    0.8711   -0.5640 C   0  0  0  0  0  0  0  0  0  0  0  0
   -4.2947    1.0312    0.6569 C   0  0  0  0  0  0  0  0  0  0  0  0
   -2.8931    1.0857    0.6435 C   0  0  0  0  0  0  0  0  0  0  0  0
   -6.4072    0.7102   -0.5698 C   0  0  0  0  0  0  0  0  0  0  0  0
   -7.0305    1.8990   -0.4442 F   0  0  0  0  0  0  0  0  0  0  0  0
   -6.6806   -0.0388    0.5819 F   0  0  0  0  0  0  0  0  0  0  0  0
   -6.7890    0.0166   -1.7019 F   0  0  0  0  0  0  0  0  0  0  0  0
   -1.0728   -1.5633   -0.0796 C   0  0  0  0  0  0  0  0  0  0  0  0
   -0.1246   -2.6712   -0.6021 C   0  0  0  0  0  0  0  0  0  0  0  0
   -1.8184   -2.1960    1.0765 C   0  0  0  0  0  0  0  0  0  0  0  0
    6.5971    2.4895   -0.2922 H   0  0  0  0  0  0  0  0  0  0  0  0
    8.1172    1.4776   -0.2342 H   0  0  0  0  0  0  0  0  0  0  0  0
    7.3126    1.8739   -1.7901 H   0  0  0  0  0  0  0  0  0  0  0  0
    4.7466    2.4115    0.2756 H   0  0  0  0  0  0  0  0  0  0  0  0
    2.3994    2.0976    1.1117 H   0  0  0  0  0  0  0  0  0  0  0  0
    2.7275   -2.0221    0.3341 H   0  0  0  0  0  0  0  0  0  0  0  0
    5.0378   -1.7538   -0.4547 H   0  0  0  0  0  0  0  0  0  0  0  0
   -0.3063    0.9395   -1.4796 H   0  0  0  0  0  0  0  0  0  0  0  0
   -0.3290    1.6794    0.1619 H   0  0  0  0  0  0  0  0  0  0  0  0
   -2.2540    0.7699   -2.6519 H   0  0  0  0  0  0  0  0  0  0  0  0
   -4.7799    0.6738   -2.6436 H   0  0  0  0  0  0  0  0  0  0  0  0
   -4.8504    1.0829    1.5694 H   0  0  0  0  0  0  0  0  0  0  0  0
   -2.3832    1.2172    1.5796 H   0  0  0  0  0  0  0  0  0  0  0  0
   -1.8256   -1.4420   -0.9112 H   0  0  0  0  0  0  0  0  0  0  0  0
   -0.6725   -3.4420   -1.1544 H   0  0  0  0  0  0  0  0  0  0  0  0
    0.5761   -2.1987   -1.2967 H   0  0  0  0  0  0  0  0  0  0  0  0
    0.3946   -3.1400    0.2728 H   0  0  0  0  0  0  0  0  0  0  0  0
   -1.2537   -3.0932    1.4527 H   0  0  0  0  0  0  0  0  0  0  0  0
   -2.7832   -2.5659    0.6891 H   0  0  0  0  0  0  0  0  0  0  0  0
   -2.0256   -1.4775    1.8867 H   0  0  0  0  0  0  0  0  0  0  0  0
  1  2  1  0
  2  3  1  0
  3  4  2  0
  4  5  1  0
  5  6  2  0
  6  7  1  0
  7  8  2  0
  6  9  1  0
  9 10  2  0
  9 11  2  0
  9 12  1  0
 12 13  1  0
 13 14  1  0
 14 15  2  0
 15 16  1  0
 16 17  2  0
 17 18  1  0
 18 19  2  0
 17 20  1  0
 20 21  1  0
 20 22  1  0
 20 23  1  0
 12 24  1  0
 24 25  1  0
 24 26  1  0
  8  3  1  0
 19 14  1  0
  1 27  1  0
  1 28  1  0
  1 29  1  0
  4 30  1  0
  5 31  1  0
  7 32  1  0
  8 33  1  0
 13 34  1  0
 13 35  1  0
 15 36  1  0
 16 37  1  0
 18 38  1  0
 19 39  1  0
 24 40  1  0
 25 41  1  0
 25 42  1  0
 25 43  1  0
 26 44  1  0
 26 45  1  0
 26 46  1  0
M  END
$$$$
[H]c1c([H])c([H])c(C([H])([H])[C@@]([H])(C(=O)N([H])[H])N([H])C(=O)[C@@]([H])(N([H])C(=O)[C@@]([H])(N([H])C(=O)[C@@]([H])(N([H])[H])C([H])([H])C([H])(C([H])([H])[H])C([H])([H])[H])C([H])([H])c2c([H])c([H])c([H])c([H])c2[H])C([H])([H])c2c([H])c([H])c([H])c([H])c2[H])c([H])c1[H]
     RDKit          3D

 83 85  0  0  0  0  0  0  0  0999 V2000
   -5.3600    5.2395    1.4618 C   0  0  0  0  0  0  0  0  0  0  0  0
   -5.8598    3.8645    0.9883 C   0  0  0  0  0  0  0  0  0  0  0  0
   -6.6462    3.2457    2.1241 C   0  0  0  0  0  0  0  0  0  0  0  0
   -4.6336    3.0481    0.7199 C   0  0  0  0  0  0  0  0  0  0  0  0
   -4.9832    1.6844    0.2273 C   0  0  2  0  0  0  0  0  0  0  0  0
   -5.7521    0.8693    1.1055 N   0  0  0  0  0  0  0  0  0  0  0  0
   -3.7604    0.9736   -0.2159 C   0  0  0  0  0  0  0  0  0  0  0  0
   -2.9746    1.5356   -1.0038 O   0  0  0  0  0  0  0  0  0  0  0  0
   -3.4809   -0.3267    0.2457 N   0  0  0  0  0  0  0  0  0  0  0  0
   -2.3244   -1.0928   -0.1334 C   0  0  1  0  0  0  0  0  0  0  0  0
   -2.0820   -1.2277   -1.6064 C   0  0  0  0  0  0  0  0  0  0  0  0
   -3.1952   -1.9211   -2.3049 C   0  0  0  0  0  0  0  0  0  0  0  0
   -4.2351   -1.3007   -2.9487 C   0  0  0  0  0  0  0  0  0  0  0  0
   -5.2313   -2.0760   -3.5576 C   0  0  0  0  0  0  0  0  0  0  0  0
   -5.2188   -3.4531   -3.5423 C   0  0  0  0  0  0  0  0  0  0  0  0
   -4.1770   -4.0759   -2.8975 C   0  0  0  0  0  0  0  0  0  0  0  0
   -3.1976   -3.3190   -2.2986 C   0  0  0  0  0  0  0  0  0  0  0  0
   -1.1228   -0.7876    0.6649 C   0  0  0  0  0  0  0  0  0  0  0  0
   -1.2688    0.1001    1.5724 O   0  0  0  0  0  0  0  0  0  0  0  0
    0.1181   -1.4287    0.4536 N   0  0  0  0  0  0  0  0  0  0  0  0
    1.2983   -1.1254    1.2490 C   0  0  1  0  0  0  0  0  0  0  0  0
    1.7288   -2.2632    2.0906 C   0  0  0  0  0  0  0  0  0  0  0  0
    2.0792   -3.5093    1.4180 C   0  0  0  0  0  0  0  0  0  0  0  0
    1.0713   -4.3732    1.0758 C   0  0  0  0  0  0  0  0  0  0  0  0
    1.2751   -5.5840    0.4656 C   0  0  0  0  0  0  0  0  0  0  0  0
    2.5968   -5.9312    0.1889 C   0  0  0  0  0  0  0  0  0  0  0  0
    3.6165   -5.0700    0.5291 C   0  0  0  0  0  0  0  0  0  0  0  0
    3.3744   -3.8623    1.1412 C   0  0  0  0  0  0  0  0  0  0  0  0
    2.3147   -0.4926    0.4212 C   0  0  0  0  0  0  0  0  0  0  0  0
    2.0264   -0.2402   -0.7973 O   0  0  0  0  0  0  0  0  0  0  0  0
    3.5880   -0.1396    0.8848 N   0  0  0  0  0  0  0  0  0  0  0  0
    4.5196    0.5329   -0.0338 C   0  0  1  0  0  0  0  0  0  0  0  0
    4.9157    1.7866    0.6975 C   0  0  0  0  0  0  0  0  0  0  0  0
    5.8632    2.6765    0.0356 C   0  0  0  0  0  0  0  0  0  0  0  0
    5.4203    3.6476   -0.8423 C   0  0  0  0  0  0  0  0  0  0  0  0
    6.2878    4.5379   -1.4691 C   0  0  0  0  0  0  0  0  0  0  0  0
    7.6441    4.4918   -1.2408 C   0  0  0  0  0  0  0  0  0  0  0  0
    8.1031    3.5173   -0.3579 C   0  0  0  0  0  0  0  0  0  0  0  0
    7.2378    2.6442    0.2549 C   0  0  0  0  0  0  0  0  0  0  0  0
    5.6329   -0.3286   -0.4343 C   0  0  0  0  0  0  0  0  0  0  0  0
    6.5225    0.1093   -1.4597 N   0  0  0  0  0  0  0  0  0  0  0  0
    5.8958   -1.4644    0.0476 O   0  0  0  0  0  0  0  0  0  0  0  0
   -4.5679    5.5160    0.7086 H   0  0  0  0  0  0  0  0  0  0  0  0
   -4.9313    5.0945    2.4581 H   0  0  0  0  0  0  0  0  0  0  0  0
   -6.2293    5.9137    1.4481 H   0  0  0  0  0  0  0  0  0  0  0  0
   -6.4625    3.9478    0.0692 H   0  0  0  0  0  0  0  0  0  0  0  0
   -6.0199    2.7083    2.8383 H   0  0  0  0  0  0  0  0  0  0  0  0
   -7.4512    2.6082    1.7616 H   0  0  0  0  0  0  0  0  0  0  0  0
   -7.1896    4.1090    2.6437 H   0  0  0  0  0  0  0  0  0  0  0  0
   -3.9822    2.9698    1.6240 H   0  0  0  0  0  0  0  0  0  0  0  0
   -4.0405    3.5995   -0.0663 H   0  0  0  0  0  0  0  0  0  0  0  0
   -5.6107    1.7573   -0.7289 H   0  0  0  0  0  0  0  0  0  0  0  0
   -6.0574    0.0171    0.6143 H   0  0  0  0  0  0  0  0  0  0  0  0
   -5.2808    0.6044    1.9840 H   0  0  0  0  0  0  0  0  0  0  0  0
   -4.2013   -0.7412    0.9268 H   0  0  0  0  0  0  0  0  0  0  0  0
   -2.6097   -2.1740    0.1667 H   0  0  0  0  0  0  0  0  0  0  0  0
   -1.1908   -1.8979   -1.7423 H   0  0  0  0  0  0  0  0  0  0  0  0
   -1.8236   -0.2780   -2.1194 H   0  0  0  0  0  0  0  0  0  0  0  0
   -4.2755   -0.2215   -2.9931 H   0  0  0  0  0  0  0  0  0  0  0  0
   -6.0348   -1.5457   -4.0558 H   0  0  0  0  0  0  0  0  0  0  0  0
   -6.0203   -4.0152   -4.0337 H   0  0  0  0  0  0  0  0  0  0  0  0
   -4.1682   -5.1548   -2.8852 H   0  0  0  0  0  0  0  0  0  0  0  0
   -2.3642   -3.8116   -1.7831 H   0  0  0  0  0  0  0  0  0  0  0  0
    0.1592   -2.1549   -0.3168 H   0  0  0  0  0  0  0  0  0  0  0  0
    0.8909   -0.3539    2.0109 H   0  0  0  0  0  0  0  0  0  0  0  0
    2.6463   -1.9204    2.6504 H   0  0  0  0  0  0  0  0  0  0  0  0
    0.9757   -2.4134    2.9120 H   0  0  0  0  0  0  0  0  0  0  0  0
    0.0319   -4.0950    1.2965 H   0  0  0  0  0  0  0  0  0  0  0  0
    0.4582   -6.2525    0.2031 H   0  0  0  0  0  0  0  0  0  0  0  0
    2.7515   -6.8882   -0.2916 H   0  0  0  0  0  0  0  0  0  0  0  0
    4.6245   -5.3905    0.2907 H   0  0  0  0  0  0  0  0  0  0  0  0
    4.2034   -3.2169    1.4079 H   0  0  0  0  0  0  0  0  0  0  0  0
    3.8938   -0.3403    1.8594 H   0  0  0  0  0  0  0  0  0  0  0  0
    3.9050    0.8513   -0.9291 H   0  0  0  0  0  0  0  0  0  0  0  0
    3.9595    2.3565    0.8534 H   0  0  0  0  0  0  0  0  0  0  0  0
    5.2979    1.5632    1.7213 H   0  0  0  0  0  0  0  0  0  0  0  0
    4.3532    3.7057   -1.0397 H   0  0  0  0  0  0  0  0  0  0  0  0
    5.9096    5.2890   -2.1532 H   0  0  0  0  0  0  0  0  0  0  0  0
    8.3342    5.1740   -1.7155 H   0  0  0  0  0  0  0  0  0  0  0  0
    9.1688    3.4875   -0.1867 H   0  0  0  0  0  0  0  0  0  0  0  0
    7.6212    1.8823    0.9473 H   0  0  0  0  0  0  0  0  0  0  0  0
    7.4692   -0.2902   -1.6205 H   0  0  0  0  0  0  0  0  0  0  0  0
    6.2315    0.8897   -2.1214 H   0  0  0  0  0  0  0  0  0  0  0  0
  1  2  1  0
  2  3  1  0
  2  4  1  0
  4  5  1  0
  5  6  1  0
  5  7  1  0
  7  8  2  0
  7  9  1  0
  9 10  1  0
 10 11  1  0
 11 12  1  0
 12 13  2  0
 13 14  1  0
 14 15  2  0
 15 16  1  0
 16 17  2  0
 10 18  1  0
 18 19  2  0
 18 20  1  0
 20 21  1  0
 21 22  1  0
 22 23  1  0
 23 24  2  0
 24 25  1  0
 25 26  2  0
 26 27  1  0
 27 28  2  0
 21 29  1  0
 29 30  2  0
 29 31  1  0
 31 32  1  0
 32 33  1  0
 33 34  1  0
 34 35  2  0
 35 36  1  0
 36 37  2  0
 37 38  1  0
 38 39  2  0
 32 40  1  0
 40 41  1  0
 40 42  2  0
 17 12  1  0
 28 23  1  0
 39 34  1  0
  1 43  1  0
  1 44  1  0
  1 45  1  0
  2 46  1  0
  3 47  1  0
  3 48  1  0
  3 49  1  0
  4 50  1  0
  4 51  1  0
  5 52  1  6
  6 53  1  0
  6 54  1  0
  9 55  1  0
 10 56  1  1
 11 57  1  0
 11 58  1  0
 13 59  1  0
 14 60  1  0
 15 61  1  0
 16 62  1  0
 17 63  1  0
 20 64  1  0
 21 65  1  1
 22 66  1  0
 22 67  1  0
 24 68  1  0
 25 69  1  0
 26 70  1  0
 27 71  1  0
 28 72  1  0
 31 73  1  0
 32 74  1  6
 33 75  1  0
 33 76  1  0
 35 77  1  0
 36 78  1  0
 37 79  1  0
 38 80  1  0
 39 81  1  0
 41 82  1  0
 41 83  1  0
M  END
$$$$
[H]OC(=O)[C@@]([H])(N([H])C(=O)[C@@]([H])(N([H])C(=O)[C@@]([H])(N([H])C(=O)[C@@]([H])(N([H])C(=O)[C@@]([H])(N([H])C(=O)[C@]([H])(N([H])C(=O)N([H])c1c([H])c([H])c(C(F)(F)F)c([H])c1F)C([H])([H])C([H])(C([H])([H])[H])C([H])([H])[H])C([H])(C([H])([H])[H])C([H])([H])[H])C([H])(C([H])([H])[H])C([H])([H])[H])C([H])([H])[H])C([H])([H])[H])C([H])(C([H])([H])[H])C([H])([H])[H]
     RDKit          3D

107107  0  0  0  0  0  0  0  0999 V2000
   -3.6371    2.4204   -1.7389 C   0  0  0  0  0  0  0  0  0  0  0  0
   -4.2805    2.3030   -0.3023 C   0  0  0  0  0  0  0  0  0  0  0  0
   -5.2113    3.4102   -0.2055 C   0  0  0  0  0  0  0  0  0  0  0  0
   -4.5718    0.8910   -0.1437 C   0  0  0  0  0  0  0  0  0  0  0  0
   -5.1686    0.2345    1.0116 C   0  0  1  0  0  0  0  0  0  0  0  0
   -6.4973    0.3735    1.4222 N   0  0  0  0  0  0  0  0  0  0  0  0
   -7.6557    0.8126    0.7455 C   0  0  0  0  0  0  0  0  0  0  0  0
   -7.6954    1.1834   -0.4436 O   0  0  0  0  0  0  0  0  0  0  0  0
   -8.9036    0.8485    1.4400 N   0  0  0  0  0  0  0  0  0  0  0  0
  -10.0698    1.4552    0.8456 C   0  0  0  0  0  0  0  0  0  0  0  0
   -9.9049    2.6000    0.0577 C   0  0  0  0  0  0  0  0  0  0  0  0
  -11.0610    3.2677   -0.4003 C   0  0  0  0  0  0  0  0  0  0  0  0
  -12.3296    2.8671   -0.1231 C   0  0  0  0  0  0  0  0  0  0  0  0
  -12.4952    1.7308    0.6590 C   0  0  0  0  0  0  0  0  0  0  0  0
  -11.3530    1.0678    1.1106 C   0  0  0  0  0  0  0  0  0  0  0  0
  -11.5089   -0.0625    1.8887 F   0  0  0  0  0  0  0  0  0  0  0  0
  -13.5041    3.6617   -0.6327 C   0  0  0  0  0  0  0  0  0  0  0  0
  -14.1841    3.0364   -1.6344 F   0  0  0  0  0  0  0  0  0  0  0  0
  -13.0252    4.8731   -1.1764 F   0  0  0  0  0  0  0  0  0  0  0  0
  -14.3267    3.8930    0.4602 F   0  0  0  0  0  0  0  0  0  0  0  0
   -4.6725   -1.1876    1.1565 C   0  0  0  0  0  0  0  0  0  0  0  0
   -5.4631   -2.0315    1.6108 O   0  0  0  0  0  0  0  0  0  0  0  0
   -3.3738   -1.5136    0.7877 N   0  0  0  0  0  0  0  0  0  0  0  0
   -2.6899   -2.7449    0.8009 C   0  0  1  0  0  0  0  0  0  0  0  0
   -2.9508   -3.7834   -0.2261 C   0  0  0  0  0  0  0  0  0  0  0  0
   -2.0806   -4.9868    0.1632 C   0  0  0  0  0  0  0  0  0  0  0  0
   -4.3765   -4.3126   -0.2407 C   0  0  0  0  0  0  0  0  0  0  0  0
   -1.1989   -2.4812    0.8755 C   0  0  0  0  0  0  0  0  0  0  0  0
   -0.7760   -1.8884    1.9197 O   0  0  0  0  0  0  0  0  0  0  0  0
   -0.3199   -2.8377   -0.1299 N   0  0  0  0  0  0  0  0  0  0  0  0
    1.0872   -2.7351   -0.2248 C   0  0  1  0  0  0  0  0  0  0  0  0
    1.5922   -3.1521   -1.6021 C   0  0  0  0  0  0  0  0  0  0  0  0
    0.9730   -2.2155   -2.6540 C   0  0  0  0  0  0  0  0  0  0  0  0
    1.2565   -4.5768   -1.9419 C   0  0  0  0  0  0  0  0  0  0  0  0
    1.5878   -1.2954   -0.0408 C   0  0  0  0  0  0  0  0  0  0  0  0
    0.7676   -0.3722   -0.0048 O   0  0  0  0  0  0  0  0  0  0  0  0
    2.9565   -1.1272    0.0746 N   0  0  0  0  0  0  0  0  0  0  0  0
    3.7391    0.0820    0.2283 C   0  0  1  0  0  0  0  0  0  0  0  0
    3.3095    0.5774    1.6836 C   0  0  0  0  0  0  0  0  0  0  0  0
    5.1578   -0.2608    0.3036 C   0  0  0  0  0  0  0  0  0  0  0  0
    5.4183   -1.3697    0.9180 O   0  0  0  0  0  0  0  0  0  0  0  0
    6.2821    0.4272   -0.1929 N   0  0  0  0  0  0  0  0  0  0  0  0
    7.6062   -0.1042   -0.0352 C   0  0  1  0  0  0  0  0  0  0  0  0
    8.0136   -1.0376   -1.1750 C   0  0  0  0  0  0  0  0  0  0  0  0
    8.6482    0.8908    0.2735 C   0  0  0  0  0  0  0  0  0  0  0  0
    8.2779    2.0317    0.6031 O   0  0  0  0  0  0  0  0  0  0  0  0
   10.0280    0.5443    0.1878 N   0  0  0  0  0  0  0  0  0  0  0  0
   11.1969    1.2940    0.4009 C   0  0  1  0  0  0  0  0  0  0  0  0
   11.0019    2.7822    0.2860 C   0  0  0  0  0  0  0  0  0  0  0  0
   10.4977    3.0752   -1.1339 C   0  0  0  0  0  0  0  0  0  0  0  0
   12.3746    3.4779    0.4046 C   0  0  0  0  0  0  0  0  0  0  0  0
   11.8774    0.8394    1.5982 C   0  0  0  0  0  0  0  0  0  0  0  0
   12.9992    1.3508    2.1834 O   0  0  0  0  0  0  0  0  0  0  0  0
   11.3548   -0.1723    2.2062 O   0  0  0  0  0  0  0  0  0  0  0  0
   -3.0127    1.5298   -1.8864 H   0  0  0  0  0  0  0  0  0  0  0  0
   -3.1491    3.3743   -1.8416 H   0  0  0  0  0  0  0  0  0  0  0  0
   -4.5326    2.3076   -2.3861 H   0  0  0  0  0  0  0  0  0  0  0  0
   -3.3787    2.6125    0.3510 H   0  0  0  0  0  0  0  0  0  0  0  0
   -6.0326    3.3210   -0.9483 H   0  0  0  0  0  0  0  0  0  0  0  0
   -5.7150    3.5171    0.7813 H   0  0  0  0  0  0  0  0  0  0  0  0
   -4.7363    4.4056   -0.5009 H   0  0  0  0  0  0  0  0  0  0  0  0
   -5.3197    0.5921   -1.0289 H   0  0  0  0  0  0  0  0  0  0  0  0
   -3.6748    0.3171   -0.5297 H   0  0  0  0  0  0  0  0  0  0  0  0
   -4.5742    0.7267    1.9490 H   0  0  0  0  0  0  0  0  0  0  0  0
   -6.6919    0.0805    2.4523 H   0  0  0  0  0  0  0  0  0  0  0  0
   -8.9585    0.4150    2.3720 H   0  0  0  0  0  0  0  0  0  0  0  0
   -8.9565    2.9858   -0.1634 H   0  0  0  0  0  0  0  0  0  0  0  0
  -10.9046    4.1590   -1.0283 H   0  0  0  0  0  0  0  0  0  0  0  0
  -13.4855    1.4115    0.8799 H   0  0  0  0  0  0  0  0  0  0  0  0
   -2.7361   -0.6868    0.4768 H   0  0  0  0  0  0  0  0  0  0  0  0
   -2.9997   -3.3042    1.7784 H   0  0  0  0  0  0  0  0  0  0  0  0
   -2.7558   -3.4516   -1.2410 H   0  0  0  0  0  0  0  0  0  0  0  0
   -2.7841   -5.8148    0.4728 H   0  0  0  0  0  0  0  0  0  0  0  0
   -1.5756   -5.3808   -0.7353 H   0  0  0  0  0  0  0  0  0  0  0  0
   -1.3891   -4.7676    1.0053 H   0  0  0  0  0  0  0  0  0  0  0  0
   -5.0253   -3.5696   -0.6834 H   0  0  0  0  0  0  0  0  0  0  0  0
   -4.3686   -5.1984   -0.9276 H   0  0  0  0  0  0  0  0  0  0  0  0
   -4.6923   -4.5968    0.7849 H   0  0  0  0  0  0  0  0  0  0  0  0
   -0.8080   -3.2346   -1.0394 H   0  0  0  0  0  0  0  0  0  0  0  0
    1.6308   -3.2644    0.5817 H   0  0  0  0  0  0  0  0  0  0  0  0
    2.6810   -2.9918   -1.6208 H   0  0  0  0  0  0  0  0  0  0  0  0
    0.0758   -2.6670   -3.1076 H   0  0  0  0  0  0  0  0  0  0  0  0
    0.6299   -1.2707   -2.1950 H   0  0  0  0  0  0  0  0  0  0  0  0
    1.7090   -1.9415   -3.4291 H   0  0  0  0  0  0  0  0  0  0  0  0
    0.2537   -4.5860   -2.4679 H   0  0  0  0  0  0  0  0  0  0  0  0
    1.1046   -5.1231   -0.9917 H   0  0  0  0  0  0  0  0  0  0  0  0
    2.0301   -5.0766   -2.5305 H   0  0  0  0  0  0  0  0  0  0  0  0
    3.5492   -2.0601    0.0308 H   0  0  0  0  0  0  0  0  0  0  0  0
    3.4061    0.8738   -0.3914 H   0  0  0  0  0  0  0  0  0  0  0  0
    2.3147    1.0432    1.5989 H   0  0  0  0  0  0  0  0  0  0  0  0
    3.2656   -0.2970    2.3461 H   0  0  0  0  0  0  0  0  0  0  0  0
    4.0298    1.3572    1.9836 H   0  0  0  0  0  0  0  0  0  0  0  0
    6.1775    1.3488   -0.7139 H   0  0  0  0  0  0  0  0  0  0  0  0
    7.5442   -0.8118    0.8461 H   0  0  0  0  0  0  0  0  0  0  0  0
    8.7584   -1.7832   -0.7342 H   0  0  0  0  0  0  0  0  0  0  0  0
    7.1294   -1.6427   -1.3757 H   0  0  0  0  0  0  0  0  0  0  0  0
    8.4868   -0.5224   -2.0020 H   0  0  0  0  0  0  0  0  0  0  0  0
   10.2244   -0.4966   -0.1204 H   0  0  0  0  0  0  0  0  0  0  0  0
   11.9167    1.1007   -0.4975 H   0  0  0  0  0  0  0  0  0  0  0  0
   10.3424    3.2217    1.0284 H   0  0  0  0  0  0  0  0  0  0  0  0
    9.6625    3.8170   -1.0229 H   0  0  0  0  0  0  0  0  0  0  0  0
   11.2901    3.5820   -1.7501 H   0  0  0  0  0  0  0  0  0  0  0  0
   10.0972    2.1643   -1.5866 H   0  0  0  0  0  0  0  0  0  0  0  0
   12.4682    3.8448    1.4317 H   0  0  0  0  0  0  0  0  0  0  0  0
   13.1378    2.7093    0.2204 H   0  0  0  0  0  0  0  0  0  0  0  0
   12.4525    4.3102   -0.3454 H   0  0  0  0  0  0  0  0  0  0  0  0
   13.1705    1.3577    3.1693 H   0  0  0  0  0  0  0  0  0  0  0  0
  1  2  1  0
  2  3  1  0
  2  4  1  0
  4  5  1  0
  5  6  1  0
  6  7  1  0
  7  8  2  0
  7  9  1  0
  9 10  1  0
 10 11  2  0
 11 12  1  0
 12 13  2  0
 13 14  1  0
 14 15  2  0
 15 16  1  0
 13 17  1  0
 17 18  1  0
 17 19  1  0
 17 20  1  0
  5 21  1  0
 21 22  2  0
 21 23  1  0
 23 24  1  0
 24 25  1  0
 25 26  1  0
 25 27  1  0
 24 28  1  0
 28 29  2  0
 28 30  1  0
 30 31  1  0
 31 32  1  0
 32 33  1  0
 32 34  1  0
 31 35  1  0
 35 36  2  0
 35 37  1  0
 37 38  1  0
 38 39  1  0
 38 40  1  0
 40 41  2  0
 40 42  1  0
 42 43  1  0
 43 44  1  0
 43 45  1  0
 45 46  2  0
 45 47  1  0
 47 48  1  0
 48 49  1  0
 49 50  1  0
 49 51  1  0
 48 52  1  0
 52 53  1  0
 52 54  2  0
 15 10  1  0
  1 55  1  0
  1 56  1  0
  1 57  1  0
  2 58  1  0
  3 59  1  0
  3 60  1  0
  3 61  1  0
  4 62  1  0
  4 63  1  0
  5 64  1  1
  6 65  1  0
  9 66  1  0
 11 67  1  0
 12 68  1  0
 14 69  1  0
 23 70  1  0
 24 71  1  1
 25 72  1  0
 26 73  1  0
 26 74  1  0
 26 75  1  0
 27 76  1  0
 27 77  1  0
 27 78  1  0
 30 79  1  0
 31 80  1  1
 32 81  1  0
 33 82  1  0
 33 83  1  0
 33 84  1  0
 34 85  1  0
 34 86  1  0
 34 87  1  0
 37 88  1  0
 38 89  1  6
 39 90  1  0
 39 91  1  0
 39 92  1  0
 42 93  1  0
 43 94  1  1
 44 95  1  0
 44 96  1  0
 44 97  1  0
 47 98  1  0
 48 99  1  6
 49100  1  0
 50101  1  0
 50102  1  0
 50103  1  0
 51104  1  0
 51105  1  0
 51106  1  0
 53107  1  0
M  END
$$$$
[H]c1c([H])c(S(=O)(=O)N2C([H])([H])C([H])([H])C([H])(c3c([H])n([H])c4c([H])c([H])c(Cl)c([H])c34)C([H])([H])C2([H])[H])c([H])c([H])c1C(F)(F)F
     RDKit          3D

 47 50  0  0  0  0  0  0  0  0999 V2000
   -8.2441    0.0285    1.0382 F   0  0  0  0  0  0  0  0  0  0  0  0
   -7.5674    0.5994   -0.0256 C   0  0  0  0  0  0  0  0  0  0  0  0
   -8.1347    0.2736   -1.2305 F   0  0  0  0  0  0  0  0  0  0  0  0
   -7.5067    1.9416    0.1716 F   0  0  0  0  0  0  0  0  0  0  0  0
   -6.1494    0.1003   -0.0274 C   0  0  0  0  0  0  0  0  0  0  0  0
   -5.6832   -0.7694    0.9185 C   0  0  0  0  0  0  0  0  0  0  0  0
   -4.3356   -1.1771    0.8892 C   0  0  0  0  0  0  0  0  0  0  0  0
   -3.5018   -0.7183   -0.0685 C   0  0  0  0  0  0  0  0  0  0  0  0
   -3.9844    0.1648   -1.0355 C   0  0  0  0  0  0  0  0  0  0  0  0
   -5.2917    0.5749   -1.0216 C   0  0  0  0  0  0  0  0  0  0  0  0
   -1.8140   -1.1151   -0.1583 S   0  0  0  0  0  0  0  0  0  0  0  0
   -1.5132   -2.4336    0.5196 O   0  0  0  0  0  0  0  0  0  0  0  0
   -1.4234   -1.2812   -1.6394 O   0  0  0  0  0  0  0  0  0  0  0  0
   -0.9489    0.1868    0.4984 N   0  0  0  0  0  0  0  0  0  0  0  0
   -0.2184    0.0162    1.6777 C   0  0  0  0  0  0  0  0  0  0  0  0
    1.2659   -0.1836    1.5835 C   0  0  0  0  0  0  0  0  0  0  0  0
    1.8723    0.5665    0.4766 C   0  0  0  0  0  0  0  0  0  0  0  0
    1.0845    0.5198   -0.8062 C   0  0  0  0  0  0  0  0  0  0  0  0
   -0.3381    1.0109   -0.5013 C   0  0  0  0  0  0  0  0  0  0  0  0
    3.2828    0.7800    0.3961 C   0  0  0  0  0  0  0  0  0  0  0  0
    4.0353    1.8856    0.7646 C   0  0  0  0  0  0  0  0  0  0  0  0
    5.3036    1.7381    0.3394 N   0  0  0  0  0  0  0  0  0  0  0  0
    5.4456    0.5526   -0.3059 C   0  0  0  0  0  0  0  0  0  0  0  0
    6.5308   -0.0949   -0.8579 C   0  0  0  0  0  0  0  0  0  0  0  0
    6.3863   -1.3672   -1.3945 C   0  0  0  0  0  0  0  0  0  0  0  0
    5.1331   -1.9538   -1.3582 C   0  0  0  0  0  0  0  0  0  0  0  0
    4.9060   -3.5824   -2.0022 Cl  0  0  0  0  0  0  0  0  0  0  0  0
    4.0491   -1.2994   -0.8071 C   0  0  0  0  0  0  0  0  0  0  0  0
    4.2161   -0.0354   -0.2756 C   0  0  0  0  0  0  0  0  0  0  0  0
   -6.3217   -1.1456    1.6788 H   0  0  0  0  0  0  0  0  0  0  0  0
   -4.0090   -1.8881    1.6574 H   0  0  0  0  0  0  0  0  0  0  0  0
   -3.3756    0.5577   -1.8438 H   0  0  0  0  0  0  0  0  0  0  0  0
   -5.6766    1.2701   -1.7843 H   0  0  0  0  0  0  0  0  0  0  0  0
   -0.4472    0.8137    2.4527 H   0  0  0  0  0  0  0  0  0  0  0  0
   -0.6073   -0.9131    2.2128 H   0  0  0  0  0  0  0  0  0  0  0  0
    1.7286   -0.0111    2.5631 H   0  0  0  0  0  0  0  0  0  0  0  0
    1.3560   -1.2969    1.2925 H   0  0  0  0  0  0  0  0  0  0  0  0
    1.5132    1.6944    0.8161 H   0  0  0  0  0  0  0  0  0  0  0  0
    1.5248    1.3456   -1.4438 H   0  0  0  0  0  0  0  0  0  0  0  0
    1.1101   -0.4007   -1.3709 H   0  0  0  0  0  0  0  0  0  0  0  0
   -0.3252    2.0515   -0.1245 H   0  0  0  0  0  0  0  0  0  0  0  0
   -0.8995    1.0037   -1.4291 H   0  0  0  0  0  0  0  0  0  0  0  0
    3.6805    2.7774    1.2935 H   0  0  0  0  0  0  0  0  0  0  0  0
    6.0901    2.4149    0.4537 H   0  0  0  0  0  0  0  0  0  0  0  0
    7.4910    0.4046   -0.8722 H   0  0  0  0  0  0  0  0  0  0  0  0
    7.2438   -1.8819   -1.8072 H   0  0  0  0  0  0  0  0  0  0  0  0
    3.0676   -1.7244   -0.7767 H   0  0  0  0  0  0  0  0  0  0  0  0
  1  2  1  0
  2  3  1  0
  2  4  1  0
  2  5  1  0
  5  6  2  0
  6  7  1  0
  7  8  2  0
  8  9  1  0
  9 10  2  0
  8 11  1  0
 11 12  2  0
 11 13  2  0
 11 14  1  0
 14 15  1  0
 15 16  1  0
 16 17  1  0
 17 18  1  0
 18 19  1  0
 17 20  1  0
 20 21  2  0
 21 22  1  0
 22 23  1  0
 23 24  2  0
 24 25  1  0
 25 26  2  0
 26 27  1  0
 26 28  1  0
 28 29  2  0
 10  5  1  0
 19 14  1  0
 29 20  1  0
 29 23  1  0
  6 30  1  0
  7 31  1  0
  9 32  1  0
 10 33  1  0
 15 34  1  0
 15 35  1  0
 16 36  1  0
 16 37  1  0
 17 38  1  0
 18 39  1  0
 18 40  1  0
 19 41  1  0
 19 42  1  0
 21 43  1  0
 22 44  1  0
 24 45  1  0
 25 46  1  0
 28 47  1  0
M  END
$$$$
[H]OC(=O)[C@@]([H])(N([H])C(=O)[C@@]([H])(N([H])C(=O)[C@@]([H])(N([H])C(=O)[C@@]1([H])N(C(=O)[C@@]([H])(N([H])[H])C([H])([H])c2c([H])c([H])c(O[H])c([H])c2[H])C([H])([H])C([H])([H])C1([H])[H])C([H])([H])c1c([H])c([H])c([H])c([H])c1[H])C([H])([H])c1c([H])c([H])c([H])c([H])c1[H])C([H])([H])C([H])(C([H])([H])[H])C([H])([H])[H]
     RDKit          3D

 97100  0  0  0  0  0  0  0  0999 V2000
   -7.2487   -4.6820   -1.3113 C   0  0  0  0  0  0  0  0  0  0  0  0
   -6.0404   -3.7365   -1.3532 C   0  0  0  0  0  0  0  0  0  0  0  0
   -5.2228   -4.0944   -2.5679 C   0  0  0  0  0  0  0  0  0  0  0  0
   -6.5896   -2.3529   -1.3607 C   0  0  0  0  0  0  0  0  0  0  0  0
   -5.6140   -1.2376   -1.4046 C   0  0  2  0  0  0  0  0  0  0  0  0
   -4.6778   -1.1932   -0.3299 N   0  0  0  0  0  0  0  0  0  0  0  0
   -3.5200   -0.3944   -0.2940 C   0  0  0  0  0  0  0  0  0  0  0  0
   -3.3629    0.3655   -1.3099 O   0  0  0  0  0  0  0  0  0  0  0  0
   -2.4969   -0.3469    0.7527 C   0  0  2  0  0  0  0  0  0  0  0  0
   -2.8814   -0.5092    2.1612 C   0  0  0  0  0  0  0  0  0  0  0  0
   -3.7696    0.4679    2.7783 C   0  0  0  0  0  0  0  0  0  0  0  0
   -5.1130    0.3033    2.8415 C   0  0  0  0  0  0  0  0  0  0  0  0
   -5.9432    1.2502    3.4332 C   0  0  0  0  0  0  0  0  0  0  0  0
   -5.4103    2.4048    3.9833 C   0  0  0  0  0  0  0  0  0  0  0  0
   -4.0508    2.5417    3.9041 C   0  0  0  0  0  0  0  0  0  0  0  0
   -3.2151    1.6231    3.3263 C   0  0  0  0  0  0  0  0  0  0  0  0
   -1.6146    0.7986    0.5419 N   0  0  0  0  0  0  0  0  0  0  0  0
   -0.2831    0.7251    0.0671 C   0  0  0  0  0  0  0  0  0  0  0  0
    0.2132   -0.3771   -0.2034 O   0  0  0  0  0  0  0  0  0  0  0  0
    0.4887    2.0204   -0.0950 C   0  0  2  0  0  0  0  0  0  0  0  0
   -0.3678    2.8855   -0.9660 C   0  0  0  0  0  0  0  0  0  0  0  0
    0.1785    4.2234   -1.2418 C   0  0  0  0  0  0  0  0  0  0  0  0
    0.9839    4.4821   -2.3219 C   0  0  0  0  0  0  0  0  0  0  0  0
    1.4905    5.7702   -2.5605 C   0  0  0  0  0  0  0  0  0  0  0  0
    1.1804    6.7940   -1.7027 C   0  0  0  0  0  0  0  0  0  0  0  0
    0.3685    6.5662   -0.6018 C   0  0  0  0  0  0  0  0  0  0  0  0
   -0.1078    5.3093   -0.3971 C   0  0  0  0  0  0  0  0  0  0  0  0
    1.7808    1.7449   -0.6352 N   0  0  0  0  0  0  0  0  0  0  0  0
    2.9901    1.8240    0.0791 C   0  0  0  0  0  0  0  0  0  0  0  0
    2.8636    2.1584    1.3150 O   0  0  0  0  0  0  0  0  0  0  0  0
    4.2642    1.5703   -0.4734 C   0  0  2  0  0  0  0  0  0  0  0  0
    4.4496    0.8641   -1.7768 C   0  0  0  0  0  0  0  0  0  0  0  0
    5.9985    0.9757   -1.8965 C   0  0  0  0  0  0  0  0  0  0  0  0
    6.4928    1.4603   -0.5401 C   0  0  0  0  0  0  0  0  0  0  0  0
    5.3246    0.9692    0.2909 N   0  0  0  0  0  0  0  0  0  0  0  0
    5.5106    0.0864    1.3309 C   0  0  0  0  0  0  0  0  0  0  0  0
    6.7070    0.0114    1.8165 O   0  0  0  0  0  0  0  0  0  0  0  0
    4.5594   -0.8165    2.0014 C   0  0  1  0  0  0  0  0  0  0  0  0
    3.3680   -1.1328    1.2837 N   0  0  0  0  0  0  0  0  0  0  0  0
    5.1605   -2.1134    2.4702 C   0  0  0  0  0  0  0  0  0  0  0  0
    5.7406   -2.9537    1.3846 C   0  0  0  0  0  0  0  0  0  0  0  0
    4.8886   -3.7240    0.5864 C   0  0  0  0  0  0  0  0  0  0  0  0
    5.3991   -4.5423   -0.3893 C   0  0  0  0  0  0  0  0  0  0  0  0
    6.7556   -4.6552   -0.6389 C   0  0  0  0  0  0  0  0  0  0  0  0
    7.2557   -5.4900   -1.6322 O   0  0  0  0  0  0  0  0  0  0  0  0
    7.5824   -3.8909    0.1551 C   0  0  0  0  0  0  0  0  0  0  0  0
    7.0838   -3.0574    1.1467 C   0  0  0  0  0  0  0  0  0  0  0  0
   -6.4472    0.0314   -1.3348 C   0  0  0  0  0  0  0  0  0  0  0  0
   -7.4648    0.2952   -2.2422 O   0  0  0  0  0  0  0  0  0  0  0  0
   -6.2476    0.8839   -0.4586 O   0  0  0  0  0  0  0  0  0  0  0  0
   -7.2127   -5.4664   -2.0633 H   0  0  0  0  0  0  0  0  0  0  0  0
   -7.3211   -5.1612   -0.3046 H   0  0  0  0  0  0  0  0  0  0  0  0
   -8.2092   -4.1249   -1.4306 H   0  0  0  0  0  0  0  0  0  0  0  0
   -5.3847   -3.9343   -0.4643 H   0  0  0  0  0  0  0  0  0  0  0  0
   -5.7517   -3.8241   -3.5078 H   0  0  0  0  0  0  0  0  0  0  0  0
   -4.1975   -3.6695   -2.5274 H   0  0  0  0  0  0  0  0  0  0  0  0
   -5.1166   -5.2196   -2.5916 H   0  0  0  0  0  0  0  0  0  0  0  0
   -7.3637   -2.2123   -0.5503 H   0  0  0  0  0  0  0  0  0  0  0  0
   -7.2103   -2.2684   -2.3055 H   0  0  0  0  0  0  0  0  0  0  0  0
   -5.1416   -1.1671   -2.4194 H   0  0  0  0  0  0  0  0  0  0  0  0
   -4.8927   -1.8218    0.5032 H   0  0  0  0  0  0  0  0  0  0  0  0
   -1.7974   -1.2336    0.5226 H   0  0  0  0  0  0  0  0  0  0  0  0
   -1.9179   -0.4719    2.7643 H   0  0  0  0  0  0  0  0  0  0  0  0
   -3.2316   -1.5665    2.3586 H   0  0  0  0  0  0  0  0  0  0  0  0
   -5.6009   -0.5826    2.4353 H   0  0  0  0  0  0  0  0  0  0  0  0
   -7.0019    1.0860    3.4608 H   0  0  0  0  0  0  0  0  0  0  0  0
   -6.0720    3.1329    4.4393 H   0  0  0  0  0  0  0  0  0  0  0  0
   -3.6431    3.4515    4.3401 H   0  0  0  0  0  0  0  0  0  0  0  0
   -2.1344    1.7912    3.2963 H   0  0  0  0  0  0  0  0  0  0  0  0
   -2.0690    1.7268    0.7874 H   0  0  0  0  0  0  0  0  0  0  0  0
    0.6182    2.4065    0.9422 H   0  0  0  0  0  0  0  0  0  0  0  0
   -1.3887    3.0167   -0.5841 H   0  0  0  0  0  0  0  0  0  0  0  0
   -0.4697    2.3371   -1.9511 H   0  0  0  0  0  0  0  0  0  0  0  0
    1.2366    3.6914   -3.0003 H   0  0  0  0  0  0  0  0  0  0  0  0
    2.1274    5.9298   -3.4307 H   0  0  0  0  0  0  0  0  0  0  0  0
    1.5536    7.7991   -1.8565 H   0  0  0  0  0  0  0  0  0  0  0  0
    0.1039    7.3711    0.0984 H   0  0  0  0  0  0  0  0  0  0  0  0
   -0.7583    5.0470    0.4564 H   0  0  0  0  0  0  0  0  0  0  0  0
    1.8336    1.4630   -1.6512 H   0  0  0  0  0  0  0  0  0  0  0  0
    4.7194    2.6737   -0.6490 H   0  0  0  0  0  0  0  0  0  0  0  0
    4.1859   -0.2045   -1.6436 H   0  0  0  0  0  0  0  0  0  0  0  0
    3.9615    1.3113   -2.6410 H   0  0  0  0  0  0  0  0  0  0  0  0
    6.4278    0.0292   -2.2170 H   0  0  0  0  0  0  0  0  0  0  0  0
    6.1530    1.7914   -2.6276 H   0  0  0  0  0  0  0  0  0  0  0  0
    6.4785    2.5548   -0.4897 H   0  0  0  0  0  0  0  0  0  0  0  0
    7.4200    1.0262   -0.2078 H   0  0  0  0  0  0  0  0  0  0  0  0
    4.2194   -0.2884    2.9429 H   0  0  0  0  0  0  0  0  0  0  0  0
    3.4385   -1.3540    0.3000 H   0  0  0  0  0  0  0  0  0  0  0  0
    2.4752   -0.8875    1.6990 H   0  0  0  0  0  0  0  0  0  0  0  0
    5.9660   -1.8626    3.1885 H   0  0  0  0  0  0  0  0  0  0  0  0
    4.4256   -2.7197    3.0528 H   0  0  0  0  0  0  0  0  0  0  0  0
    3.8092   -3.6680    0.7494 H   0  0  0  0  0  0  0  0  0  0  0  0
    4.7656   -5.1559   -1.0313 H   0  0  0  0  0  0  0  0  0  0  0  0
    7.3683   -5.0869   -2.5527 H   0  0  0  0  0  0  0  0  0  0  0  0
    8.6556   -3.9872   -0.0508 H   0  0  0  0  0  0  0  0  0  0  0  0
    7.8326   -2.5047    1.7352 H   0  0  0  0  0  0  0  0  0  0  0  0
   -7.2784    0.7005   -3.1740 H   0  0  0  0  0  0  0  0  0  0  0  0
  1  2  1  0
  2  3  1  0
  2  4  1  0
  4  5  1  0
  5  6  1  0
  6  7  1  0
  7  8  2  0
  7  9  1  0
  9 10  1  0
 10 11  1  0
 11 12  2  0
 12 13  1  0
 13 14  2  0
 14 15  1  0
 15 16  2  0
  9 17  1  0
 17 18  1  0
 18 19  2  0
 18 20  1  0
 20 21  1  0
 21 22  1  0
 22 23  2  0
 23 24  1  0
 24 25  2  0
 25 26  1  0
 26 27  2  0
 20 28  1  0
 28 29  1  0
 29 30  2  0
 29 31  1  0
 31 32  1  0
 32 33  1  0
 33 34  1  0
 34 35  1  0
 35 36  1  0
 36 37  2  0
 36 38  1  0
 38 39  1  0
 38 40  1  0
 40 41  1  0
 41 42  2  0
 42 43  1  0
 43 44  2  0
 44 45  1  0
 44 46  1  0
 46 47  2  0
  5 48  1  0
 48 49  1  0
 48 50  2  0
 16 11  1  0
 27 22  1  0
 35 31  1  0
 47 41  1  0
  1 51  1  0
  1 52  1  0
  1 53  1  0
  2 54  1  0
  3 55  1  0
  3 56  1  0
  3 57  1  0
  4 58  1  0
  4 59  1  0
  5 60  1  6
  6 61  1  0
  9 62  1  6
 10 63  1  0
 10 64  1  0
 12 65  1  0
 13 66  1  0
 14 67  1  0
 15 68  1  0
 16 69  1  0
 17 70  1  0
 20 71  1  1
 21 72  1  0
 21 73  1  0
 23 74  1  0
 24 75  1  0
 25 76  1  0
 26 77  1  0
 27 78  1  0
 28 79  1  0
 31 80  1  6
 32 81  1  0
 32 82  1  0
 33 83  1  0
 33 84  1  0
 34 85  1  0
 34 86  1  0
 38 87  1  1
 39 88  1  0
 39 89  1  0
 40 90  1  0
 40 91  1  0
 42 92  1  0
 43 93  1  0
 45 94  1  0
 46 95  1  0
 47 96  1  0
 49 97  1  0
M  END
$$$$
[H]c1nc(N([H])c2c([H])c([H])c(N3C([H])([H])C([H])([H])C([H])([H])[C@]3([H])C#N)c([H])c2OC([H])([H])[H])nc(N([H])c2c([H])c([H])c([H])c([H])c2S(=O)(=O)C([H])(C([H])([H])[H])C([H])([H])[H])c1Cl
     RDKit          3D

 63 66  0  0  0  0  0  0  0  0999 V2000
   -3.0636   -3.0237    2.2457 C   0  0  0  0  0  0  0  0  0  0  0  0
   -2.3501   -2.1228    1.4523 O   0  0  0  0  0  0  0  0  0  0  0  0
   -2.9882   -1.1136    0.7517 C   0  0  0  0  0  0  0  0  0  0  0  0
   -4.3434   -1.0004    0.8410 C   0  0  0  0  0  0  0  0  0  0  0  0
   -5.0664   -0.0151    0.1700 C   0  0  0  0  0  0  0  0  0  0  0  0
   -4.2960    0.8316   -0.5885 C   0  0  0  0  0  0  0  0  0  0  0  0
   -2.9058    0.7367   -0.6966 C   0  0  0  0  0  0  0  0  0  0  0  0
   -2.2486   -0.2383   -0.0251 C   0  0  0  0  0  0  0  0  0  0  0  0
   -0.8693   -0.4172   -0.0665 N   0  0  0  0  0  0  0  0  0  0  0  0
    0.0523    0.3649   -0.7969 C   0  0  0  0  0  0  0  0  0  0  0  0
   -0.1858    1.4019   -1.5738 N   0  0  0  0  0  0  0  0  0  0  0  0
    0.7427    2.0912   -2.2328 C   0  0  0  0  0  0  0  0  0  0  0  0
    2.0459    1.7135   -2.1094 C   0  0  0  0  0  0  0  0  0  0  0  0
    3.2949    2.6146   -2.9757 Cl  0  0  0  0  0  0  0  0  0  0  0  0
    2.3722    0.6222   -1.3017 C   0  0  0  0  0  0  0  0  0  0  0  0
    3.7321    0.2739   -1.1979 N   0  0  0  0  0  0  0  0  0  0  0  0
    4.3597   -0.7580   -0.4845 C   0  0  0  0  0  0  0  0  0  0  0  0
    3.6470   -1.7360    0.1738 C   0  0  0  0  0  0  0  0  0  0  0  0
    4.2814   -2.7914    0.8593 C   0  0  0  0  0  0  0  0  0  0  0  0
    5.6501   -2.8227    0.8554 C   0  0  0  0  0  0  0  0  0  0  0  0
    6.3553   -1.8499    0.2011 C   0  0  0  0  0  0  0  0  0  0  0  0
    5.7379   -0.8195   -0.4674 C   0  0  0  0  0  0  0  0  0  0  0  0
    6.7525    0.3607   -1.2211 S   0  0  0  0  0  0  0  0  0  0  0  0
    8.2273   -0.0359   -1.0722 O   0  0  0  0  0  0  0  0  0  0  0  0
    6.5320    0.3650   -2.7197 O   0  0  0  0  0  0  0  0  0  0  0  0
    6.6032    1.9782   -0.5397 C   0  0  0  0  0  0  0  0  0  0  0  0
    7.0102    1.9405    0.9372 C   0  0  0  0  0  0  0  0  0  0  0  0
    7.6592    2.8704   -1.2070 C   0  0  0  0  0  0  0  0  0  0  0  0
    1.3737    0.0111   -0.6944 N   0  0  0  0  0  0  0  0  0  0  0  0
   -6.4687    0.0834    0.2772 N   0  0  0  0  0  0  0  0  0  0  0  0
   -7.2948    1.0578   -0.3769 C   0  0  0  0  0  0  0  0  0  0  0  0
   -8.3770    0.1453   -0.9757 C   0  0  0  0  0  0  0  0  0  0  0  0
   -8.5633   -0.8618    0.1192 C   0  0  0  0  0  0  0  0  0  0  0  0
   -7.3607   -0.7410    1.0415 C   0  0  2  0  0  0  0  0  0  0  0  0
   -7.8233   -0.0360    2.2366 C   0  0  0  0  0  0  0  0  0  0  0  0
   -8.1790    0.5164    3.1871 N   0  0  0  0  0  0  0  0  0  0  0  0
   -3.8310   -3.5140    1.5802 H   0  0  0  0  0  0  0  0  0  0  0  0
   -2.4352   -3.8141    2.6720 H   0  0  0  0  0  0  0  0  0  0  0  0
   -3.6542   -2.5365    3.0524 H   0  0  0  0  0  0  0  0  0  0  0  0
   -4.9265   -1.6906    1.4539 H   0  0  0  0  0  0  0  0  0  0  0  0
   -4.7891    1.6301   -1.1438 H   0  0  0  0  0  0  0  0  0  0  0  0
   -2.4381    1.4716   -1.3286 H   0  0  0  0  0  0  0  0  0  0  0  0
   -0.4796   -1.2328    0.5181 H   0  0  0  0  0  0  0  0  0  0  0  0
    0.4876    2.9310   -2.8539 H   0  0  0  0  0  0  0  0  0  0  0  0
    4.3983    0.8875   -1.7662 H   0  0  0  0  0  0  0  0  0  0  0  0
    2.5746   -1.7742    0.2120 H   0  0  0  0  0  0  0  0  0  0  0  0
    3.6746   -3.5297    1.3576 H   0  0  0  0  0  0  0  0  0  0  0  0
    6.1584   -3.6398    1.3853 H   0  0  0  0  0  0  0  0  0  0  0  0
    7.4489   -1.9305    0.2346 H   0  0  0  0  0  0  0  0  0  0  0  0
    5.6248    2.4349   -0.5806 H   0  0  0  0  0  0  0  0  0  0  0  0
    6.9490    2.9882    1.2898 H   0  0  0  0  0  0  0  0  0  0  0  0
    6.3010    1.3473    1.5306 H   0  0  0  0  0  0  0  0  0  0  0  0
    8.0601    1.5880    1.0445 H   0  0  0  0  0  0  0  0  0  0  0  0
    8.6500    2.7143   -0.7781 H   0  0  0  0  0  0  0  0  0  0  0  0
    7.6783    2.6659   -2.2854 H   0  0  0  0  0  0  0  0  0  0  0  0
    7.3186    3.9340   -1.0722 H   0  0  0  0  0  0  0  0  0  0  0  0
   -6.8074    1.6472   -1.1581 H   0  0  0  0  0  0  0  0  0  0  0  0
   -7.8108    1.7325    0.3632 H   0  0  0  0  0  0  0  0  0  0  0  0
   -7.8887   -0.3391   -1.8565 H   0  0  0  0  0  0  0  0  0  0  0  0
   -9.2810    0.7075   -1.2286 H   0  0  0  0  0  0  0  0  0  0  0  0
   -8.5601   -1.9138   -0.2779 H   0  0  0  0  0  0  0  0  0  0  0  0
   -9.5142   -0.6325    0.6311 H   0  0  0  0  0  0  0  0  0  0  0  0
   -6.9540   -1.7287    1.3168 H   0  0  0  0  0  0  0  0  0  0  0  0
  1  2  1  0
  2  3  1  0
  3  4  2  0
  4  5  1  0
  5  6  2  0
  6  7  1  0
  7  8  2  0
  8  9  1  0
  9 10  1  0
 10 11  2  0
 11 12  1  0
 12 13  2  0
 13 14  1  0
 13 15  1  0
 15 16  1  0
 16 17  1  0
 17 18  2  0
 18 19  1  0
 19 20  2  0
 20 21  1  0
 21 22  2  0
 22 23  1  0
 23 24  2  0
 23 25  2  0
 23 26  1  0
 26 27  1  0
 26 28  1  0
 15 29  2  0
  5 30  1  0
 30 31  1  0
 31 32  1  0
 32 33  1  0
 33 34  1  0
 34 35  1  0
 35 36  3  0
  8  3  1  0
 29 10  1  0
 34 30  1  0
 22 17  1  0
  1 37  1  0
  1 38  1  0
  1 39  1  0
  4 40  1  0
  6 41  1  0
  7 42  1  0
  9 43  1  0
 12 44  1  0
 16 45  1  0
 18 46  1  0
 19 47  1  0
 20 48  1  0
 21 49  1  0
 26 50  1  0
 27 51  1  0
 27 52  1  0
 27 53  1  0
 28 54  1  0
 28 55  1  0
 28 56  1  0
 31 57  1  0
 31 58  1  0
 32 59  1  0
 32 60  1  0
 33 61  1  0
 33 62  1  0
 34 63  1  1
M  END
$$$$
[H]c1nc(N([H])c2c([H])c([H])c(N3C([H])([H])C([H])([H])C(F)(F)C([H])([H])C3([H])[H])c([H])c2OC([H])([H])[H])nc(N([H])c2c([H])c([H])c([H])c([H])c2N(C([H])([H])[H])C([H])([H])[H])c1Cl
     RDKit          3D

 61 64  0  0  0  0  0  0  0  0999 V2000
    2.4748   -2.4046   -2.5662 C   0  0  0  0  0  0  0  0  0  0  0  0
    1.6584   -1.6589   -1.7039 O   0  0  0  0  0  0  0  0  0  0  0  0
    2.2595   -0.8050   -0.7791 C   0  0  0  0  0  0  0  0  0  0  0  0
    3.6205   -0.6834   -0.6993 C   0  0  0  0  0  0  0  0  0  0  0  0
    4.2712    0.1305    0.1793 C   0  0  0  0  0  0  0  0  0  0  0  0
    3.4927    0.8712    1.0343 C   0  0  0  0  0  0  0  0  0  0  0  0
    2.0900    0.7714    0.9804 C   0  0  0  0  0  0  0  0  0  0  0  0
    1.4404   -0.0533    0.0900 C   0  0  0  0  0  0  0  0  0  0  0  0
    0.0460   -0.1904   -0.0059 N   0  0  0  0  0  0  0  0  0  0  0  0
   -0.9859    0.4317    0.7279 C   0  0  0  0  0  0  0  0  0  0  0  0
   -0.7521    1.3047    1.6897 N   0  0  0  0  0  0  0  0  0  0  0  0
   -1.6865    1.9166    2.4079 C   0  0  0  0  0  0  0  0  0  0  0  0
   -3.0003    1.6203    2.1312 C   0  0  0  0  0  0  0  0  0  0  0  0
   -4.2255    2.4105    3.0600 Cl  0  0  0  0  0  0  0  0  0  0  0  0
   -3.2918    0.6857    1.1033 C   0  0  0  0  0  0  0  0  0  0  0  0
   -4.6522    0.4529    0.8771 N   0  0  0  0  0  0  0  0  0  0  0  0
   -5.2198   -0.4303   -0.0636 C   0  0  0  0  0  0  0  0  0  0  0  0
   -4.5232   -1.3634   -0.7903 C   0  0  0  0  0  0  0  0  0  0  0  0
   -5.1303   -2.2534   -1.6773 C   0  0  0  0  0  0  0  0  0  0  0  0
   -6.4854   -2.2210   -1.8542 C   0  0  0  0  0  0  0  0  0  0  0  0
   -7.1913   -1.2920   -1.1329 C   0  0  0  0  0  0  0  0  0  0  0  0
   -6.6217   -0.4045   -0.2550 C   0  0  0  0  0  0  0  0  0  0  0  0
   -7.3762    0.5613    0.4455 N   0  0  0  0  0  0  0  0  0  0  0  0
   -7.2682    1.9867    0.1086 C   0  0  0  0  0  0  0  0  0  0  0  0
   -8.2797    0.1858    1.5162 C   0  0  0  0  0  0  0  0  0  0  0  0
   -2.2729    0.1410    0.4564 N   0  0  0  0  0  0  0  0  0  0  0  0
    5.7187    0.2370    0.2417 N   0  0  0  0  0  0  0  0  0  0  0  0
    6.4308   -0.6246   -0.6422 C   0  0  0  0  0  0  0  0  0  0  0  0
    7.9112   -0.6473   -0.5483 C   0  0  0  0  0  0  0  0  0  0  0  0
    8.4140    0.6950   -0.1028 C   0  0  0  0  0  0  0  0  0  0  0  0
    9.7764    0.6585   -0.0349 F   0  0  0  0  0  0  0  0  0  0  0  0
    7.9958    1.6338   -1.0207 F   0  0  0  0  0  0  0  0  0  0  0  0
    7.8145    0.9553    1.2696 C   0  0  0  0  0  0  0  0  0  0  0  0
    6.3436    1.1561    1.1341 C   0  0  0  0  0  0  0  0  0  0  0  0
    3.0833   -1.7906   -3.2402 H   0  0  0  0  0  0  0  0  0  0  0  0
    1.8148   -3.0440   -3.2205 H   0  0  0  0  0  0  0  0  0  0  0  0
    3.1349   -3.1314   -2.0221 H   0  0  0  0  0  0  0  0  0  0  0  0
    4.2010   -1.2825   -1.3926 H   0  0  0  0  0  0  0  0  0  0  0  0
    3.8951    1.5400    1.7606 H   0  0  0  0  0  0  0  0  0  0  0  0
    1.5325    1.3785    1.6780 H   0  0  0  0  0  0  0  0  0  0  0  0
   -0.2796   -0.8950   -0.7764 H   0  0  0  0  0  0  0  0  0  0  0  0
   -1.3850    2.6162    3.1740 H   0  0  0  0  0  0  0  0  0  0  0  0
   -5.3405    0.9914    1.4962 H   0  0  0  0  0  0  0  0  0  0  0  0
   -3.4385   -1.4608   -0.6982 H   0  0  0  0  0  0  0  0  0  0  0  0
   -4.5557   -2.9822   -2.2407 H   0  0  0  0  0  0  0  0  0  0  0  0
   -6.9852   -2.9135   -2.5479 H   0  0  0  0  0  0  0  0  0  0  0  0
   -8.2851   -1.2333   -1.2466 H   0  0  0  0  0  0  0  0  0  0  0  0
   -7.1721    2.5926    1.0490 H   0  0  0  0  0  0  0  0  0  0  0  0
   -8.2021    2.3552   -0.3763 H   0  0  0  0  0  0  0  0  0  0  0  0
   -6.3700    2.1792   -0.4849 H   0  0  0  0  0  0  0  0  0  0  0  0
   -8.1605    0.9624    2.3174 H   0  0  0  0  0  0  0  0  0  0  0  0
   -8.0720   -0.8287    1.9017 H   0  0  0  0  0  0  0  0  0  0  0  0
   -9.3211    0.1987    1.1312 H   0  0  0  0  0  0  0  0  0  0  0  0
    6.1337   -0.2950   -1.6904 H   0  0  0  0  0  0  0  0  0  0  0  0
    6.0096   -1.6768   -0.5984 H   0  0  0  0  0  0  0  0  0  0  0  0
    8.2470   -1.4725    0.1146 H   0  0  0  0  0  0  0  0  0  0  0  0
    8.3121   -0.8606   -1.5700 H   0  0  0  0  0  0  0  0  0  0  0  0
    8.0132    0.0660    1.8775 H   0  0  0  0  0  0  0  0  0  0  0  0
    8.3197    1.8516    1.6661 H   0  0  0  0  0  0  0  0  0  0  0  0
    6.2185    2.1781    0.6544 H   0  0  0  0  0  0  0  0  0  0  0  0
    5.8570    1.1829    2.1404 H   0  0  0  0  0  0  0  0  0  0  0  0
  1  2  1  0
  2  3  1  0
  3  4  2  0
  4  5  1  0
  5  6  2  0
  6  7  1  0
  7  8  2  0
  8  9  1  0
  9 10  1  0
 10 11  2  0
 11 12  1  0
 12 13  2  0
 13 14  1  0
 13 15  1  0
 15 16  1  0
 16 17  1  0
 17 18  2  0
 18 19  1  0
 19 20  2  0
 20 21  1  0
 21 22  2  0
 22 23  1  0
 23 24  1  0
 23 25  1  0
 15 26  2  0
  5 27  1  0
 27 28  1  0
 28 29  1  0
 29 30  1  0
 30 31  1  0
 30 32  1  0
 30 33  1  0
 33 34  1  0
  8  3  1  0
 26 10  1  0
 34 27  1  0
 22 17  1  0
  1 35  1  0
  1 36  1  0
  1 37  1  0
  4 38  1  0
  6 39  1  0
  7 40  1  0
  9 41  1  0
 12 42  1  0
 16 43  1  0
 18 44  1  0
 19 45  1  0
 20 46  1  0
 21 47  1  0
 24 48  1  0
 24 49  1  0
 24 50  1  0
 25 51  1  0
 25 52  1  0
 25 53  1  0
 28 54  1  0
 28 55  1  0
 29 56  1  0
 29 57  1  0
 33 58  1  0
 33 59  1  0
 34 60  1  0
 34 61  1  0
M  END
$$$$
[H]c1c([H])c([H])c([C@]2([H])N(C(=O)N([H])c3c([H])c([H])c(Cl)c(C(F)(F)F)c3[H])C([H])([H])[C@]([H])(C([H])([H])[H])C2([H])[H])c([H])c1[H]
     RDKit          3D

 44 46  0  0  0  0  0  0  0  0999 V2000
   -2.8683    3.1860    0.5822 C   0  0  0  0  0  0  0  0  0  0  0  0
   -2.0395    2.6042   -0.5630 C   0  0  2  0  0  0  0  0  0  0  0  0
   -2.7955    1.5874   -1.3556 C   0  0  0  0  0  0  0  0  0  0  0  0
   -2.0357    0.2760   -1.2242 C   0  0  1  0  0  0  0  0  0  0  0  0
   -0.7707    0.6067   -0.6353 N   0  0  0  0  0  0  0  0  0  0  0  0
   -0.8230    1.9086   -0.0072 C   0  0  0  0  0  0  0  0  0  0  0  0
    0.3923   -0.2197   -0.6547 C   0  0  0  0  0  0  0  0  0  0  0  0
    0.2749   -1.3121   -1.2361 O   0  0  0  0  0  0  0  0  0  0  0  0
    1.5858    0.2266   -0.0326 N   0  0  0  0  0  0  0  0  0  0  0  0
    2.7902   -0.4632    0.0345 C   0  0  0  0  0  0  0  0  0  0  0  0
    2.9470   -1.7577   -0.3208 C   0  0  0  0  0  0  0  0  0  0  0  0
    4.2052   -2.3735   -0.2336 C   0  0  0  0  0  0  0  0  0  0  0  0
    5.3013   -1.6751    0.2141 C   0  0  0  0  0  0  0  0  0  0  0  0
    6.8711   -2.4852    0.3103 Cl  0  0  0  0  0  0  0  0  0  0  0  0
    5.1656   -0.3724    0.5768 C   0  0  0  0  0  0  0  0  0  0  0  0
    3.9264    0.2076    0.4827 C   0  0  0  0  0  0  0  0  0  0  0  0
    6.3406    0.3970    1.0631 C   0  0  0  0  0  0  0  0  0  0  0  0
    7.3002    0.4172    0.0665 F   0  0  0  0  0  0  0  0  0  0  0  0
    5.9702    1.6968    1.3477 F   0  0  0  0  0  0  0  0  0  0  0  0
    6.8657   -0.2487    2.1604 F   0  0  0  0  0  0  0  0  0  0  0  0
   -2.8021   -0.7106   -0.4225 C   0  0  0  0  0  0  0  0  0  0  0  0
   -2.9322   -0.6218    0.9430 C   0  0  0  0  0  0  0  0  0  0  0  0
   -3.6509   -1.5532    1.6604 C   0  0  0  0  0  0  0  0  0  0  0  0
   -4.2646   -2.6089    1.0226 C   0  0  0  0  0  0  0  0  0  0  0  0
   -4.1498   -2.7216   -0.3473 C   0  0  0  0  0  0  0  0  0  0  0  0
   -3.4251   -1.7751   -1.0355 C   0  0  0  0  0  0  0  0  0  0  0  0
   -3.4669    4.0531    0.2103 H   0  0  0  0  0  0  0  0  0  0  0  0
   -3.5559    2.4645    1.0185 H   0  0  0  0  0  0  0  0  0  0  0  0
   -2.1319    3.5746    1.3439 H   0  0  0  0  0  0  0  0  0  0  0  0
   -1.7612    3.5009   -1.1916 H   0  0  0  0  0  0  0  0  0  0  0  0
   -3.8524    1.4728   -1.0223 H   0  0  0  0  0  0  0  0  0  0  0  0
   -2.8286    1.9328   -2.4093 H   0  0  0  0  0  0  0  0  0  0  0  0
   -1.9441   -0.1315   -2.2518 H   0  0  0  0  0  0  0  0  0  0  0  0
   -0.8085    1.8663    1.0941 H   0  0  0  0  0  0  0  0  0  0  0  0
    0.0671    2.5368   -0.2920 H   0  0  0  0  0  0  0  0  0  0  0  0
    1.5594    1.1974    0.4399 H   0  0  0  0  0  0  0  0  0  0  0  0
    2.1728   -2.4129   -0.6766 H   0  0  0  0  0  0  0  0  0  0  0  0
    4.3546   -3.4040   -0.5113 H   0  0  0  0  0  0  0  0  0  0  0  0
    3.8770    1.2643    0.7900 H   0  0  0  0  0  0  0  0  0  0  0  0
   -2.4725    0.1813    1.4798 H   0  0  0  0  0  0  0  0  0  0  0  0
   -3.7683   -1.5058    2.7354 H   0  0  0  0  0  0  0  0  0  0  0  0
   -4.8372   -3.3627    1.5378 H   0  0  0  0  0  0  0  0  0  0  0  0
   -4.6357   -3.5619   -0.8738 H   0  0  0  0  0  0  0  0  0  0  0  0
   -3.3468   -1.8813   -2.1104 H   0  0  0  0  0  0  0  0  0  0  0  0
  1  2  1  0
  2  3  1  0
  3  4  1  0
  4  5  1  0
  5  6  1  0
  5  7  1  0
  7  8  2  0
  7  9  1  0
  9 10  1  0
 10 11  2  0
 11 12  1  0
 12 13  2  0
 13 14  1  0
 13 15  1  0
 15 16  2  0
 15 17  1  0
 17 18  1  0
 17 19  1  0
 17 20  1  0
  4 21  1  0
 21 22  2  0
 22 23  1  0
 23 24  2  0
 24 25  1  0
 25 26  2  0
  6  2  1  0
 16 10  1  0
 26 21  1  0
  1 27  1  0
  1 28  1  0
  1 29  1  0
  2 30  1  6
  3 31  1  0
  3 32  1  0
  4 33  1  6
  6 34  1  0
  6 35  1  0
  9 36  1  0
 11 37  1  0
 12 38  1  0
 16 39  1  0
 22 40  1  0
 23 41  1  0
 24 42  1  0
 25 43  1  0
 26 44  1  0
M  END
$$$$
[H]c1nc(N([H])[H])c2c(-c3sc4c(OC([H])([H])[H])c([H])c(C([H])([H])[H])c([H])c4c3[H])c(C([H])([H])N3C([H])([H])C([H])([H])N(C([H])([H])[H])C([H])([H])C3([H])[H])c([H])n2n1
     RDKit          3D

 56 60  0  0  0  0  0  0  0  0999 V2000
   -6.9487   -0.9617   -0.8879 C   0  0  0  0  0  0  0  0  0  0  0  0
   -5.6559   -0.4797   -0.7104 O   0  0  0  0  0  0  0  0  0  0  0  0
   -4.6483   -1.1475   -0.0404 C   0  0  0  0  0  0  0  0  0  0  0  0
   -4.7850   -2.3837    0.5448 C   0  0  0  0  0  0  0  0  0  0  0  0
   -3.6674   -2.8939    1.1706 C   0  0  0  0  0  0  0  0  0  0  0  0
   -3.7829   -4.2371    1.8192 C   0  0  0  0  0  0  0  0  0  0  0  0
   -2.4885   -2.2332    1.2197 C   0  0  0  0  0  0  0  0  0  0  0  0
   -2.3135   -0.9635    0.6300 C   0  0  0  0  0  0  0  0  0  0  0  0
   -1.1982   -0.2084    0.6109 C   0  0  0  0  0  0  0  0  0  0  0  0
   -1.2592    1.0159   -0.0348 C   0  0  0  0  0  0  0  0  0  0  0  0
   -2.8766    1.0303   -0.5703 S   0  0  0  0  0  0  0  0  0  0  0  0
   -3.4206   -0.4662    0.0143 C   0  0  0  0  0  0  0  0  0  0  0  0
   -0.1704    2.0127   -0.1041 C   0  0  0  0  0  0  0  0  0  0  0  0
    1.1760    1.7423   -0.3691 C   0  0  0  0  0  0  0  0  0  0  0  0
    1.6831    0.4294   -0.7671 C   0  0  0  0  0  0  0  0  0  0  0  0
    3.1427    0.3996   -0.9751 N   0  0  0  0  0  0  0  0  0  0  0  0
    3.7690    0.5786    0.2924 C   0  0  0  0  0  0  0  0  0  0  0  0
    4.4812   -0.6733    0.7714 C   0  0  0  0  0  0  0  0  0  0  0  0
    5.4315   -1.1645   -0.1693 N   0  0  0  0  0  0  0  0  0  0  0  0
    5.9084   -2.4539    0.2954 C   0  0  0  0  0  0  0  0  0  0  0  0
    4.8275   -1.3339   -1.4478 C   0  0  0  0  0  0  0  0  0  0  0  0
    3.4140   -0.8958   -1.5702 C   0  0  0  0  0  0  0  0  0  0  0  0
    1.8983    2.8889   -0.2760 C   0  0  0  0  0  0  0  0  0  0  0  0
    1.0335    3.8712    0.0413 N   0  0  0  0  0  0  0  0  0  0  0  0
    1.3280    5.1303    0.2336 N   0  0  0  0  0  0  0  0  0  0  0  0
    0.3408    5.9783    0.5605 C   0  0  0  0  0  0  0  0  0  0  0  0
   -0.9222    5.5555    0.6905 N   0  0  0  0  0  0  0  0  0  0  0  0
   -1.2218    4.2530    0.4906 C   0  0  0  0  0  0  0  0  0  0  0  0
   -2.5617    3.8187    0.6787 N   0  0  0  0  0  0  0  0  0  0  0  0
   -0.2343    3.3657    0.1533 C   0  0  0  0  0  0  0  0  0  0  0  0
   -7.1008   -1.5103   -1.8351 H   0  0  0  0  0  0  0  0  0  0  0  0
   -7.2461   -1.5822   -0.0082 H   0  0  0  0  0  0  0  0  0  0  0  0
   -7.6464   -0.0816   -0.8972 H   0  0  0  0  0  0  0  0  0  0  0  0
   -5.7265   -2.8730    0.4860 H   0  0  0  0  0  0  0  0  0  0  0  0
   -4.7689   -4.3611    2.3088 H   0  0  0  0  0  0  0  0  0  0  0  0
   -3.5615   -5.0254    1.0758 H   0  0  0  0  0  0  0  0  0  0  0  0
   -3.0020   -4.2883    2.6027 H   0  0  0  0  0  0  0  0  0  0  0  0
   -1.6731   -2.7256    1.7370 H   0  0  0  0  0  0  0  0  0  0  0  0
   -0.2532   -0.5191    1.1231 H   0  0  0  0  0  0  0  0  0  0  0  0
    1.4869   -0.4104   -0.1191 H   0  0  0  0  0  0  0  0  0  0  0  0
    1.1754    0.1770   -1.7483 H   0  0  0  0  0  0  0  0  0  0  0  0
    4.5563    1.3527    0.1980 H   0  0  0  0  0  0  0  0  0  0  0  0
    3.0466    0.9317    1.0504 H   0  0  0  0  0  0  0  0  0  0  0  0
    3.6981   -1.4381    0.9263 H   0  0  0  0  0  0  0  0  0  0  0  0
    4.9880   -0.5121    1.7369 H   0  0  0  0  0  0  0  0  0  0  0  0
    5.9481   -3.1588   -0.5346 H   0  0  0  0  0  0  0  0  0  0  0  0
    6.8923   -2.3031    0.7935 H   0  0  0  0  0  0  0  0  0  0  0  0
    5.2449   -2.8862    1.0884 H   0  0  0  0  0  0  0  0  0  0  0  0
    4.8634   -2.4113   -1.7777 H   0  0  0  0  0  0  0  0  0  0  0  0
    5.4362   -0.7913   -2.2176 H   0  0  0  0  0  0  0  0  0  0  0  0
    2.7280   -1.6504   -1.1295 H   0  0  0  0  0  0  0  0  0  0  0  0
    3.1550   -0.8132   -2.6462 H   0  0  0  0  0  0  0  0  0  0  0  0
    2.9664    2.9683   -0.4401 H   0  0  0  0  0  0  0  0  0  0  0  0
    0.6349    7.0284    0.7120 H   0  0  0  0  0  0  0  0  0  0  0  0
   -2.7938    3.2828    1.5423 H   0  0  0  0  0  0  0  0  0  0  0  0
   -3.3268    4.0263    0.0047 H   0  0  0  0  0  0  0  0  0  0  0  0
  1  2  1  0
  2  3  1  0
  3  4  2  0
  4  5  1  0
  5  6  1  0
  5  7  2  0
  7  8  1  0
  8  9  1  0
  9 10  2  0
 10 11  1  0
 11 12  1  0
 10 13  1  0
 13 14  1  0
 14 15  1  0
 15 16  1  0
 16 17  1  0
 17 18  1  0
 18 19  1  0
 19 20  1  0
 19 21  1  0
 21 22  1  0
 14 23  2  0
 23 24  1  0
 24 25  1  0
 25 26  2  0
 26 27  1  0
 27 28  2  0
 28 29  1  0
 28 30  1  0
 12  3  1  0
 30 13  2  0
 12  8  2  0
 22 16  1  0
 30 24  1  0
  1 31  1  0
  1 32  1  0
  1 33  1  0
  4 34  1  0
  6 35  1  0
  6 36  1  0
  6 37  1  0
  7 38  1  0
  9 39  1  0
 15 40  1  0
 15 41  1  0
 17 42  1  0
 17 43  1  0
 18 44  1  0
 18 45  1  0
 20 46  1  0
 20 47  1  0
 20 48  1  0
 21 49  1  0
 21 50  1  0
 22 51  1  0
 22 52  1  0
 23 53  1  0
 26 54  1  0
 29 55  1  0
 29 56  1  0
M  END
$$$$
[H]c1c([H])c([H])c(S(=O)(=O)N2C([H])([H])C([H])([H])N(C(=O)c3c([H])c([H])c(C(F)(F)F)c([H])c3[H])[C@]([H])(C([H])([H])[H])C2([H])[H])c([H])c1[H]
     RDKit          3D

 47 49  0  0  0  0  0  0  0  0999 V2000
   -0.5458    1.3201   -2.0195 C   0  0  0  0  0  0  0  0  0  0  0  0
   -0.4403   -0.0045   -1.3083 C   0  0  2  0  0  0  0  0  0  0  0  0
   -1.5538    0.0866   -0.1997 C   0  0  0  0  0  0  0  0  0  0  0  0
   -1.7943   -1.3217    0.1061 N   0  0  0  0  0  0  0  0  0  0  0  0
   -0.5500   -1.8905    0.6172 C   0  0  0  0  0  0  0  0  0  0  0  0
    0.5784   -0.8479    0.7252 C   0  0  0  0  0  0  0  0  0  0  0  0
    0.7648   -0.2069   -0.5486 N   0  0  0  0  0  0  0  0  0  0  0  0
    2.0221    0.0837   -1.0630 C   0  0  0  0  0  0  0  0  0  0  0  0
    2.0216    0.3776   -2.3248 O   0  0  0  0  0  0  0  0  0  0  0  0
    3.3151    0.1213   -0.4269 C   0  0  0  0  0  0  0  0  0  0  0  0
    4.4407    0.2495   -1.2283 C   0  0  0  0  0  0  0  0  0  0  0  0
    5.7247    0.4302   -0.7210 C   0  0  0  0  0  0  0  0  0  0  0  0
    5.9136    0.4945    0.6392 C   0  0  0  0  0  0  0  0  0  0  0  0
    4.8195    0.3695    1.4335 C   0  0  0  0  0  0  0  0  0  0  0  0
    3.5291    0.1835    0.9235 C   0  0  0  0  0  0  0  0  0  0  0  0
    7.2969    0.7859    1.1626 C   0  0  0  0  0  0  0  0  0  0  0  0
    7.7557    1.9692    0.5321 F   0  0  0  0  0  0  0  0  0  0  0  0
    7.1698    1.1255    2.5061 F   0  0  0  0  0  0  0  0  0  0  0  0
    8.2087   -0.2030    0.9241 F   0  0  0  0  0  0  0  0  0  0  0  0
   -3.0653   -1.4118    1.3019 S   0  0  0  0  0  0  0  0  0  0  0  0
   -2.6885   -0.7915    2.5890 O   0  0  0  0  0  0  0  0  0  0  0  0
   -3.3754   -2.8576    1.5075 O   0  0  0  0  0  0  0  0  0  0  0  0
   -4.4725   -0.6363    0.5870 C   0  0  0  0  0  0  0  0  0  0  0  0
   -5.2635   -1.2048   -0.3652 C   0  0  0  0  0  0  0  0  0  0  0  0
   -6.3337   -0.5163   -0.9290 C   0  0  0  0  0  0  0  0  0  0  0  0
   -6.5763    0.7716   -0.4969 C   0  0  0  0  0  0  0  0  0  0  0  0
   -5.7921    1.3895    0.4769 C   0  0  0  0  0  0  0  0  0  0  0  0
   -4.7572    0.6663    0.9964 C   0  0  0  0  0  0  0  0  0  0  0  0
   -1.5758    1.3143   -2.4955 H   0  0  0  0  0  0  0  0  0  0  0  0
    0.1549    1.4967   -2.8190 H   0  0  0  0  0  0  0  0  0  0  0  0
   -0.6156    2.1237   -1.2375 H   0  0  0  0  0  0  0  0  0  0  0  0
   -0.7181   -0.8505   -1.9206 H   0  0  0  0  0  0  0  0  0  0  0  0
   -2.4097    0.5064   -0.7137 H   0  0  0  0  0  0  0  0  0  0  0  0
   -1.2144    0.6782    0.6403 H   0  0  0  0  0  0  0  0  0  0  0  0
   -0.6812   -2.3706    1.6030 H   0  0  0  0  0  0  0  0  0  0  0  0
   -0.2255   -2.6635   -0.0686 H   0  0  0  0  0  0  0  0  0  0  0  0
    1.4600   -1.5198    0.9668 H   0  0  0  0  0  0  0  0  0  0  0  0
    0.3883   -0.1642    1.5486 H   0  0  0  0  0  0  0  0  0  0  0  0
    4.3500    0.2034   -2.3211 H   0  0  0  0  0  0  0  0  0  0  0  0
    6.5917    0.5252   -1.3611 H   0  0  0  0  0  0  0  0  0  0  0  0
    4.9737    0.4111    2.5025 H   0  0  0  0  0  0  0  0  0  0  0  0
    2.7324    0.1253    1.6183 H   0  0  0  0  0  0  0  0  0  0  0  0
   -5.0593   -2.2272   -0.7009 H   0  0  0  0  0  0  0  0  0  0  0  0
   -6.9635   -0.9787   -1.6825 H   0  0  0  0  0  0  0  0  0  0  0  0
   -7.4088    1.3358   -0.9084 H   0  0  0  0  0  0  0  0  0  0  0  0
   -6.0313    2.4133    0.7870 H   0  0  0  0  0  0  0  0  0  0  0  0
   -4.0999    1.1095    1.7567 H   0  0  0  0  0  0  0  0  0  0  0  0
  1  2  1  0
  2  3  1  0
  3  4  1  0
  4  5  1  0
  5  6  1  0
  6  7  1  0
  7  8  1  0
  8  9  2  0
  8 10  1  0
 10 11  2  0
 11 12  1  0
 12 13  2  0
 13 14  1  0
 14 15  2  0
 13 16  1  0
 16 17  1  0
 16 18  1  0
 16 19  1  0
  4 20  1  0
 20 21  2  0
 20 22  2  0
 20 23  1  0
 23 24  2  0
 24 25  1  0
 25 26  2  0
 26 27  1  0
 27 28  2  0
  7  2  1  0
 15 10  1  0
 28 23  1  0
  1 29  1  0
  1 30  1  0
  1 31  1  0
  2 32  1  6
  3 33  1  0
  3 34  1  0
  5 35  1  0
  5 36  1  0
  6 37  1  0
  6 38  1  0
 11 39  1  0
 12 40  1  0
 14 41  1  0
 15 42  1  0
 24 43  1  0
 25 44  1  0
 26 45  1  0
 27 46  1  0
 28 47  1  0
M  END
$$$$
[H]c1c(C(=O)N([H])c2c([H])c([H])c(C(F)(F)F)c([H])c2[H])nc(C(F)(F)F)nc1N1C([H])([H])C([H])([H])N(S(=O)(=O)N2C([H])([H])C([H])([H])OC([H])([H])C2([H])[H])C([H])([H])[C@@]1([H])C([H])([H])[H]
     RDKit          3D

 63 66  0  0  0  0  0  0  0  0999 V2000
   -0.7380   -1.2842   -0.2019 C   0  0  0  0  0  0  0  0  0  0  0  0
   -1.5282   -0.1319    0.3007 C   0  0  2  0  0  0  0  0  0  0  0  0
   -2.8483    0.0466   -0.5047 C   0  0  0  0  0  0  0  0  0  0  0  0
   -3.6361    0.9688    0.1865 N   0  0  0  0  0  0  0  0  0  0  0  0
   -3.0125    1.6863    1.2410 C   0  0  0  0  0  0  0  0  0  0  0  0
   -1.6941    2.2545    0.8014 C   0  0  0  0  0  0  0  0  0  0  0  0
   -0.8900    1.1640    0.2044 N   0  0  0  0  0  0  0  0  0  0  0  0
    0.3630    1.4355   -0.3664 C   0  0  0  0  0  0  0  0  0  0  0  0
    1.4803    0.7404    0.0069 C   0  0  0  0  0  0  0  0  0  0  0  0
    2.7200    0.9710   -0.5616 C   0  0  0  0  0  0  0  0  0  0  0  0
    2.7914    1.9198   -1.5093 N   0  0  0  0  0  0  0  0  0  0  0  0
    1.7125    2.6248   -1.8999 C   0  0  0  0  0  0  0  0  0  0  0  0
    0.5319    2.3754   -1.3306 N   0  0  0  0  0  0  0  0  0  0  0  0
    1.8966    3.6664   -2.9426 C   0  0  0  0  0  0  0  0  0  0  0  0
    0.8909    3.6396   -3.8853 F   0  0  0  0  0  0  0  0  0  0  0  0
    3.1103    3.5465   -3.5834 F   0  0  0  0  0  0  0  0  0  0  0  0
    1.9148    4.9213   -2.3420 F   0  0  0  0  0  0  0  0  0  0  0  0
    3.8709    0.2387   -0.0985 C   0  0  0  0  0  0  0  0  0  0  0  0
    3.7385   -0.4755    0.9191 O   0  0  0  0  0  0  0  0  0  0  0  0
    5.0934    0.3577   -0.8046 N   0  0  0  0  0  0  0  0  0  0  0  0
    6.2281   -0.3390   -0.3328 C   0  0  0  0  0  0  0  0  0  0  0  0
    7.0814   -1.0311   -1.1709 C   0  0  0  0  0  0  0  0  0  0  0  0
    8.1949   -1.6576   -0.6291 C   0  0  0  0  0  0  0  0  0  0  0  0
    8.5039   -1.6315    0.7157 C   0  0  0  0  0  0  0  0  0  0  0  0
    7.6536   -0.9445    1.5419 C   0  0  0  0  0  0  0  0  0  0  0  0
    6.5250   -0.3040    1.0144 C   0  0  0  0  0  0  0  0  0  0  0  0
    9.7104   -2.3191    1.2435 C   0  0  0  0  0  0  0  0  0  0  0  0
    9.2295   -3.3652    2.0341 F   0  0  0  0  0  0  0  0  0  0  0  0
   10.3429   -1.4176    2.0787 F   0  0  0  0  0  0  0  0  0  0  0  0
   10.5045   -2.8097    0.2552 F   0  0  0  0  0  0  0  0  0  0  0  0
   -5.3076    0.8904    0.1558 S   0  0  0  0  0  0  0  0  0  0  0  0
   -5.7436    1.0713   -1.3132 O   0  0  0  0  0  0  0  0  0  0  0  0
   -5.8163    2.1916    0.8031 O   0  0  0  0  0  0  0  0  0  0  0  0
   -6.0831   -0.4445    0.7506 N   0  0  0  0  0  0  0  0  0  0  0  0
   -5.9297   -1.7258    0.2299 C   0  0  0  0  0  0  0  0  0  0  0  0
   -7.2754   -2.4166   -0.0311 C   0  0  0  0  0  0  0  0  0  0  0  0
   -8.1415   -2.3191    1.0291 O   0  0  0  0  0  0  0  0  0  0  0  0
   -8.3139   -1.0535    1.5399 C   0  0  0  0  0  0  0  0  0  0  0  0
   -7.0000   -0.3379    1.8201 C   0  0  0  0  0  0  0  0  0  0  0  0
   -0.1948   -1.7551    0.6712 H   0  0  0  0  0  0  0  0  0  0  0  0
   -1.4762   -2.0941   -0.5022 H   0  0  0  0  0  0  0  0  0  0  0  0
   -0.0890   -1.0934   -1.0576 H   0  0  0  0  0  0  0  0  0  0  0  0
   -1.8165   -0.2895    1.3709 H   0  0  0  0  0  0  0  0  0  0  0  0
   -3.2591   -0.9012   -0.8180 H   0  0  0  0  0  0  0  0  0  0  0  0
   -2.4802    0.5543   -1.4517 H   0  0  0  0  0  0  0  0  0  0  0  0
   -2.9701    1.1440    2.2022 H   0  0  0  0  0  0  0  0  0  0  0  0
   -3.6843    2.5772    1.4541 H   0  0  0  0  0  0  0  0  0  0  0  0
   -1.8331    3.0398    0.0615 H   0  0  0  0  0  0  0  0  0  0  0  0
   -1.0715    2.5625    1.6916 H   0  0  0  0  0  0  0  0  0  0  0  0
    1.4066   -0.0195    0.7797 H   0  0  0  0  0  0  0  0  0  0  0  0
    5.1211    0.9581   -1.6537 H   0  0  0  0  0  0  0  0  0  0  0  0
    6.8288   -1.0438   -2.2063 H   0  0  0  0  0  0  0  0  0  0  0  0
    8.8672   -2.2062   -1.3033 H   0  0  0  0  0  0  0  0  0  0  0  0
    7.8488   -0.8910    2.6157 H   0  0  0  0  0  0  0  0  0  0  0  0
    5.8720    0.2532    1.6855 H   0  0  0  0  0  0  0  0  0  0  0  0
   -5.4095   -2.3987    0.9587 H   0  0  0  0  0  0  0  0  0  0  0  0
   -5.4073   -1.7921   -0.7500 H   0  0  0  0  0  0  0  0  0  0  0  0
   -7.0411   -3.4899   -0.1992 H   0  0  0  0  0  0  0  0  0  0  0  0
   -7.7238   -2.0438   -0.9936 H   0  0  0  0  0  0  0  0  0  0  0  0
   -9.0153   -0.4166    0.9337 H   0  0  0  0  0  0  0  0  0  0  0  0
   -8.8173   -1.1596    2.5422 H   0  0  0  0  0  0  0  0  0  0  0  0
   -7.2402    0.6823    2.1535 H   0  0  0  0  0  0  0  0  0  0  0  0
   -6.5454   -0.8793    2.7120 H   0  0  0  0  0  0  0  0  0  0  0  0
  1  2  1  0
  2  3  1  0
  3  4  1  0
  4  5  1  0
  5  6  1  0
  6  7  1  0
  7  8  1  0
  8  9  2  0
  9 10  1  0
 10 11  2  0
 11 12  1  0
 12 13  2  0
 12 14  1  0
 14 15  1  0
 14 16  1  0
 14 17  1  0
 10 18  1  0
 18 19  2  0
 18 20  1  0
 20 21  1  0
 21 22  2  0
 22 23  1  0
 23 24  2  0
 24 25  1  0
 25 26  2  0
 24 27  1  0
 27 28  1  0
 27 29  1  0
 27 30  1  0
  4 31  1  0
 31 32  2  0
 31 33  2  0
 31 34  1  0
 34 35  1  0
 35 36  1  0
 36 37  1  0
 37 38  1  0
 38 39  1  0
  7  2  1  0
 13  8  1  0
 26 21  1  0
 39 34  1  0
  1 40  1  0
  1 41  1  0
  1 42  1  0
  2 43  1  1
  3 44  1  0
  3 45  1  0
  5 46  1  0
  5 47  1  0
  6 48  1  0
  6 49  1  0
  9 50  1  0
 20 51  1  0
 22 52  1  0
 23 53  1  0
 25 54  1  0
 26 55  1  0
 35 56  1  0
 35 57  1  0
 36 58  1  0
 36 59  1  0
 38 60  1  0
 38 61  1  0
 39 62  1  0
 39 63  1  0
M  END
$$$$
[H]c1c([H])c(N([H])C(=O)N([H])C2([H])C([H])([H])C([H])([H])N(C(=O)N([H])C3([H])C([H])([H])C([H])([H])N(S(=O)(=O)C([H])([H])[H])C([H])([H])C3([H])[H])C([H])([H])C2([H])[H])c([H])c([H])c1OC(F)(F)F
     RDKit          3D

 62 64  0  0  0  0  0  0  0  0999 V2000
    9.7022    1.2887   -0.0757 C   0  0  0  0  0  0  0  0  0  0  0  0
    8.6261    0.2011   -0.9737 S   0  0  0  0  0  0  0  0  0  0  0  0
    8.9568   -1.2094   -0.5589 O   0  0  0  0  0  0  0  0  0  0  0  0
    8.9648    0.3296   -2.4158 O   0  0  0  0  0  0  0  0  0  0  0  0
    6.9825    0.4740   -0.6399 N   0  0  0  0  0  0  0  0  0  0  0  0
    6.6425    0.2575    0.7538 C   0  0  0  0  0  0  0  0  0  0  0  0
    5.1947    0.7086    0.9506 C   0  0  0  0  0  0  0  0  0  0  0  0
    4.4419    0.5536   -0.3680 C   0  0  0  0  0  0  0  0  0  0  0  0
    4.9337    1.6568   -1.2813 C   0  0  0  0  0  0  0  0  0  0  0  0
    6.4490    1.7048   -1.1461 C   0  0  0  0  0  0  0  0  0  0  0  0
    3.0259    0.5446   -0.1788 N   0  0  0  0  0  0  0  0  0  0  0  0
    2.2009   -0.5526   -0.5101 C   0  0  0  0  0  0  0  0  0  0  0  0
    2.7606   -1.5646   -0.9966 O   0  0  0  0  0  0  0  0  0  0  0  0
    0.8116   -0.5507   -0.3185 N   0  0  0  0  0  0  0  0  0  0  0  0
    0.0466   -1.7425   -0.6962 C   0  0  0  0  0  0  0  0  0  0  0  0
   -0.6730   -2.2867    0.5338 C   0  0  0  0  0  0  0  0  0  0  0  0
   -1.5111   -1.1570    1.0717 C   0  0  0  0  0  0  0  0  0  0  0  0
   -0.6317   -0.0044    1.4938 C   0  0  0  0  0  0  0  0  0  0  0  0
    0.0374    0.5443    0.2331 C   0  0  0  0  0  0  0  0  0  0  0  0
   -2.5639   -0.7979    0.1833 N   0  0  0  0  0  0  0  0  0  0  0  0
   -3.9512   -0.8873    0.5840 C   0  0  0  0  0  0  0  0  0  0  0  0
   -4.1286   -1.2961    1.7495 O   0  0  0  0  0  0  0  0  0  0  0  0
   -4.9794   -0.5384   -0.2818 N   0  0  0  0  0  0  0  0  0  0  0  0
   -6.3606   -0.5582   -0.0509 C   0  0  0  0  0  0  0  0  0  0  0  0
   -6.9513   -0.7855    1.1611 C   0  0  0  0  0  0  0  0  0  0  0  0
   -8.3426   -0.7958    1.2892 C   0  0  0  0  0  0  0  0  0  0  0  0
   -9.1777   -0.5816    0.2221 C   0  0  0  0  0  0  0  0  0  0  0  0
  -10.5708   -0.5977    0.3774 O   0  0  0  0  0  0  0  0  0  0  0  0
  -11.1549    0.6731    0.6897 C   0  0  0  0  0  0  0  0  0  0  0  0
  -12.5241    0.5256    0.8190 F   0  0  0  0  0  0  0  0  0  0  0  0
  -10.8878    1.5653   -0.3442 F   0  0  0  0  0  0  0  0  0  0  0  0
  -10.6735    1.1893    1.8710 F   0  0  0  0  0  0  0  0  0  0  0  0
   -8.5983   -0.3522   -0.9977 C   0  0  0  0  0  0  0  0  0  0  0  0
   -7.2344   -0.3418   -1.1251 C   0  0  0  0  0  0  0  0  0  0  0  0
    9.3083    1.4511    0.9477 H   0  0  0  0  0  0  0  0  0  0  0  0
    9.7550    2.3083   -0.5383 H   0  0  0  0  0  0  0  0  0  0  0  0
   10.7426    0.9031   -0.0819 H   0  0  0  0  0  0  0  0  0  0  0  0
    7.3103    0.7609    1.4578 H   0  0  0  0  0  0  0  0  0  0  0  0
    6.6569   -0.8313    0.9323 H   0  0  0  0  0  0  0  0  0  0  0  0
    5.1984    1.7796    1.2372 H   0  0  0  0  0  0  0  0  0  0  0  0
    4.6584    0.1160    1.7007 H   0  0  0  0  0  0  0  0  0  0  0  0
    4.8096   -0.4210   -0.8054 H   0  0  0  0  0  0  0  0  0  0  0  0
    4.6342    1.4198   -2.3141 H   0  0  0  0  0  0  0  0  0  0  0  0
    4.4692    2.6010   -0.9015 H   0  0  0  0  0  0  0  0  0  0  0  0
    6.8513    1.8663   -2.1685 H   0  0  0  0  0  0  0  0  0  0  0  0
    6.7530    2.5879   -0.5451 H   0  0  0  0  0  0  0  0  0  0  0  0
    2.5879    1.3947    0.2264 H   0  0  0  0  0  0  0  0  0  0  0  0
    0.7267   -2.5393   -1.0529 H   0  0  0  0  0  0  0  0  0  0  0  0
   -0.6846   -1.5263   -1.4771 H   0  0  0  0  0  0  0  0  0  0  0  0
   -1.2665   -3.1381    0.2022 H   0  0  0  0  0  0  0  0  0  0  0  0
    0.0898   -2.6136    1.2468 H   0  0  0  0  0  0  0  0  0  0  0  0
   -1.9734   -1.5311    2.0339 H   0  0  0  0  0  0  0  0  0  0  0  0
   -1.2292    0.8444    1.8933 H   0  0  0  0  0  0  0  0  0  0  0  0
    0.0938   -0.3657    2.2189 H   0  0  0  0  0  0  0  0  0  0  0  0
   -0.7856    0.8342   -0.4810 H   0  0  0  0  0  0  0  0  0  0  0  0
    0.6083    1.4281    0.4954 H   0  0  0  0  0  0  0  0  0  0  0  0
   -2.3209   -0.4606   -0.7841 H   0  0  0  0  0  0  0  0  0  0  0  0
   -4.6694   -0.2083   -1.2526 H   0  0  0  0  0  0  0  0  0  0  0  0
   -6.3836   -0.9571    2.0498 H   0  0  0  0  0  0  0  0  0  0  0  0
   -8.7722   -0.9798    2.2654 H   0  0  0  0  0  0  0  0  0  0  0  0
   -9.2166   -0.1803   -1.8533 H   0  0  0  0  0  0  0  0  0  0  0  0
   -6.8143   -0.1597   -2.0962 H   0  0  0  0  0  0  0  0  0  0  0  0
  1  2  1  0
  2  3  2  0
  2  4  2  0
  2  5  1  0
  5  6  1  0
  6  7  1  0
  7  8  1  0
  8  9  1  0
  9 10  1  0
  8 11  1  0
 11 12  1  0
 12 13  2  0
 12 14  1  0
 14 15  1  0
 15 16  1  0
 16 17  1  0
 17 18  1  0
 18 19  1  0
 17 20  1  0
 20 21  1  0
 21 22  2  0
 21 23  1  0
 23 24  1  0
 24 25  2  0
 25 26  1  0
 26 27  2  0
 27 28  1  0
 28 29  1  0
 29 30  1  0
 29 31  1  0
 29 32  1  0
 27 33  1  0
 33 34  2  0
 10  5  1  0
 19 14  1  0
 34 24  1  0
  1 35  1  0
  1 36  1  0
  1 37  1  0
  6 38  1  0
  6 39  1  0
  7 40  1  0
  7 41  1  0
  8 42  1  0
  9 43  1  0
  9 44  1  0
 10 45  1  0
 10 46  1  0
 11 47  1  0
 15 48  1  0
 15 49  1  0
 16 50  1  0
 16 51  1  0
 17 52  1  0
 18 53  1  0
 18 54  1  0
 19 55  1  0
 19 56  1  0
 20 57  1  0
 23 58  1  0
 25 59  1  0
 26 60  1  0
 33 61  1  0
 34 62  1  0
M  END
$$$$
[H]OC(=O)[C@@]([H])(N([H])C(=O)[C@@]([H])(N([H])C(=O)[C@@]([H])(N([H])C(=O)[C@@]([H])(N([H])C(=O)OC([H])([H])c1c([H])c([H])c([H])c([H])c1[H])C([H])([H])c1c([H])c([H])c([H])c([H])c1[H])C([H])(C([H])([H])[H])C([H])([H])[H])C([H])([H])c1c([H])c([H])c([H])c([H])c1[H])C([H])([H])c1c([H])c([H])c([H])c([H])c1[H]
     RDKit          3D

 95 98  0  0  0  0  0  0  0  0999 V2000
    1.1518    0.3414    2.4975 C   0  0  0  0  0  0  0  0  0  0  0  0
    0.0728    0.6744    1.4943 C   0  0  0  0  0  0  0  0  0  0  0  0
    0.2471    2.1523    1.1518 C   0  0  0  0  0  0  0  0  0  0  0  0
    0.3107   -0.2006    0.2628 C   0  0  2  0  0  0  0  0  0  0  0  0
    1.5964    0.1325   -0.2321 N   0  0  0  0  0  0  0  0  0  0  0  0
    2.8047   -0.5775   -0.1076 C   0  0  0  0  0  0  0  0  0  0  0  0
    2.8883   -1.6693    0.5035 O   0  0  0  0  0  0  0  0  0  0  0  0
    4.0867   -0.0555   -0.7083 C   0  0  2  0  0  0  0  0  0  0  0  0
    4.1725   -0.4634   -2.1626 C   0  0  0  0  0  0  0  0  0  0  0  0
    4.1683   -1.9074   -2.3662 C   0  0  0  0  0  0  0  0  0  0  0  0
    3.0277   -2.6503   -2.5598 C   0  0  0  0  0  0  0  0  0  0  0  0
    3.0729   -4.0308   -2.7363 C   0  0  0  0  0  0  0  0  0  0  0  0
    4.2658   -4.6765   -2.7202 C   0  0  0  0  0  0  0  0  0  0  0  0
    5.4243   -3.9699   -2.5298 C   0  0  0  0  0  0  0  0  0  0  0  0
    5.3616   -2.5998   -2.3562 C   0  0  0  0  0  0  0  0  0  0  0  0
    5.2226   -0.4834    0.0595 N   0  0  0  0  0  0  0  0  0  0  0  0
    6.1077    0.3636    0.7430 C   0  0  0  0  0  0  0  0  0  0  0  0
    5.9471    1.6011    0.7103 O   0  0  0  0  0  0  0  0  0  0  0  0
    7.1574   -0.1573    1.4564 O   0  0  0  0  0  0  0  0  0  0  0  0
    8.1142    0.5873    2.1872 C   0  0  0  0  0  0  0  0  0  0  0  0
    8.8167    1.4735    1.2300 C   0  0  0  0  0  0  0  0  0  0  0  0
    8.8032    2.8315    1.4103 C   0  0  0  0  0  0  0  0  0  0  0  0
    9.4570    3.6923    0.5366 C   0  0  0  0  0  0  0  0  0  0  0  0
   10.1332    3.1440   -0.5372 C   0  0  0  0  0  0  0  0  0  0  0  0
   10.1568    1.7837   -0.7337 C   0  0  0  0  0  0  0  0  0  0  0  0
    9.4976    0.9538    0.1516 C   0  0  0  0  0  0  0  0  0  0  0  0
   -0.8005   -0.0420   -0.7007 C   0  0  0  0  0  0  0  0  0  0  0  0
   -0.5409    0.3514   -1.8534 O   0  0  0  0  0  0  0  0  0  0  0  0
   -2.1174   -0.3363   -0.2852 N   0  0  0  0  0  0  0  0  0  0  0  0
   -3.2931   -0.2042   -1.1303 C   0  0  1  0  0  0  0  0  0  0  0  0
   -3.8818   -1.4722   -1.5671 C   0  0  0  0  0  0  0  0  0  0  0  0
   -4.3226   -2.4345   -0.5736 C   0  0  0  0  0  0  0  0  0  0  0  0
   -5.5985   -2.5077   -0.1273 C   0  0  0  0  0  0  0  0  0  0  0  0
   -5.9980   -3.4215    0.8199 C   0  0  0  0  0  0  0  0  0  0  0  0
   -5.0599   -4.3085    1.3446 C   0  0  0  0  0  0  0  0  0  0  0  0
   -3.7685   -4.2511    0.9076 C   0  0  0  0  0  0  0  0  0  0  0  0
   -3.3852   -3.3210   -0.0500 C   0  0  0  0  0  0  0  0  0  0  0  0
   -4.0966    0.9343   -0.7377 C   0  0  0  0  0  0  0  0  0  0  0  0
   -3.6462    1.6256    0.2524 O   0  0  0  0  0  0  0  0  0  0  0  0
   -5.3085    1.4080   -1.2989 N   0  0  0  0  0  0  0  0  0  0  0  0
   -5.9444    2.5882   -0.8460 C   0  0  1  0  0  0  0  0  0  0  0  0
   -6.4429    2.7037    0.5353 C   0  0  0  0  0  0  0  0  0  0  0  0
   -7.5053    1.7105    0.8297 C   0  0  0  0  0  0  0  0  0  0  0  0
   -7.3058    0.4901    1.3999 C   0  0  0  0  0  0  0  0  0  0  0  0
   -8.3031   -0.4028    1.6704 C   0  0  0  0  0  0  0  0  0  0  0  0
   -9.5996   -0.0487    1.3461 C   0  0  0  0  0  0  0  0  0  0  0  0
   -9.8497    1.1788    0.7659 C   0  0  0  0  0  0  0  0  0  0  0  0
   -8.8318    2.0532    0.5062 C   0  0  0  0  0  0  0  0  0  0  0  0
   -5.0554    3.8035   -1.0739 C   0  0  0  0  0  0  0  0  0  0  0  0
   -5.5071    5.0509   -0.6406 O   0  0  0  0  0  0  0  0  0  0  0  0
   -3.9485    3.7232   -1.6291 O   0  0  0  0  0  0  0  0  0  0  0  0
    2.1362    0.6850    2.1451 H   0  0  0  0  0  0  0  0  0  0  0  0
    1.2109   -0.7803    2.6430 H   0  0  0  0  0  0  0  0  0  0  0  0
    0.9499    0.8299    3.4853 H   0  0  0  0  0  0  0  0  0  0  0  0
   -0.9340    0.4616    1.8575 H   0  0  0  0  0  0  0  0  0  0  0  0
   -0.2464    2.4364    0.2079 H   0  0  0  0  0  0  0  0  0  0  0  0
    1.3106    2.4375    1.2231 H   0  0  0  0  0  0  0  0  0  0  0  0
   -0.2617    2.7250    1.9732 H   0  0  0  0  0  0  0  0  0  0  0  0
    0.2989   -1.2347    0.6460 H   0  0  0  0  0  0  0  0  0  0  0  0
    1.6471    1.0511   -0.7731 H   0  0  0  0  0  0  0  0  0  0  0  0
    4.0148    1.0324   -0.6672 H   0  0  0  0  0  0  0  0  0  0  0  0
    5.0668    0.0319   -2.6294 H   0  0  0  0  0  0  0  0  0  0  0  0
    3.2944   -0.0181   -2.6707 H   0  0  0  0  0  0  0  0  0  0  0  0
    2.0639   -2.1884   -2.5837 H   0  0  0  0  0  0  0  0  0  0  0  0
    2.1447   -4.5951   -2.8850 H   0  0  0  0  0  0  0  0  0  0  0  0
    4.3090   -5.7657   -2.8618 H   0  0  0  0  0  0  0  0  0  0  0  0
    6.3796   -4.4534   -2.5120 H   0  0  0  0  0  0  0  0  0  0  0  0
    6.2685   -2.0302   -2.2073 H   0  0  0  0  0  0  0  0  0  0  0  0
    5.3926   -1.5117    0.1040 H   0  0  0  0  0  0  0  0  0  0  0  0
    7.5522    1.1994    2.9533 H   0  0  0  0  0  0  0  0  0  0  0  0
    8.8046   -0.1425    2.6579 H   0  0  0  0  0  0  0  0  0  0  0  0
    8.2740    3.2539    2.2477 H   0  0  0  0  0  0  0  0  0  0  0  0
    9.4529    4.7607    0.6698 H   0  0  0  0  0  0  0  0  0  0  0  0
   10.6466    3.8304   -1.2224 H   0  0  0  0  0  0  0  0  0  0  0  0
   10.6906    1.3794   -1.5803 H   0  0  0  0  0  0  0  0  0  0  0  0
    9.5477   -0.1188   -0.0503 H   0  0  0  0  0  0  0  0  0  0  0  0
   -2.2591   -0.6693    0.6890 H   0  0  0  0  0  0  0  0  0  0  0  0
   -2.7879    0.1974   -2.1315 H   0  0  0  0  0  0  0  0  0  0  0  0
   -4.7160   -1.2073   -2.3005 H   0  0  0  0  0  0  0  0  0  0  0  0
   -3.1469   -1.9965   -2.2322 H   0  0  0  0  0  0  0  0  0  0  0  0
   -6.3564   -1.8257   -0.5179 H   0  0  0  0  0  0  0  0  0  0  0  0
   -7.0044   -3.5099    1.2022 H   0  0  0  0  0  0  0  0  0  0  0  0
   -5.3528   -5.0413    2.0970 H   0  0  0  0  0  0  0  0  0  0  0  0
   -3.0161   -4.9444    1.3097 H   0  0  0  0  0  0  0  0  0  0  0  0
   -2.3478   -3.3352   -0.3474 H   0  0  0  0  0  0  0  0  0  0  0  0
   -5.7089    0.8224   -2.0798 H   0  0  0  0  0  0  0  0  0  0  0  0
   -6.8247    2.7509   -1.5619 H   0  0  0  0  0  0  0  0  0  0  0  0
   -5.6266    2.6331    1.3054 H   0  0  0  0  0  0  0  0  0  0  0  0
   -6.9378    3.7199    0.6584 H   0  0  0  0  0  0  0  0  0  0  0  0
   -6.2734    0.2103    1.6567 H   0  0  0  0  0  0  0  0  0  0  0  0
   -8.1317   -1.3873    2.1317 H   0  0  0  0  0  0  0  0  0  0  0  0
  -10.3996   -0.7614    1.5621 H   0  0  0  0  0  0  0  0  0  0  0  0
  -10.8694    1.4471    0.5159 H   0  0  0  0  0  0  0  0  0  0  0  0
   -8.9967    3.0341    0.0466 H   0  0  0  0  0  0  0  0  0  0  0  0
   -5.2118    5.4270    0.2720 H   0  0  0  0  0  0  0  0  0  0  0  0
  1  2  1  0
  2  3  1  0
  2  4  1  0
  4  5  1  0
  5  6  1  0
  6  7  2  0
  6  8  1  0
  8  9  1  0
  9 10  1  0
 10 11  2  0
 11 12  1  0
 12 13  2  0
 13 14  1  0
 14 15  2  0
  8 16  1  0
 16 17  1  0
 17 18  2  0
 17 19  1  0
 19 20  1  0
 20 21  1  0
 21 22  2  0
 22 23  1  0
 23 24  2  0
 24 25  1  0
 25 26  2  0
  4 27  1  0
 27 28  2  0
 27 29  1  0
 29 30  1  0
 30 31  1  0
 31 32  1  0
 32 33  2  0
 33 34  1  0
 34 35  2  0
 35 36  1  0
 36 37  2  0
 30 38  1  0
 38 39  2  0
 38 40  1  0
 40 41  1  0
 41 42  1  0
 42 43  1  0
 43 44  2  0
 44 45  1  0
 45 46  2  0
 46 47  1  0
 47 48  2  0
 41 49  1  0
 49 50  1  0
 49 51  2  0
 15 10  1  0
 26 21  1  0
 37 32  1  0
 48 43  1  0
  1 52  1  0
  1 53  1  0
  1 54  1  0
  2 55  1  0
  3 56  1  0
  3 57  1  0
  3 58  1  0
  4 59  1  1
  5 60  1  0
  8 61  1  6
  9 62  1  0
  9 63  1  0
 11 64  1  0
 12 65  1  0
 13 66  1  0
 14 67  1  0
 15 68  1  0
 16 69  1  0
 20 70  1  0
 20 71  1  0
 22 72  1  0
 23 73  1  0
 24 74  1  0
 25 75  1  0
 26 76  1  0
 29 77  1  0
 30 78  1  6
 31 79  1  0
 31 80  1  0
 33 81  1  0
 34 82  1  0
 35 83  1  0
 36 84  1  0
 37 85  1  0
 40 86  1  0
 41 87  1  6
 42 88  1  0
 42 89  1  0
 44 90  1  0
 45 91  1  0
 46 92  1  0
 47 93  1  0
 48 94  1  0
 50 95  1  0
M  END
$$$$
[H]c1c(C(=O)N([H])c2c([H])c([H])c(C(F)(F)F)c([H])c2[H])nc(C(F)(F)F)nc1N1C([H])([H])C([H])([H])N(C(C([H])([H])[H])(C([H])([H])[H])C([H])([H])[H])C([H])([H])[C@@]1([H])C([H])([H])[H]
     RDKit          3D

 59 61  0  0  0  0  0  0  0  0999 V2000
   -1.8460   -1.7825    1.7260 C   0  0  0  0  0  0  0  0  0  0  0  0
   -1.9654   -0.3814    1.1360 C   0  0  2  0  0  0  0  0  0  0  0  0
   -3.2924    0.1815    1.5790 C   0  0  0  0  0  0  0  0  0  0  0  0
   -4.4206   -0.2561    0.8555 N   0  0  0  0  0  0  0  0  0  0  0  0
   -4.2322   -1.0540   -0.2678 C   0  0  0  0  0  0  0  0  0  0  0  0
   -3.0790   -0.5136   -1.0775 C   0  0  0  0  0  0  0  0  0  0  0  0
   -1.8841   -0.3521   -0.2828 N   0  0  0  0  0  0  0  0  0  0  0  0
   -0.6575   -0.1808   -0.9759 C   0  0  0  0  0  0  0  0  0  0  0  0
    0.5726   -0.2432   -0.3273 C   0  0  0  0  0  0  0  0  0  0  0  0
    1.7733   -0.0716   -0.9732 C   0  0  0  0  0  0  0  0  0  0  0  0
    1.7232    0.1699   -2.3056 N   0  0  0  0  0  0  0  0  0  0  0  0
    0.5562    0.2376   -2.9672 C   0  0  0  0  0  0  0  0  0  0  0  0
   -0.6010    0.0647   -2.3083 N   0  0  0  0  0  0  0  0  0  0  0  0
    0.5467    0.5008   -4.4231 C   0  0  0  0  0  0  0  0  0  0  0  0
    1.2472   -0.4906   -5.1205 F   0  0  0  0  0  0  0  0  0  0  0  0
   -0.7428    0.4446   -4.9405 F   0  0  0  0  0  0  0  0  0  0  0  0
    1.0908    1.7102   -4.7667 F   0  0  0  0  0  0  0  0  0  0  0  0
    3.0571   -0.1691   -0.2463 C   0  0  0  0  0  0  0  0  0  0  0  0
    3.0185   -0.4487    0.9463 O   0  0  0  0  0  0  0  0  0  0  0  0
    4.2250    0.0644   -0.9782 N   0  0  0  0  0  0  0  0  0  0  0  0
    5.5115   -0.0176   -0.4175 C   0  0  0  0  0  0  0  0  0  0  0  0
    6.5620    0.7265   -0.9739 C   0  0  0  0  0  0  0  0  0  0  0  0
    7.8539    0.6693   -0.5107 C   0  0  0  0  0  0  0  0  0  0  0  0
    8.1721   -0.1444    0.5466 C   0  0  0  0  0  0  0  0  0  0  0  0
    7.1712   -0.8938    1.1247 C   0  0  0  0  0  0  0  0  0  0  0  0
    5.8524   -0.8213    0.6353 C   0  0  0  0  0  0  0  0  0  0  0  0
    9.5339   -0.2909    1.1217 C   0  0  0  0  0  0  0  0  0  0  0  0
    9.4957    0.0717    2.4347 F   0  0  0  0  0  0  0  0  0  0  0  0
    9.8128   -1.6633    1.0532 F   0  0  0  0  0  0  0  0  0  0  0  0
   10.4753    0.4019    0.3973 F   0  0  0  0  0  0  0  0  0  0  0  0
   -5.6127    0.4822    1.0139 C   0  0  0  0  0  0  0  0  0  0  0  0
   -5.4206    1.9058    0.5195 C   0  0  0  0  0  0  0  0  0  0  0  0
   -5.9887    0.5044    2.4837 C   0  0  0  0  0  0  0  0  0  0  0  0
   -6.7433   -0.1938    0.2756 C   0  0  0  0  0  0  0  0  0  0  0  0
   -0.8518   -1.9370    2.2144 H   0  0  0  0  0  0  0  0  0  0  0  0
   -2.5878   -1.9125    2.5411 H   0  0  0  0  0  0  0  0  0  0  0  0
   -1.9121   -2.5749    0.9476 H   0  0  0  0  0  0  0  0  0  0  0  0
   -1.1436    0.2098    1.6211 H   0  0  0  0  0  0  0  0  0  0  0  0
   -3.2392    1.2918    1.5270 H   0  0  0  0  0  0  0  0  0  0  0  0
   -3.4239   -0.0433    2.6797 H   0  0  0  0  0  0  0  0  0  0  0  0
   -5.1127   -1.0238   -0.9375 H   0  0  0  0  0  0  0  0  0  0  0  0
   -4.0255   -2.1300   -0.0935 H   0  0  0  0  0  0  0  0  0  0  0  0
   -3.3069    0.4626   -1.5437 H   0  0  0  0  0  0  0  0  0  0  0  0
   -2.8020   -1.1922   -1.9122 H   0  0  0  0  0  0  0  0  0  0  0  0
    0.5566   -0.4368    0.7275 H   0  0  0  0  0  0  0  0  0  0  0  0
    4.1971    0.3168   -2.0128 H   0  0  0  0  0  0  0  0  0  0  0  0
    6.2914    1.3692   -1.8126 H   0  0  0  0  0  0  0  0  0  0  0  0
    8.6505    1.2584   -0.9571 H   0  0  0  0  0  0  0  0  0  0  0  0
    7.3922   -1.5489    1.9648 H   0  0  0  0  0  0  0  0  0  0  0  0
    5.1004   -1.4409    1.1116 H   0  0  0  0  0  0  0  0  0  0  0  0
   -5.2645    2.5416    1.4247 H   0  0  0  0  0  0  0  0  0  0  0  0
   -6.3259    2.2371   -0.0238 H   0  0  0  0  0  0  0  0  0  0  0  0
   -4.4996    1.9740   -0.1227 H   0  0  0  0  0  0  0  0  0  0  0  0
   -5.4946    1.3606    2.9491 H   0  0  0  0  0  0  0  0  0  0  0  0
   -5.7019   -0.4442    2.9419 H   0  0  0  0  0  0  0  0  0  0  0  0
   -7.0903    0.6591    2.5135 H   0  0  0  0  0  0  0  0  0  0  0  0
   -6.6746   -1.2988    0.3236 H   0  0  0  0  0  0  0  0  0  0  0  0
   -6.7669    0.1344   -0.8032 H   0  0  0  0  0  0  0  0  0  0  0  0
   -7.7294    0.0523    0.7454 H   0  0  0  0  0  0  0  0  0  0  0  0
  1  2  1  0
  2  3  1  0
  3  4  1  0
  4  5  1  0
  5  6  1  0
  6  7  1  0
  7  8  1  0
  8  9  2  0
  9 10  1  0
 10 11  2  0
 11 12  1  0
 12 13  2  0
 12 14  1  0
 14 15  1  0
 14 16  1  0
 14 17  1  0
 10 18  1  0
 18 19  2  0
 18 20  1  0
 20 21  1  0
 21 22  2  0
 22 23  1  0
 23 24  2  0
 24 25  1  0
 25 26  2  0
 24 27  1  0
 27 28  1  0
 27 29  1  0
 27 30  1  0
  4 31  1  0
 31 32  1  0
 31 33  1  0
 31 34  1  0
  7  2  1  0
 13  8  1  0
 26 21  1  0
  1 35  1  0
  1 36  1  0
  1 37  1  0
  2 38  1  1
  3 39  1  0
  3 40  1  0
  5 41  1  0
  5 42  1  0
  6 43  1  0
  6 44  1  0
  9 45  1  0
 20 46  1  0
 22 47  1  0
 23 48  1  0
 25 49  1  0
 26 50  1  0
 32 51  1  0
 32 52  1  0
 32 53  1  0
 33 54  1  0
 33 55  1  0
 33 56  1  0
 34 57  1  0
 34 58  1  0
 34 59  1  0
M  END
$$$$
[H]c1c([H])c([H])c(C([H])([H])[C@@]([H])(C(=O)N2C([H])([H])C([H])([H])C([H])([H])[C@@]2([H])C(=O)N([H])[C@]([H])(c2c([H])c([H])c([H])c([H])c2[H])C([H])([H])[H])N([H])C(=O)c2c([H])c([H])c([H])c(C(F)(F)F)c2[H])c([H])c1[H]
     RDKit          3D

 69 72  0  0  0  0  0  0  0  0999 V2000
   -5.1060    2.2256   -2.0325 C   0  0  0  0  0  0  0  0  0  0  0  0
   -4.5124    1.6858   -0.7649 C   0  0  2  0  0  0  0  0  0  0  0  0
   -4.0817    0.3275   -0.8697 N   0  0  0  0  0  0  0  0  0  0  0  0
   -2.7336   -0.1065   -0.5581 C   0  0  0  0  0  0  0  0  0  0  0  0
   -1.9814    0.7837   -0.1882 O   0  0  0  0  0  0  0  0  0  0  0  0
   -2.3366   -1.4951   -0.6853 C   0  0  2  0  0  0  0  0  0  0  0  0
   -3.1266   -2.2320    0.4099 C   0  0  0  0  0  0  0  0  0  0  0  0
   -2.4824   -3.5831    0.3201 C   0  0  0  0  0  0  0  0  0  0  0  0
   -1.0157   -3.1902    0.1921 C   0  0  0  0  0  0  0  0  0  0  0  0
   -1.0002   -1.8873   -0.4972 N   0  0  0  0  0  0  0  0  0  0  0  0
    0.2236   -1.2913   -0.8796 C   0  0  0  0  0  0  0  0  0  0  0  0
    0.0873   -0.2010   -1.5556 O   0  0  0  0  0  0  0  0  0  0  0  0
    1.6014   -1.6883   -0.6426 C   0  0  2  0  0  0  0  0  0  0  0  0
    1.9875   -2.5575    0.4655 C   0  0  0  0  0  0  0  0  0  0  0  0
    3.4844   -2.7967    0.5274 C   0  0  0  0  0  0  0  0  0  0  0  0
    4.0333   -3.8259   -0.1765 C   0  0  0  0  0  0  0  0  0  0  0  0
    5.3705   -4.0939   -0.1346 C   0  0  0  0  0  0  0  0  0  0  0  0
    6.2122   -3.3189    0.6317 C   0  0  0  0  0  0  0  0  0  0  0  0
    5.6855   -2.2746    1.3508 C   0  0  0  0  0  0  0  0  0  0  0  0
    4.3105   -2.0167    1.2944 C   0  0  0  0  0  0  0  0  0  0  0  0
    2.5075   -0.5225   -0.6751 N   0  0  0  0  0  0  0  0  0  0  0  0
    2.2239    0.6546    0.0518 C   0  0  0  0  0  0  0  0  0  0  0  0
    1.1996    0.7972    0.7848 O   0  0  0  0  0  0  0  0  0  0  0  0
    3.1176    1.7911   -0.0073 C   0  0  0  0  0  0  0  0  0  0  0  0
    2.7155    3.0234    0.5333 C   0  0  0  0  0  0  0  0  0  0  0  0
    3.5191    4.1398    0.5223 C   0  0  0  0  0  0  0  0  0  0  0  0
    4.7712    4.0755   -0.0333 C   0  0  0  0  0  0  0  0  0  0  0  0
    5.2063    2.8730   -0.5787 C   0  0  0  0  0  0  0  0  0  0  0  0
    4.3878    1.7770   -0.5560 C   0  0  0  0  0  0  0  0  0  0  0  0
    6.5753    2.8873   -1.1557 C   0  0  0  0  0  0  0  0  0  0  0  0
    7.4991    2.7062   -0.1257 F   0  0  0  0  0  0  0  0  0  0  0  0
    6.7600    1.9660   -2.1575 F   0  0  0  0  0  0  0  0  0  0  0  0
    6.8537    4.1487   -1.6887 F   0  0  0  0  0  0  0  0  0  0  0  0
   -5.4693    1.9018    0.3435 C   0  0  0  0  0  0  0  0  0  0  0  0
   -5.3250    2.9672    1.1934 C   0  0  0  0  0  0  0  0  0  0  0  0
   -6.1862    3.2070    2.2497 C   0  0  0  0  0  0  0  0  0  0  0  0
   -7.2466    2.3548    2.4822 C   0  0  0  0  0  0  0  0  0  0  0  0
   -7.4119    1.2788    1.6380 C   0  0  0  0  0  0  0  0  0  0  0  0
   -6.5301    1.0582    0.5819 C   0  0  0  0  0  0  0  0  0  0  0  0
   -5.4456    1.3510   -2.6385 H   0  0  0  0  0  0  0  0  0  0  0  0
   -4.4418    2.9020   -2.5883 H   0  0  0  0  0  0  0  0  0  0  0  0
   -6.0251    2.7841   -1.7807 H   0  0  0  0  0  0  0  0  0  0  0  0
   -3.6057    2.3081   -0.5111 H   0  0  0  0  0  0  0  0  0  0  0  0
   -4.7464   -0.4048   -1.1745 H   0  0  0  0  0  0  0  0  0  0  0  0
   -2.6787   -1.8535   -1.6859 H   0  0  0  0  0  0  0  0  0  0  0  0
   -2.8984   -1.6977    1.3488 H   0  0  0  0  0  0  0  0  0  0  0  0
   -4.1799   -2.2020    0.1362 H   0  0  0  0  0  0  0  0  0  0  0  0
   -2.6651   -4.1641    1.2345 H   0  0  0  0  0  0  0  0  0  0  0  0
   -2.8467   -4.0739   -0.6123 H   0  0  0  0  0  0  0  0  0  0  0  0
   -0.5832   -3.9417   -0.4844 H   0  0  0  0  0  0  0  0  0  0  0  0
   -0.5679   -3.1338    1.1870 H   0  0  0  0  0  0  0  0  0  0  0  0
    1.8851   -2.2769   -1.6107 H   0  0  0  0  0  0  0  0  0  0  0  0
    1.7318   -2.1956    1.4820 H   0  0  0  0  0  0  0  0  0  0  0  0
    1.5254   -3.5743    0.3715 H   0  0  0  0  0  0  0  0  0  0  0  0
    3.3986   -4.4670   -0.7978 H   0  0  0  0  0  0  0  0  0  0  0  0
    5.8147   -4.9257   -0.7028 H   0  0  0  0  0  0  0  0  0  0  0  0
    7.2888   -3.5520    0.6524 H   0  0  0  0  0  0  0  0  0  0  0  0
    6.3601   -1.6811    1.9434 H   0  0  0  0  0  0  0  0  0  0  0  0
    3.9469   -1.1888    1.8818 H   0  0  0  0  0  0  0  0  0  0  0  0
    3.3579   -0.6263   -1.2552 H   0  0  0  0  0  0  0  0  0  0  0  0
    1.7289    3.0969    0.9800 H   0  0  0  0  0  0  0  0  0  0  0  0
    3.1864    5.0897    0.9503 H   0  0  0  0  0  0  0  0  0  0  0  0
    5.3936    4.9561   -0.0415 H   0  0  0  0  0  0  0  0  0  0  0  0
    4.7500    0.8442   -0.9882 H   0  0  0  0  0  0  0  0  0  0  0  0
   -4.5121    3.6669    1.0603 H   0  0  0  0  0  0  0  0  0  0  0  0
   -6.0788    4.0498    2.9270 H   0  0  0  0  0  0  0  0  0  0  0  0
   -7.9309    2.5398    3.3195 H   0  0  0  0  0  0  0  0  0  0  0  0
   -8.2573    0.6158    1.8324 H   0  0  0  0  0  0  0  0  0  0  0  0
   -6.6919    0.2057   -0.0645 H   0  0  0  0  0  0  0  0  0  0  0  0
  1  2  1  0
  2  3  1  0
  3  4  1  0
  4  5  2  0
  4  6  1  0
  6  7  1  0
  7  8  1  0
  8  9  1  0
  9 10  1  0
 10 11  1  0
 11 12  2  0
 11 13  1  0
 13 14  1  0
 14 15  1  0
 15 16  2  0
 16 17  1  0
 17 18  2  0
 18 19  1  0
 19 20  2  0
 13 21  1  0
 21 22  1  0
 22 23  2  0
 22 24  1  0
 24 25  2  0
 25 26  1  0
 26 27  2  0
 27 28  1  0
 28 29  2  0
 28 30  1  0
 30 31  1  0
 30 32  1  0
 30 33  1  0
  2 34  1  0
 34 35  2  0
 35 36  1  0
 36 37  2  0
 37 38  1  0
 38 39  2  0
 10  6  1  0
 20 15  1  0
 29 24  1  0
 39 34  1  0
  1 40  1  0
  1 41  1  0
  1 42  1  0
  2 43  1  1
  3 44  1  0
  6 45  1  6
  7 46  1  0
  7 47  1  0
  8 48  1  0
  8 49  1  0
  9 50  1  0
  9 51  1  0
 13 52  1  6
 14 53  1  0
 14 54  1  0
 16 55  1  0
 17 56  1  0
 18 57  1  0
 19 58  1  0
 20 59  1  0
 21 60  1  0
 25 61  1  0
 26 62  1  0
 27 63  1  0
 29 64  1  0
 35 65  1  0
 36 66  1  0
 37 67  1  0
 38 68  1  0
 39 69  1  0
M  END
$$$$
[H]OC(=O)C([H])([H])[C@@]([H])(C(=O)N([H])[C@]([H])(C(=O)N([H])C([H])(C([H])(C([H])([H])[H])C([H])([H])[H])C([H])(C([H])([H])[H])C([H])([H])[H])C([H])([H])C([H])(C([H])([H])[H])C([H])([H])[H])N([H])C(=O)[C@@]([H])(N([H])C(=O)[C@@]([H])(N([H])C(=O)[C@]([H])(N([H])C(=O)c1c([H])c([H])c([H])c([H])c1[H])C([H])([H])C(=O)O[H])C([H])([H])C([H])(C([H])([H])[H])C([H])([H])[H])C([H])([H])C([H])(C([H])([H])[H])C([H])([H])[H]
     RDKit          3D

120120  0  0  0  0  0  0  0  0999 V2000
   -6.7865    1.8664   -3.2298 C   0  0  0  0  0  0  0  0  0  0  0  0
   -8.2172    1.9682   -2.6668 C   0  0  0  0  0  0  0  0  0  0  0  0
   -8.9233    0.7085   -3.0887 C   0  0  0  0  0  0  0  0  0  0  0  0
   -8.1561    2.1802   -1.1737 C   0  0  0  0  0  0  0  0  0  0  0  0
   -7.5157    1.0932   -0.4881 N   0  0  0  0  0  0  0  0  0  0  0  0
   -6.1931    1.1028   -0.0351 C   0  0  0  0  0  0  0  0  0  0  0  0
   -5.4592    2.0870   -0.2024 O   0  0  0  0  0  0  0  0  0  0  0  0
   -5.6192   -0.0967    0.6748 C   0  0  2  0  0  0  0  0  0  0  0  0
   -6.5007   -0.5392    1.7765 C   0  0  0  0  0  0  0  0  0  0  0  0
   -6.0571   -1.7183    2.5616 C   0  0  0  0  0  0  0  0  0  0  0  0
   -4.7626   -1.6076    3.2829 C   0  0  0  0  0  0  0  0  0  0  0  0
   -7.1232   -2.0699    3.5935 C   0  0  0  0  0  0  0  0  0  0  0  0
   -4.2355    0.1213    0.9968 N   0  0  0  0  0  0  0  0  0  0  0  0
   -3.1647   -0.4033    0.2568 C   0  0  0  0  0  0  0  0  0  0  0  0
   -3.4194   -1.1204   -0.7736 O   0  0  0  0  0  0  0  0  0  0  0  0
   -1.7627   -0.1477    0.6348 C   0  0  2  0  0  0  0  0  0  0  0  0
   -1.5177    1.3472    0.8489 C   0  0  0  0  0  0  0  0  0  0  0  0
   -1.7863    2.1505   -0.3424 C   0  0  0  0  0  0  0  0  0  0  0  0
   -1.6339    3.5243   -0.3185 O   0  0  0  0  0  0  0  0  0  0  0  0
   -2.1650    1.6016   -1.4171 O   0  0  0  0  0  0  0  0  0  0  0  0
   -0.8281   -0.6994   -0.3212 N   0  0  0  0  0  0  0  0  0  0  0  0
    0.3212   -1.3736    0.1121 C   0  0  0  0  0  0  0  0  0  0  0  0
    0.5298   -1.4882    1.3485 O   0  0  0  0  0  0  0  0  0  0  0  0
    1.3611   -1.9828   -0.7911 C   0  0  2  0  0  0  0  0  0  0  0  0
    0.9686   -3.2748   -1.3958 C   0  0  0  0  0  0  0  0  0  0  0  0
   -0.2167   -3.3312   -2.2819 C   0  0  0  0  0  0  0  0  0  0  0  0
   -0.1113   -2.4804   -3.5263 C   0  0  0  0  0  0  0  0  0  0  0  0
   -0.4579   -4.7906   -2.6397 C   0  0  0  0  0  0  0  0  0  0  0  0
    2.5630   -2.2932    0.0322 N   0  0  0  0  0  0  0  0  0  0  0  0
    3.6465   -1.4092    0.0762 C   0  0  0  0  0  0  0  0  0  0  0  0
    3.5335   -0.3296   -0.6131 O   0  0  0  0  0  0  0  0  0  0  0  0
    4.9135   -1.5618    0.8248 C   0  0  2  0  0  0  0  0  0  0  0  0
    4.7628   -2.2941    2.1049 C   0  0  0  0  0  0  0  0  0  0  0  0
    6.0010   -2.4860    2.9067 C   0  0  0  0  0  0  0  0  0  0  0  0
    5.6436   -3.2574    4.1858 C   0  0  0  0  0  0  0  0  0  0  0  0
    7.0910   -3.2565    2.2402 C   0  0  0  0  0  0  0  0  0  0  0  0
    5.5449   -0.2617    1.0260 N   0  0  0  0  0  0  0  0  0  0  0  0
    6.6254    0.2595    0.3037 C   0  0  0  0  0  0  0  0  0  0  0  0
    7.1462   -0.4052   -0.6111 O   0  0  0  0  0  0  0  0  0  0  0  0
    7.1439    1.5988    0.6224 C   0  0  1  0  0  0  0  0  0  0  0  0
    7.5904    1.7314    2.0467 C   0  0  0  0  0  0  0  0  0  0  0  0
    8.6561    0.8266    2.4638 C   0  0  0  0  0  0  0  0  0  0  0  0
    9.1670    0.8362    3.7391 O   0  0  0  0  0  0  0  0  0  0  0  0
    9.1446   -0.0122    1.6330 O   0  0  0  0  0  0  0  0  0  0  0  0
    8.1888    1.9402   -0.3332 N   0  0  0  0  0  0  0  0  0  0  0  0
    8.0300    3.0031   -1.2575 C   0  0  0  0  0  0  0  0  0  0  0  0
    6.9457    3.6329   -1.2186 O   0  0  0  0  0  0  0  0  0  0  0  0
    9.0687    3.3371   -2.1911 C   0  0  0  0  0  0  0  0  0  0  0  0
    8.8334    4.3802   -3.0941 C   0  0  0  0  0  0  0  0  0  0  0  0
    9.7495    4.7878   -4.0142 C   0  0  0  0  0  0  0  0  0  0  0  0
   10.9937    4.1646   -4.0955 C   0  0  0  0  0  0  0  0  0  0  0  0
   11.2453    3.1402   -3.2209 C   0  0  0  0  0  0  0  0  0  0  0  0
   10.3006    2.7434   -2.2956 C   0  0  0  0  0  0  0  0  0  0  0  0
   -9.4368    2.5439   -0.5290 C   0  0  0  0  0  0  0  0  0  0  0  0
   -9.1449    2.7153    0.9725 C   0  0  0  0  0  0  0  0  0  0  0  0
  -10.5268    1.5192   -0.6093 C   0  0  0  0  0  0  0  0  0  0  0  0
   -6.1923    2.7600   -2.9669 H   0  0  0  0  0  0  0  0  0  0  0  0
   -6.9076    1.7315   -4.3227 H   0  0  0  0  0  0  0  0  0  0  0  0
   -6.2786    0.9787   -2.8337 H   0  0  0  0  0  0  0  0  0  0  0  0
   -8.6662    2.8599   -3.1271 H   0  0  0  0  0  0  0  0  0  0  0  0
   -9.1258   -0.0030   -2.2897 H   0  0  0  0  0  0  0  0  0  0  0  0
   -8.3413    0.1838   -3.9151 H   0  0  0  0  0  0  0  0  0  0  0  0
   -9.8821    0.9668   -3.5817 H   0  0  0  0  0  0  0  0  0  0  0  0
   -7.4226    3.0497   -1.0701 H   0  0  0  0  0  0  0  0  0  0  0  0
   -8.0947    0.2258   -0.3178 H   0  0  0  0  0  0  0  0  0  0  0  0
   -5.6229   -0.8876   -0.1305 H   0  0  0  0  0  0  0  0  0  0  0  0
   -7.4805   -0.8497    1.2893 H   0  0  0  0  0  0  0  0  0  0  0  0
   -6.7940    0.2869    2.4699 H   0  0  0  0  0  0  0  0  0  0  0  0
   -5.9864   -2.6402    1.9085 H   0  0  0  0  0  0  0  0  0  0  0  0
   -4.6404   -0.5841    3.7326 H   0  0  0  0  0  0  0  0  0  0  0  0
   -3.8762   -1.9804    2.7654 H   0  0  0  0  0  0  0  0  0  0  0  0
   -4.8396   -2.2724    4.2049 H   0  0  0  0  0  0  0  0  0  0  0  0
   -8.1404   -1.9009    3.2450 H   0  0  0  0  0  0  0  0  0  0  0  0
   -6.9622   -1.5006    4.5442 H   0  0  0  0  0  0  0  0  0  0  0  0
   -6.9877   -3.1359    3.8617 H   0  0  0  0  0  0  0  0  0  0  0  0
   -4.0158    0.7106    1.8288 H   0  0  0  0  0  0  0  0  0  0  0  0
   -1.4981   -0.5956    1.6378 H   0  0  0  0  0  0  0  0  0  0  0  0
   -2.1956    1.6543    1.7002 H   0  0  0  0  0  0  0  0  0  0  0  0
   -0.4966    1.4726    1.2262 H   0  0  0  0  0  0  0  0  0  0  0  0
   -1.8738    4.0603    0.5042 H   0  0  0  0  0  0  0  0  0  0  0  0
   -0.9978   -0.5934   -1.3616 H   0  0  0  0  0  0  0  0  0  0  0  0
    1.6882   -1.2176   -1.5113 H   0  0  0  0  0  0  0  0  0  0  0  0
    1.8515   -3.5920   -2.0451 H   0  0  0  0  0  0  0  0  0  0  0  0
    0.8994   -4.0316   -0.5516 H   0  0  0  0  0  0  0  0  0  0  0  0
   -1.1124   -2.9663   -1.7273 H   0  0  0  0  0  0  0  0  0  0  0  0
    0.4024   -3.0353   -4.3504 H   0  0  0  0  0  0  0  0  0  0  0  0
    0.4719   -1.5769   -3.2871 H   0  0  0  0  0  0  0  0  0  0  0  0
   -1.1432   -2.2156   -3.8459 H   0  0  0  0  0  0  0  0  0  0  0  0
   -1.1347   -5.2028   -1.8644 H   0  0  0  0  0  0  0  0  0  0  0  0
    0.4935   -5.3840   -2.5457 H   0  0  0  0  0  0  0  0  0  0  0  0
   -0.9247   -4.8795   -3.6256 H   0  0  0  0  0  0  0  0  0  0  0  0
    2.5547   -3.1741    0.5618 H   0  0  0  0  0  0  0  0  0  0  0  0
    5.6040   -2.0916    0.1004 H   0  0  0  0  0  0  0  0  0  0  0  0
    4.3979   -3.3321    1.8394 H   0  0  0  0  0  0  0  0  0  0  0  0
    3.9778   -1.8921    2.7661 H   0  0  0  0  0  0  0  0  0  0  0  0
    6.4368   -1.5231    3.2687 H   0  0  0  0  0  0  0  0  0  0  0  0
    4.8146   -3.9719    4.0130 H   0  0  0  0  0  0  0  0  0  0  0  0
    5.3192   -2.5407    4.9579 H   0  0  0  0  0  0  0  0  0  0  0  0
    6.5027   -3.8420    4.5570 H   0  0  0  0  0  0  0  0  0  0  0  0
    6.7484   -4.0567    1.5747 H   0  0  0  0  0  0  0  0  0  0  0  0
    7.7027   -3.7560    3.0472 H   0  0  0  0  0  0  0  0  0  0  0  0
    7.7862   -2.5561    1.7384 H   0  0  0  0  0  0  0  0  0  0  0  0
    5.1282    0.3235    1.7962 H   0  0  0  0  0  0  0  0  0  0  0  0
    6.3005    2.3345    0.4386 H   0  0  0  0  0  0  0  0  0  0  0  0
    6.7035    1.5145    2.6822 H   0  0  0  0  0  0  0  0  0  0  0  0
    7.8886    2.7997    2.2562 H   0  0  0  0  0  0  0  0  0  0  0  0
    8.6554    1.2415    4.5194 H   0  0  0  0  0  0  0  0  0  0  0  0
    9.0626    1.3928   -0.3349 H   0  0  0  0  0  0  0  0  0  0  0  0
    7.8601    4.8670   -3.0315 H   0  0  0  0  0  0  0  0  0  0  0  0
    9.5369    5.5969   -4.6972 H   0  0  0  0  0  0  0  0  0  0  0  0
   11.7340    4.4926   -4.8374 H   0  0  0  0  0  0  0  0  0  0  0  0
   12.1964    2.6382   -3.2578 H   0  0  0  0  0  0  0  0  0  0  0  0
   10.5169    1.9177   -1.5984 H   0  0  0  0  0  0  0  0  0  0  0  0
   -9.8211    3.5455   -0.8848 H   0  0  0  0  0  0  0  0  0  0  0  0
   -9.9940    3.2316    1.4702 H   0  0  0  0  0  0  0  0  0  0  0  0
   -9.1006    1.6942    1.3949 H   0  0  0  0  0  0  0  0  0  0  0  0
   -8.1838    3.1982    1.1620 H   0  0  0  0  0  0  0  0  0  0  0  0
  -10.1361    0.5578   -0.2084 H   0  0  0  0  0  0  0  0  0  0  0  0
  -11.3173    1.8179    0.1380 H   0  0  0  0  0  0  0  0  0  0  0  0
  -11.0358    1.4568   -1.5692 H   0  0  0  0  0  0  0  0  0  0  0  0
  1  2  1  0
  2  3  1  0
  2  4  1  0
  4  5  1  0
  5  6  1  0
  6  7  2  0
  6  8  1  0
  8  9  1  0
  9 10  1  0
 10 11  1  0
 10 12  1  0
  8 13  1  0
 13 14  1  0
 14 15  2  0
 14 16  1  0
 16 17  1  0
 17 18  1  0
 18 19  1  0
 18 20  2  0
 16 21  1  0
 21 22  1  0
 22 23  2  0
 22 24  1  0
 24 25  1  0
 25 26  1  0
 26 27  1  0
 26 28  1  0
 24 29  1  0
 29 30  1  0
 30 31  2  0
 30 32  1  0
 32 33  1  0
 33 34  1  0
 34 35  1  0
 34 36  1  0
 32 37  1  0
 37 38  1  0
 38 39  2  0
 38 40  1  0
 40 41  1  0
 41 42  1  0
 42 43  1  0
 42 44  2  0
 40 45  1  0
 45 46  1  0
 46 47  2  0
 46 48  1  0
 48 49  2  0
 49 50  1  0
 50 51  2  0
 51 52  1  0
 52 53  2  0
  4 54  1  0
 54 55  1  0
 54 56  1  0
 53 48  1  0
  1 57  1  0
  1 58  1  0
  1 59  1  0
  2 60  1  0
  3 61  1  0
  3 62  1  0
  3 63  1  0
  4 64  1  0
  5 65  1  0
  8 66  1  6
  9 67  1  0
  9 68  1  0
 10 69  1  0
 11 70  1  0
 11 71  1  0
 11 72  1  0
 12 73  1  0
 12 74  1  0
 12 75  1  0
 13 76  1  0
 16 77  1  1
 17 78  1  0
 17 79  1  0
 19 80  1  0
 21 81  1  0
 24 82  1  6
 25 83  1  0
 25 84  1  0
 26 85  1  0
 27 86  1  0
 27 87  1  0
 27 88  1  0
 28 89  1  0
 28 90  1  0
 28 91  1  0
 29 92  1  0
 32 93  1  6
 33 94  1  0
 33 95  1  0
 34 96  1  0
 35 97  1  0
 35 98  1  0
 35 99  1  0
 36100  1  0
 36101  1  0
 36102  1  0
 37103  1  0
 40104  1  1
 41105  1  0
 41106  1  0
 43107  1  0
 45108  1  0
 49109  1  0
 50110  1  0
 51111  1  0
 52112  1  0
 53113  1  0
 54114  1  0
 55115  1  0
 55116  1  0
 55117  1  0
 56118  1  0
 56119  1  0
 56120  1  0
M  END
$$$$
[H]OC([H])([H])C([H])([H])N1C([H])([H])C([H])([H])N(c2c([H])c([H])c(N([H])c3nc([H])c(Cl)c(N([H])c4c([H])c([H])c([H])c([H])c4S(=O)(=O)C([H])(C([H])([H])[H])C([H])([H])[H])n3)c(OC([H])([H])[H])c2[H])C([H])([H])C1([H])[H]
     RDKit          3D

 71 74  0  0  0  0  0  0  0  0999 V2000
   -1.7893   -3.9041   -0.7640 C   0  0  0  0  0  0  0  0  0  0  0  0
   -1.2396   -2.6377   -0.5690 O   0  0  0  0  0  0  0  0  0  0  0  0
   -1.9110   -1.5353   -0.1165 C   0  0  0  0  0  0  0  0  0  0  0  0
   -3.2344   -1.5717    0.1992 C   0  0  0  0  0  0  0  0  0  0  0  0
   -3.9436   -0.4850    0.6570 C   0  0  0  0  0  0  0  0  0  0  0  0
   -3.2308    0.6802    0.7857 C   0  0  0  0  0  0  0  0  0  0  0  0
   -1.8676    0.7628    0.4721 C   0  0  0  0  0  0  0  0  0  0  0  0
   -1.1928   -0.3354    0.0198 C   0  0  0  0  0  0  0  0  0  0  0  0
    0.1850   -0.3249   -0.3096 N   0  0  0  0  0  0  0  0  0  0  0  0
    1.0996    0.7427   -0.2884 C   0  0  0  0  0  0  0  0  0  0  0  0
    0.8346    1.9911    0.0526 N   0  0  0  0  0  0  0  0  0  0  0  0
    1.7030    2.9927    0.0718 C   0  0  0  0  0  0  0  0  0  0  0  0
    3.0008    2.7437   -0.2892 C   0  0  0  0  0  0  0  0  0  0  0  0
    4.2287    3.9820   -0.3033 Cl  0  0  0  0  0  0  0  0  0  0  0  0
    3.3330    1.4292   -0.6606 C   0  0  0  0  0  0  0  0  0  0  0  0
    4.6672    1.1776   -1.0092 N   0  0  0  0  0  0  0  0  0  0  0  0
    5.2928    0.0034   -1.4309 C   0  0  0  0  0  0  0  0  0  0  0  0
    4.5978   -1.1073   -1.7958 C   0  0  0  0  0  0  0  0  0  0  0  0
    5.2466   -2.2638   -2.2667 C   0  0  0  0  0  0  0  0  0  0  0  0
    6.6116   -2.3247   -2.3802 C   0  0  0  0  0  0  0  0  0  0  0  0
    7.3075   -1.2015   -2.0105 C   0  0  0  0  0  0  0  0  0  0  0  0
    6.6950   -0.0521   -1.5438 C   0  0  0  0  0  0  0  0  0  0  0  0
    7.7119    1.2939   -1.0649 S   0  0  0  0  0  0  0  0  0  0  0  0
    9.1579    0.8771   -1.3356 O   0  0  0  0  0  0  0  0  0  0  0  0
    7.4833    2.5141   -1.9224 O   0  0  0  0  0  0  0  0  0  0  0  0
    7.6118    1.6653    0.6515 C   0  0  0  0  0  0  0  0  0  0  0  0
    8.1303    0.4874    1.4838 C   0  0  0  0  0  0  0  0  0  0  0  0
    8.5859    2.8120    0.9533 C   0  0  0  0  0  0  0  0  0  0  0  0
    2.4001    0.5054   -0.6473 N   0  0  0  0  0  0  0  0  0  0  0  0
   -5.3415   -0.5622    0.9783 N   0  0  0  0  0  0  0  0  0  0  0  0
   -5.9865   -1.8233    0.7658 C   0  0  0  0  0  0  0  0  0  0  0  0
   -7.3848   -1.8545    1.2693 C   0  0  0  0  0  0  0  0  0  0  0  0
   -8.0549   -0.5532    1.0155 N   0  0  0  0  0  0  0  0  0  0  0  0
   -8.2196   -0.3659   -0.3735 C   0  0  0  0  0  0  0  0  0  0  0  0
   -8.9214    0.8493   -0.8273 C   0  0  0  0  0  0  0  0  0  0  0  0
   -8.2646    2.0082   -0.4597 O   0  0  0  0  0  0  0  0  0  0  0  0
   -7.4219    0.4517    1.7914 C   0  0  0  0  0  0  0  0  0  0  0  0
   -5.9618    0.6161    1.4782 C   0  0  0  0  0  0  0  0  0  0  0  0
   -1.1929   -4.5125   -1.4748 H   0  0  0  0  0  0  0  0  0  0  0  0
   -1.7703   -4.4410    0.2066 H   0  0  0  0  0  0  0  0  0  0  0  0
   -2.8206   -3.8739   -1.1671 H   0  0  0  0  0  0  0  0  0  0  0  0
   -3.8097   -2.5087    0.0957 H   0  0  0  0  0  0  0  0  0  0  0  0
   -3.7471    1.5807    1.1481 H   0  0  0  0  0  0  0  0  0  0  0  0
   -1.3972    1.7289    0.6101 H   0  0  0  0  0  0  0  0  0  0  0  0
    0.5920   -1.2726   -0.6206 H   0  0  0  0  0  0  0  0  0  0  0  0
    1.4458    4.0149    0.3602 H   0  0  0  0  0  0  0  0  0  0  0  0
    5.3467    2.0247   -0.9719 H   0  0  0  0  0  0  0  0  0  0  0  0
    3.4996   -1.1907   -1.7654 H   0  0  0  0  0  0  0  0  0  0  0  0
    4.6638   -3.1114   -2.5412 H   0  0  0  0  0  0  0  0  0  0  0  0
    7.1050   -3.2267   -2.7471 H   0  0  0  0  0  0  0  0  0  0  0  0
    8.3815   -1.2538   -2.1017 H   0  0  0  0  0  0  0  0  0  0  0  0
    6.6044    1.9194    0.9425 H   0  0  0  0  0  0  0  0  0  0  0  0
    7.4620   -0.3752    1.3502 H   0  0  0  0  0  0  0  0  0  0  0  0
    9.1232    0.2330    1.0760 H   0  0  0  0  0  0  0  0  0  0  0  0
    8.1888    0.8384    2.5343 H   0  0  0  0  0  0  0  0  0  0  0  0
    9.6145    2.4970    0.6783 H   0  0  0  0  0  0  0  0  0  0  0  0
    8.3109    3.6581    0.2925 H   0  0  0  0  0  0  0  0  0  0  0  0
    8.5029    3.0617    2.0234 H   0  0  0  0  0  0  0  0  0  0  0  0
   -5.9837   -2.0797   -0.3179 H   0  0  0  0  0  0  0  0  0  0  0  0
   -5.4047   -2.5813    1.3551 H   0  0  0  0  0  0  0  0  0  0  0  0
   -7.4915   -2.1380    2.3196 H   0  0  0  0  0  0  0  0  0  0  0  0
   -7.9657   -2.5786    0.6447 H   0  0  0  0  0  0  0  0  0  0  0  0
   -8.8404   -1.2544   -0.7335 H   0  0  0  0  0  0  0  0  0  0  0  0
   -7.2466   -0.5281   -0.9141 H   0  0  0  0  0  0  0  0  0  0  0  0
   -8.9672    0.8975   -1.9622 H   0  0  0  0  0  0  0  0  0  0  0  0
  -10.0018    0.8753   -0.5414 H   0  0  0  0  0  0  0  0  0  0  0  0
   -7.4193    2.0810   -0.9660 H   0  0  0  0  0  0  0  0  0  0  0  0
   -7.5579    0.1298    2.8782 H   0  0  0  0  0  0  0  0  0  0  0  0
   -7.9304    1.4063    1.7340 H   0  0  0  0  0  0  0  0  0  0  0  0
   -5.7508    1.4599    0.8224 H   0  0  0  0  0  0  0  0  0  0  0  0
   -5.4619    0.8367    2.4706 H   0  0  0  0  0  0  0  0  0  0  0  0
  1  2  1  0
  2  3  1  0
  3  4  2  0
  4  5  1  0
  5  6  2  0
  6  7  1  0
  7  8  2  0
  8  9  1  0
  9 10  1  0
 10 11  2  0
 11 12  1  0
 12 13  2  0
 13 14  1  0
 13 15  1  0
 15 16  1  0
 16 17  1  0
 17 18  2  0
 18 19  1  0
 19 20  2  0
 20 21  1  0
 21 22  2  0
 22 23  1  0
 23 24  2  0
 23 25  2  0
 23 26  1  0
 26 27  1  0
 26 28  1  0
 15 29  2  0
  5 30  1  0
 30 31  1  0
 31 32  1  0
 32 33  1  0
 33 34  1  0
 34 35  1  0
 35 36  1  0
 33 37  1  0
 37 38  1  0
  8  3  1  0
 29 10  1  0
 38 30  1  0
 22 17  1  0
  1 39  1  0
  1 40  1  0
  1 41  1  0
  4 42  1  0
  6 43  1  0
  7 44  1  0
  9 45  1  0
 12 46  1  0
 16 47  1  0
 18 48  1  0
 19 49  1  0
 20 50  1  0
 21 51  1  0
 26 52  1  0
 27 53  1  0
 27 54  1  0
 27 55  1  0
 28 56  1  0
 28 57  1  0
 28 58  1  0
 31 59  1  0
 31 60  1  0
 32 61  1  0
 32 62  1  0
 34 63  1  0
 34 64  1  0
 35 65  1  0
 35 66  1  0
 36 67  1  0
 37 68  1  0
 37 69  1  0
 38 70  1  0
 38 71  1  0
M  END
$$$$
[H]OC(=O)C([H])([H])[C@@]([H])(C(=O)N([H])[C@]([H])(C(=O)O[H])C([H])([H])c1c([H])c([H])c([H])c([H])c1[H])N([H])C(=O)[C@@]([H])(N([H])C(=O)[C@@]([H])(N([H])C(=O)[C@@]([H])(N([H])C(=O)OC([H])([H])c1c([H])c([H])c([H])c([H])c1[H])C([H])([H])c1c([H])c([H])c([H])c([H])c1[H])[C@@]([H])(C([H])([H])[H])C([H])([H])C([H])([H])[H])C([H])([H])c1c([H])c([H])c([H])c([H])c1[H]
     RDKit          3D

111114  0  0  0  0  0  0  0  0999 V2000
    0.1453   -5.4093    1.7002 C   0  0  0  0  0  0  0  0  0  0  0  0
   -0.0183   -4.2144    2.6229 C   0  0  0  0  0  0  0  0  0  0  0  0
    1.1336   -3.2651    2.4864 C   0  0  2  0  0  0  0  0  0  0  0  0
    0.8348   -2.1344    3.4868 C   0  0  0  0  0  0  0  0  0  0  0  0
    1.4406   -2.7243    1.1528 C   0  0  2  0  0  0  0  0  0  0  0  0
    2.6661   -1.8690    1.2495 N   0  0  0  0  0  0  0  0  0  0  0  0
    3.4357   -1.5462    0.1191 C   0  0  0  0  0  0  0  0  0  0  0  0
    3.0409   -2.0180   -1.0041 O   0  0  0  0  0  0  0  0  0  0  0  0
    4.6391   -0.6960    0.2256 C   0  0  2  0  0  0  0  0  0  0  0  0
    4.4015    0.5100    1.0971 C   0  0  0  0  0  0  0  0  0  0  0  0
    5.6305    1.3384    1.1803 C   0  0  0  0  0  0  0  0  0  0  0  0
    6.5590    1.0737    2.1707 C   0  0  0  0  0  0  0  0  0  0  0  0
    7.7174    1.8159    2.2968 C   0  0  0  0  0  0  0  0  0  0  0  0
    7.9266    2.8416    1.3978 C   0  0  0  0  0  0  0  0  0  0  0  0
    7.0032    3.1058    0.4110 C   0  0  0  0  0  0  0  0  0  0  0  0
    5.8443    2.3693    0.2784 C   0  0  0  0  0  0  0  0  0  0  0  0
    5.0318   -0.3798   -1.1207 N   0  0  0  0  0  0  0  0  0  0  0  0
    6.2473   -0.6062   -1.7557 C   0  0  0  0  0  0  0  0  0  0  0  0
    7.1920   -1.1526   -1.1385 O   0  0  0  0  0  0  0  0  0  0  0  0
    6.4318   -0.2347   -3.0701 O   0  0  0  0  0  0  0  0  0  0  0  0
    7.6041   -0.4075   -3.7997 C   0  0  0  0  0  0  0  0  0  0  0  0
    8.6967    0.3625   -3.1229 C   0  0  0  0  0  0  0  0  0  0  0  0
    8.5612    1.7245   -3.0795 C   0  0  0  0  0  0  0  0  0  0  0  0
    9.5162    2.5137   -2.4999 C   0  0  0  0  0  0  0  0  0  0  0  0
   10.6341    1.9453   -1.9484 C   0  0  0  0  0  0  0  0  0  0  0  0
   10.7822    0.5819   -1.9845 C   0  0  0  0  0  0  0  0  0  0  0  0
    9.8071   -0.2213   -2.5755 C   0  0  0  0  0  0  0  0  0  0  0  0
    0.4097   -1.9121    0.4719 C   0  0  0  0  0  0  0  0  0  0  0  0
    0.7728   -0.7110    0.1602 O   0  0  0  0  0  0  0  0  0  0  0  0
   -0.8959   -2.2178    0.0946 N   0  0  0  0  0  0  0  0  0  0  0  0
   -1.7490   -1.2615   -0.6180 C   0  0  1  0  0  0  0  0  0  0  0  0
   -2.4173   -1.8859   -1.7875 C   0  0  0  0  0  0  0  0  0  0  0  0
   -1.4664   -2.4301   -2.7837 C   0  0  0  0  0  0  0  0  0  0  0  0
   -1.0013   -1.6792   -3.8288 C   0  0  0  0  0  0  0  0  0  0  0  0
   -0.1027   -2.2245   -4.7491 C   0  0  0  0  0  0  0  0  0  0  0  0
    0.3104   -3.5493   -4.5799 C   0  0  0  0  0  0  0  0  0  0  0  0
   -0.1519   -4.3138   -3.5313 C   0  0  0  0  0  0  0  0  0  0  0  0
   -1.0420   -3.7246   -2.6474 C   0  0  0  0  0  0  0  0  0  0  0  0
   -2.7229   -0.5780    0.2371 C   0  0  0  0  0  0  0  0  0  0  0  0
   -2.8433   -0.7640    1.4761 O   0  0  0  0  0  0  0  0  0  0  0  0
   -3.5987    0.3645   -0.3487 N   0  0  0  0  0  0  0  0  0  0  0  0
   -4.6021    1.1394    0.3212 C   0  0  1  0  0  0  0  0  0  0  0  0
   -4.5618    2.5908   -0.0626 C   0  0  0  0  0  0  0  0  0  0  0  0
   -3.2504    3.2006    0.2748 C   0  0  0  0  0  0  0  0  0  0  0  0
   -2.9889    4.5266   -0.0098 O   0  0  0  0  0  0  0  0  0  0  0  0
   -2.3309    2.5328    0.8315 O   0  0  0  0  0  0  0  0  0  0  0  0
   -5.9899    0.6181    0.0268 C   0  0  0  0  0  0  0  0  0  0  0  0
   -6.2112   -0.4002   -0.6532 O   0  0  0  0  0  0  0  0  0  0  0  0
   -7.1103    1.3302    0.5553 N   0  0  0  0  0  0  0  0  0  0  0  0
   -8.4681    0.8841    0.3208 C   0  0  1  0  0  0  0  0  0  0  0  0
   -9.3188    0.9096    1.5439 C   0  0  0  0  0  0  0  0  0  0  0  0
   -9.4851    2.2242    2.1748 C   0  0  0  0  0  0  0  0  0  0  0  0
   -8.5730    2.6246    3.1273 C   0  0  0  0  0  0  0  0  0  0  0  0
   -8.6931    3.8496    3.7464 C   0  0  0  0  0  0  0  0  0  0  0  0
   -9.7422    4.6913    3.4096 C   0  0  0  0  0  0  0  0  0  0  0  0
  -10.6522    4.2894    2.4586 C   0  0  0  0  0  0  0  0  0  0  0  0
  -10.5255    3.0648    1.8452 C   0  0  0  0  0  0  0  0  0  0  0  0
   -9.0480    1.6991   -0.8010 C   0  0  0  0  0  0  0  0  0  0  0  0
  -10.3154    1.4967   -1.2838 O   0  0  0  0  0  0  0  0  0  0  0  0
   -8.3352    2.5891   -1.3030 O   0  0  0  0  0  0  0  0  0  0  0  0
    1.1633   -5.8098    1.8871 H   0  0  0  0  0  0  0  0  0  0  0  0
    0.1172   -5.0588    0.6515 H   0  0  0  0  0  0  0  0  0  0  0  0
   -0.6573   -6.1382    1.8229 H   0  0  0  0  0  0  0  0  0  0  0  0
   -0.9874   -3.7083    2.5102 H   0  0  0  0  0  0  0  0  0  0  0  0
    0.0008   -4.5661    3.7008 H   0  0  0  0  0  0  0  0  0  0  0  0
    2.0328   -3.8341    2.8680 H   0  0  0  0  0  0  0  0  0  0  0  0
    1.2517   -1.1757    3.1921 H   0  0  0  0  0  0  0  0  0  0  0  0
    1.2865   -2.4380    4.4505 H   0  0  0  0  0  0  0  0  0  0  0  0
   -0.2646   -2.0534    3.6067 H   0  0  0  0  0  0  0  0  0  0  0  0
    1.7254   -3.5207    0.4392 H   0  0  0  0  0  0  0  0  0  0  0  0
    2.9491   -1.5155    2.1779 H   0  0  0  0  0  0  0  0  0  0  0  0
    5.4234   -1.2886    0.7527 H   0  0  0  0  0  0  0  0  0  0  0  0
    4.0460    0.1859    2.0744 H   0  0  0  0  0  0  0  0  0  0  0  0
    3.6021    1.1182    0.6043 H   0  0  0  0  0  0  0  0  0  0  0  0
    6.3833    0.2539    2.8821 H   0  0  0  0  0  0  0  0  0  0  0  0
    8.4151    1.5687    3.0843 H   0  0  0  0  0  0  0  0  0  0  0  0
    8.8426    3.4390    1.4841 H   0  0  0  0  0  0  0  0  0  0  0  0
    7.2104    3.9270   -0.2756 H   0  0  0  0  0  0  0  0  0  0  0  0
    5.1155    2.5892   -0.5111 H   0  0  0  0  0  0  0  0  0  0  0  0
    4.2613    0.0949   -1.6931 H   0  0  0  0  0  0  0  0  0  0  0  0
    7.9058   -1.4579   -3.9281 H   0  0  0  0  0  0  0  0  0  0  0  0
    7.4705    0.0404   -4.8112 H   0  0  0  0  0  0  0  0  0  0  0  0
    7.6932    2.1841   -3.5066 H   0  0  0  0  0  0  0  0  0  0  0  0
    9.4401    3.6076   -2.4483 H   0  0  0  0  0  0  0  0  0  0  0  0
   11.4039    2.5576   -1.4826 H   0  0  0  0  0  0  0  0  0  0  0  0
   11.6640    0.1274   -1.5502 H   0  0  0  0  0  0  0  0  0  0  0  0
    9.9131   -1.3016   -2.6101 H   0  0  0  0  0  0  0  0  0  0  0  0
   -1.2934   -3.1566    0.3042 H   0  0  0  0  0  0  0  0  0  0  0  0
   -1.0560   -0.4603   -0.9817 H   0  0  0  0  0  0  0  0  0  0  0  0
   -3.0508   -1.1632   -2.3054 H   0  0  0  0  0  0  0  0  0  0  0  0
   -3.1087   -2.6874   -1.4095 H   0  0  0  0  0  0  0  0  0  0  0  0
   -1.3153   -0.6434   -3.9714 H   0  0  0  0  0  0  0  0  0  0  0  0
    0.2731   -1.6416   -5.5837 H   0  0  0  0  0  0  0  0  0  0  0  0
    1.0107   -4.0045   -5.2793 H   0  0  0  0  0  0  0  0  0  0  0  0
    0.1676   -5.3560   -3.3912 H   0  0  0  0  0  0  0  0  0  0  0  0
   -1.3865   -4.3584   -1.8287 H   0  0  0  0  0  0  0  0  0  0  0  0
   -3.5222    0.5373   -1.3936 H   0  0  0  0  0  0  0  0  0  0  0  0
   -4.5128    1.0410    1.4208 H   0  0  0  0  0  0  0  0  0  0  0  0
   -4.7368    2.6379   -1.1692 H   0  0  0  0  0  0  0  0  0  0  0  0
   -5.3257    3.2026    0.4477 H   0  0  0  0  0  0  0  0  0  0  0  0
   -2.3453    4.8268   -0.7342 H   0  0  0  0  0  0  0  0  0  0  0  0
   -6.9370    2.1883    1.1183 H   0  0  0  0  0  0  0  0  0  0  0  0
   -8.4450   -0.1644   -0.1074 H   0  0  0  0  0  0  0  0  0  0  0  0
   -8.8514    0.2206    2.2930 H   0  0  0  0  0  0  0  0  0  0  0  0
  -10.3429    0.5014    1.3686 H   0  0  0  0  0  0  0  0  0  0  0  0
   -7.7338    2.0140    3.4312 H   0  0  0  0  0  0  0  0  0  0  0  0
   -7.9590    4.1637    4.5038 H   0  0  0  0  0  0  0  0  0  0  0  0
   -9.8632    5.6623    3.8784 H   0  0  0  0  0  0  0  0  0  0  0  0
  -11.4919    4.9321    2.1730 H   0  0  0  0  0  0  0  0  0  0  0  0
  -11.2763    2.7732    1.0912 H   0  0  0  0  0  0  0  0  0  0  0  0
  -10.5088    0.8299   -2.0161 H   0  0  0  0  0  0  0  0  0  0  0  0
  1  2  1  0
  2  3  1  0
  3  4  1  0
  3  5  1  0
  5  6  1  0
  6  7  1  0
  7  8  2  0
  7  9  1  0
  9 10  1  0
 10 11  1  0
 11 12  2  0
 12 13  1  0
 13 14  2  0
 14 15  1  0
 15 16  2  0
  9 17  1  0
 17 18  1  0
 18 19  2  0
 18 20  1  0
 20 21  1  0
 21 22  1  0
 22 23  2  0
 23 24  1  0
 24 25  2  0
 25 26  1  0
 26 27  2  0
  5 28  1  0
 28 29  2  0
 28 30  1  0
 30 31  1  0
 31 32  1  0
 32 33  1  0
 33 34  2  0
 34 35  1  0
 35 36  2  0
 36 37  1  0
 37 38  2  0
 31 39  1  0
 39 40  2  0
 39 41  1  0
 41 42  1  0
 42 43  1  0
 43 44  1  0
 44 45  1  0
 44 46  2  0
 42 47  1  0
 47 48  2  0
 47 49  1  0
 49 50  1  0
 50 51  1  0
 51 52  1  0
 52 53  2  0
 53 54  1  0
 54 55  2  0
 55 56  1  0
 56 57  2  0
 50 58  1  0
 58 59  1  0
 58 60  2  0
 16 11  1  0
 27 22  1  0
 38 33  1  0
 57 52  1  0
  1 61  1  0
  1 62  1  0
  1 63  1  0
  2 64  1  0
  2 65  1  0
  3 66  1  1
  4 67  1  0
  4 68  1  0
  4 69  1  0
  5 70  1  6
  6 71  1  0
  9 72  1  1
 10 73  1  0
 10 74  1  0
 12 75  1  0
 13 76  1  0
 14 77  1  0
 15 78  1  0
 16 79  1  0
 17 80  1  0
 21 81  1  0
 21 82  1  0
 23 83  1  0
 24 84  1  0
 25 85  1  0
 26 86  1  0
 27 87  1  0
 30 88  1  0
 31 89  1  6
 32 90  1  0
 32 91  1  0
 34 92  1  0
 35 93  1  0
 36 94  1  0
 37 95  1  0
 38 96  1  0
 41 97  1  0
 42 98  1  1
 43 99  1  0
 43100  1  0
 45101  1  0
 49102  1  0
 50103  1  6
 51104  1  0
 51105  1  0
 53106  1  0
 54107  1  0
 55108  1  0
 56109  1  0
 57110  1  0
 59111  1  0
M  END
$$$$
[H]c1c([H])c([H])c(C([H])([H])OC(=O)N([H])[C@]([H])(C(=O)N([H])[C@]([H])(C(=O)N([H])[C@]([H])(C(=O)N([H])[C@]([H])(C(=O)N([H])[C@]([H])(C(=O)N([H])[H])C([H])([H])c2c([H])c([H])c([H])c([H])c2[H])C([H])([H])c2c([H])c([H])c([H])c([H])c2[H])C([H])([H])c2c([H])c([H])c([H])c([H])c2[H])C([H])([H])C([H])(C([H])([H])[H])C([H])([H])[H])C([H])([H])c2c([H])c([H])c([H])c([H])c2[H])c([H])c1[H]
     RDKit          3D

119123  0  0  0  0  0  0  0  0999 V2000
    3.6690   -0.2122   -5.6596 C   0  0  0  0  0  0  0  0  0  0  0  0
    3.7098    0.5553   -4.3386 C   0  0  0  0  0  0  0  0  0  0  0  0
    3.8876    2.0069   -4.6635 C   0  0  0  0  0  0  0  0  0  0  0  0
    2.3858    0.2427   -3.6682 C   0  0  0  0  0  0  0  0  0  0  0  0
    2.1974    0.9025   -2.3572 C   0  0  2  0  0  0  0  0  0  0  0  0
    3.2170    0.5461   -1.3862 N   0  0  0  0  0  0  0  0  0  0  0  0
    3.7567    1.4557   -0.4569 C   0  0  0  0  0  0  0  0  0  0  0  0
    3.2661    2.6599   -0.5248 O   0  0  0  0  0  0  0  0  0  0  0  0
    4.7711    1.2407    0.5456 C   0  0  2  0  0  0  0  0  0  0  0  0
    4.5458    0.2464    1.6394 C   0  0  0  0  0  0  0  0  0  0  0  0
    4.3509   -1.1515    1.2397 C   0  0  0  0  0  0  0  0  0  0  0  0
    5.4678   -1.8808    0.9187 C   0  0  0  0  0  0  0  0  0  0  0  0
    5.3206   -3.2215    0.5906 C   0  0  0  0  0  0  0  0  0  0  0  0
    4.0929   -3.8231    0.5812 C   0  0  0  0  0  0  0  0  0  0  0  0
    2.9732   -3.0851    0.9049 C   0  0  0  0  0  0  0  0  0  0  0  0
    3.0659   -1.7503    1.2376 C   0  0  0  0  0  0  0  0  0  0  0  0
    5.1290    2.4853    1.2586 N   0  0  0  0  0  0  0  0  0  0  0  0
    6.4818    2.8171    1.3753 C   0  0  0  0  0  0  0  0  0  0  0  0
    7.3400    2.0350    0.8551 O   0  0  0  0  0  0  0  0  0  0  0  0
    6.9018    3.9389    2.0241 O   0  0  0  0  0  0  0  0  0  0  0  0
    8.2644    4.3039    2.1778 C   0  0  0  0  0  0  0  0  0  0  0  0
    8.9007    3.1964    2.9293 C   0  0  0  0  0  0  0  0  0  0  0  0
    9.9302    2.4589    2.4017 C   0  0  0  0  0  0  0  0  0  0  0  0
   10.5174    1.4206    3.0753 C   0  0  0  0  0  0  0  0  0  0  0  0
   10.0596    1.0905    4.3464 C   0  0  0  0  0  0  0  0  0  0  0  0
    9.0265    1.8339    4.8721 C   0  0  0  0  0  0  0  0  0  0  0  0
    8.4375    2.8810    4.1888 C   0  0  0  0  0  0  0  0  0  0  0  0
    0.8494    0.6102   -1.7526 C   0  0  0  0  0  0  0  0  0  0  0  0
    0.8216    0.4387   -0.5152 O   0  0  0  0  0  0  0  0  0  0  0  0
   -0.3355    0.5269   -2.4959 N   0  0  0  0  0  0  0  0  0  0  0  0
   -1.6663    0.2741   -2.0712 C   0  0  1  0  0  0  0  0  0  0  0  0
   -1.9398   -0.8264   -1.1306 C   0  0  0  0  0  0  0  0  0  0  0  0
   -1.5925   -2.1836   -1.4918 C   0  0  0  0  0  0  0  0  0  0  0  0
   -0.4507   -2.8322   -1.0152 C   0  0  0  0  0  0  0  0  0  0  0  0
   -0.1577   -4.1231   -1.3703 C   0  0  0  0  0  0  0  0  0  0  0  0
   -0.9648   -4.8462   -2.2109 C   0  0  0  0  0  0  0  0  0  0  0  0
   -2.0982   -4.2431   -2.7040 C   0  0  0  0  0  0  0  0  0  0  0  0
   -2.3755   -2.9366   -2.3306 C   0  0  0  0  0  0  0  0  0  0  0  0
   -2.2538    1.5634   -1.4544 C   0  0  0  0  0  0  0  0  0  0  0  0
   -1.4838    2.5162   -1.5139 O   0  0  0  0  0  0  0  0  0  0  0  0
   -3.5122    1.5026   -0.9266 N   0  0  0  0  0  0  0  0  0  0  0  0
   -4.7702    1.4419   -0.3990 C   0  0  1  0  0  0  0  0  0  0  0  0
   -5.7879    0.4656   -0.9030 C   0  0  0  0  0  0  0  0  0  0  0  0
   -6.1271    0.6651   -2.3396 C   0  0  0  0  0  0  0  0  0  0  0  0
   -7.1146    1.5837   -2.6731 C   0  0  0  0  0  0  0  0  0  0  0  0
   -7.4743    1.7752   -3.9744 C   0  0  0  0  0  0  0  0  0  0  0  0
   -6.8495    1.0521   -4.9549 C   0  0  0  0  0  0  0  0  0  0  0  0
   -5.8651    0.1359   -4.6465 C   0  0  0  0  0  0  0  0  0  0  0  0
   -5.5032   -0.0574   -3.3265 C   0  0  0  0  0  0  0  0  0  0  0  0
   -4.7552    1.4222    1.1111 C   0  0  0  0  0  0  0  0  0  0  0  0
   -3.9972    2.2394    1.6787 O   0  0  0  0  0  0  0  0  0  0  0  0
   -5.5398    0.5472    1.8950 N   0  0  0  0  0  0  0  0  0  0  0  0
   -5.5096    0.6182    3.3471 C   0  0  1  0  0  0  0  0  0  0  0  0
   -6.8390    0.3600    3.9502 C   0  0  0  0  0  0  0  0  0  0  0  0
   -7.4008   -0.9838    3.6399 C   0  0  0  0  0  0  0  0  0  0  0  0
   -8.1677   -1.2335    2.5350 C   0  0  0  0  0  0  0  0  0  0  0  0
   -8.6921   -2.4813    2.2603 C   0  0  0  0  0  0  0  0  0  0  0  0
   -8.4592   -3.5288    3.0980 C   0  0  0  0  0  0  0  0  0  0  0  0
   -7.6975   -3.3109    4.2107 C   0  0  0  0  0  0  0  0  0  0  0  0
   -7.1677   -2.0603    4.4923 C   0  0  0  0  0  0  0  0  0  0  0  0
   -4.4200   -0.2132    3.9375 C   0  0  0  0  0  0  0  0  0  0  0  0
   -4.1890   -0.2086    5.3188 N   0  0  0  0  0  0  0  0  0  0  0  0
   -3.7328   -0.9015    3.1154 O   0  0  0  0  0  0  0  0  0  0  0  0
    2.8183    0.1105   -6.2836 H   0  0  0  0  0  0  0  0  0  0  0  0
    3.5025   -1.2774   -5.4145 H   0  0  0  0  0  0  0  0  0  0  0  0
    4.6404   -0.1331   -6.1597 H   0  0  0  0  0  0  0  0  0  0  0  0
    4.5674    0.2033   -3.7195 H   0  0  0  0  0  0  0  0  0  0  0  0
    3.2805    2.6943   -4.0522 H   0  0  0  0  0  0  0  0  0  0  0  0
    3.7275    2.1675   -5.7535 H   0  0  0  0  0  0  0  0  0  0  0  0
    4.9739    2.2601   -4.5079 H   0  0  0  0  0  0  0  0  0  0  0  0
    2.3165   -0.8584   -3.5555 H   0  0  0  0  0  0  0  0  0  0  0  0
    1.6098    0.5072   -4.4202 H   0  0  0  0  0  0  0  0  0  0  0  0
    2.2801    2.0377   -2.4217 H   0  0  0  0  0  0  0  0  0  0  0  0
    3.5924   -0.4378   -1.3922 H   0  0  0  0  0  0  0  0  0  0  0  0
    5.7173    0.9105   -0.0155 H   0  0  0  0  0  0  0  0  0  0  0  0
    5.4257    0.2350    2.3593 H   0  0  0  0  0  0  0  0  0  0  0  0
    3.6987    0.5883    2.3253 H   0  0  0  0  0  0  0  0  0  0  0  0
    6.4464   -1.4412    0.9160 H   0  0  0  0  0  0  0  0  0  0  0  0
    6.1893   -3.7897    0.3459 H   0  0  0  0  0  0  0  0  0  0  0  0
    4.0482   -4.8666    0.3137 H   0  0  0  0  0  0  0  0  0  0  0  0
    2.0348   -3.5908    0.8862 H   0  0  0  0  0  0  0  0  0  0  0  0
    2.2033   -1.1495    1.4967 H   0  0  0  0  0  0  0  0  0  0  0  0
    4.3635    3.0527    1.6349 H   0  0  0  0  0  0  0  0  0  0  0  0
    8.6667    4.3906    1.1371 H   0  0  0  0  0  0  0  0  0  0  0  0
    8.3182    5.2682    2.6888 H   0  0  0  0  0  0  0  0  0  0  0  0
   10.2833    2.7267    1.4120 H   0  0  0  0  0  0  0  0  0  0  0  0
   11.3358    0.8207    2.6714 H   0  0  0  0  0  0  0  0  0  0  0  0
   10.5061    0.2708    4.8909 H   0  0  0  0  0  0  0  0  0  0  0  0
    8.6172    1.6334    5.8597 H   0  0  0  0  0  0  0  0  0  0  0  0
    7.6179    3.4372    4.6633 H   0  0  0  0  0  0  0  0  0  0  0  0
   -0.2050    0.6824   -3.5492 H   0  0  0  0  0  0  0  0  0  0  0  0
   -2.3499    0.0938   -2.9678 H   0  0  0  0  0  0  0  0  0  0  0  0
   -1.3295   -0.5930   -0.1853 H   0  0  0  0  0  0  0  0  0  0  0  0
   -2.9859   -0.7468   -0.7277 H   0  0  0  0  0  0  0  0  0  0  0  0
    0.2314   -2.3361   -0.3438 H   0  0  0  0  0  0  0  0  0  0  0  0
    0.7298   -4.6084   -0.9945 H   0  0  0  0  0  0  0  0  0  0  0  0
   -0.7556   -5.8659   -2.5031 H   0  0  0  0  0  0  0  0  0  0  0  0
   -2.7374   -4.8057   -3.3667 H   0  0  0  0  0  0  0  0  0  0  0  0
   -3.2791   -2.5239   -2.7563 H   0  0  0  0  0  0  0  0  0  0  0  0
   -3.3937    2.7910   -0.4284 H   0  0  0  0  0  0  0  0  0  0  0  0
   -5.3240    2.4737   -0.5432 H   0  0  0  0  0  0  0  0  0  0  0  0
   -6.7701    0.5853   -0.3626 H   0  0  0  0  0  0  0  0  0  0  0  0
   -5.4173   -0.5494   -0.6926 H   0  0  0  0  0  0  0  0  0  0  0  0
   -7.5800    2.1324   -1.8441 H   0  0  0  0  0  0  0  0  0  0  0  0
   -8.2564    2.5047   -4.2014 H   0  0  0  0  0  0  0  0  0  0  0  0
   -7.1185    1.1897   -5.9951 H   0  0  0  0  0  0  0  0  0  0  0  0
   -5.3987   -0.4146   -5.4634 H   0  0  0  0  0  0  0  0  0  0  0  0
   -4.7365   -0.7745   -3.0931 H   0  0  0  0  0  0  0  0  0  0  0  0
   -6.1110   -0.1438    1.3896 H   0  0  0  0  0  0  0  0  0  0  0  0
   -5.1925    1.6805    3.5715 H   0  0  0  0  0  0  0  0  0  0  0  0
   -7.5818    1.0887    3.5396 H   0  0  0  0  0  0  0  0  0  0  0  0
   -6.8111    0.5353    5.0553 H   0  0  0  0  0  0  0  0  0  0  0  0
   -8.3971   -0.4255    1.8315 H   0  0  0  0  0  0  0  0  0  0  0  0
   -9.3014   -2.6445    1.3696 H   0  0  0  0  0  0  0  0  0  0  0  0
   -8.8860   -4.5084    2.8577 H   0  0  0  0  0  0  0  0  0  0  0  0
   -7.5019   -4.1255    4.8867 H   0  0  0  0  0  0  0  0  0  0  0  0
   -6.5791   -1.9046    5.3796 H   0  0  0  0  0  0  0  0  0  0  0  0
   -4.0640   -1.1401    5.8091 H   0  0  0  0  0  0  0  0  0  0  0  0
   -4.1270    0.6222    5.9265 H   0  0  0  0  0  0  0  0  0  0  0  0
  1  2  1  0
  2  3  1  0
  2  4  1  0
  4  5  1  0
  5  6  1  0
  6  7  1  0
  7  8  2  0
  7  9  1  0
  9 10  1  0
 10 11  1  0
 11 12  2  0
 12 13  1  0
 13 14  2  0
 14 15  1  0
 15 16  2  0
  9 17  1  0
 17 18  1  0
 18 19  2  0
 18 20  1  0
 20 21  1  0
 21 22  1  0
 22 23  2  0
 23 24  1  0
 24 25  2  0
 25 26  1  0
 26 27  2  0
  5 28  1  0
 28 29  2  0
 28 30  1  0
 30 31  1  0
 31 32  1  0
 32 33  1  0
 33 34  2  0
 34 35  1  0
 35 36  2  0
 36 37  1  0
 37 38  2  0
 31 39  1  0
 39 40  2  0
 39 41  1  0
 41 42  1  0
 42 43  1  0
 43 44  1  0
 44 45  2  0
 45 46  1  0
 46 47  2  0
 47 48  1  0
 48 49  2  0
 42 50  1  0
 50 51  2  0
 50 52  1  0
 52 53  1  0
 53 54  1  0
 54 55  1  0
 55 56  2  0
 56 57  1  0
 57 58  2  0
 58 59  1  0
 59 60  2  0
 53 61  1  0
 61 62  1  0
 61 63  2  0
 16 11  1  0
 27 22  1  0
 38 33  1  0
 49 44  1  0
 60 55  1  0
  1 64  1  0
  1 65  1  0
  1 66  1  0
  2 67  1  0
  3 68  1  0
  3 69  1  0
  3 70  1  0
  4 71  1  0
  4 72  1  0
  5 73  1  6
  6 74  1  0
  9 75  1  6
 10 76  1  0
 10 77  1  0
 12 78  1  0
 13 79  1  0
 14 80  1  0
 15 81  1  0
 16 82  1  0
 17 83  1  0
 21 84  1  0
 21 85  1  0
 23 86  1  0
 24 87  1  0
 25 88  1  0
 26 89  1  0
 27 90  1  0
 30 91  1  0
 31 92  1  6
 32 93  1  0
 32 94  1  0
 34 95  1  0
 35 96  1  0
 36 97  1  0
 37 98  1  0
 38 99  1  0
 41100  1  0
 42101  1  1
 43102  1  0
 43103  1  0
 45104  1  0
 46105  1  0
 47106  1  0
 48107  1  0
 49108  1  0
 52109  1  0
 53110  1  6
 54111  1  0
 54112  1  0
 56113  1  0
 57114  1  0
 58115  1  0
 59116  1  0
 60117  1  0
 62118  1  0
 62119  1  0
M  END
$$$$
[H]c1c([H])c([H])c(C2([H])C([H])([H])C([H])([H])N(C(=O)c3nc4c([H])c(-c5c([H])c([H])c(S(=O)(=O)N([H])[H])c([H])c5[H])c([H])c([H])c4n3[H])C([H])([H])C2([H])[H])c([H])c1[H]
     RDKit          3D

 57 61  0  0  0  0  0  0  0  0999 V2000
   10.4713    1.9466   -1.0596 N   0  0  0  0  0  0  0  0  0  0  0  0
    9.9960    0.5936   -0.1058 S   0  0  0  0  0  0  0  0  0  0  0  0
   10.5432    0.7331    1.2870 O   0  0  0  0  0  0  0  0  0  0  0  0
   10.5223   -0.6508   -0.7669 O   0  0  0  0  0  0  0  0  0  0  0  0
    8.2513    0.4840    0.0113 C   0  0  0  0  0  0  0  0  0  0  0  0
    7.5002   -0.2290   -0.8981 C   0  0  0  0  0  0  0  0  0  0  0  0
    6.1187   -0.3012   -0.7845 C   0  0  0  0  0  0  0  0  0  0  0  0
    5.4495    0.3349    0.2382 C   0  0  0  0  0  0  0  0  0  0  0  0
    6.2502    1.0457    1.1366 C   0  0  0  0  0  0  0  0  0  0  0  0
    7.6044    1.1185    1.0281 C   0  0  0  0  0  0  0  0  0  0  0  0
    4.0013    0.2827    0.3913 C   0  0  0  0  0  0  0  0  0  0  0  0
    3.3439    1.3693    0.9553 C   0  0  0  0  0  0  0  0  0  0  0  0
    1.9728    1.3730    1.1240 C   0  0  0  0  0  0  0  0  0  0  0  0
    1.2368    0.2850    0.7292 C   0  0  0  0  0  0  0  0  0  0  0  0
   -0.1112    0.0416    0.7852 N   0  0  0  0  0  0  0  0  0  0  0  0
   -0.3123   -1.1668    0.2716 C   0  0  0  0  0  0  0  0  0  0  0  0
    0.9162   -1.6724   -0.1033 N   0  0  0  0  0  0  0  0  0  0  0  0
    1.8822   -0.7906    0.1716 C   0  0  0  0  0  0  0  0  0  0  0  0
    3.2700   -0.8140   -0.0079 C   0  0  0  0  0  0  0  0  0  0  0  0
   -1.5441   -1.9015    0.0944 C   0  0  0  0  0  0  0  0  0  0  0  0
   -1.4235   -3.0911   -0.4492 O   0  0  0  0  0  0  0  0  0  0  0  0
   -2.8545   -1.5510    0.4094 N   0  0  0  0  0  0  0  0  0  0  0  0
   -3.1839   -0.2858    1.0113 C   0  0  0  0  0  0  0  0  0  0  0  0
   -4.7272   -0.1356    1.0911 C   0  0  0  0  0  0  0  0  0  0  0  0
   -5.1924   -0.4385   -0.3409 C   0  0  0  0  0  0  0  0  0  0  0  0
   -5.1326   -1.9330   -0.4879 C   0  0  0  0  0  0  0  0  0  0  0  0
   -3.9130   -2.5216    0.1101 C   0  0  0  0  0  0  0  0  0  0  0  0
   -6.5222    0.1129   -0.6008 C   0  0  0  0  0  0  0  0  0  0  0  0
   -7.6330   -0.2652    0.1226 C   0  0  0  0  0  0  0  0  0  0  0  0
   -8.8792    0.2980   -0.1731 C   0  0  0  0  0  0  0  0  0  0  0  0
   -9.0357    1.2309   -1.1770 C   0  0  0  0  0  0  0  0  0  0  0  0
   -7.9212    1.6034   -1.8952 C   0  0  0  0  0  0  0  0  0  0  0  0
   -6.6809    1.0452   -1.6034 C   0  0  0  0  0  0  0  0  0  0  0  0
    9.7814    2.0596   -1.8294 H   0  0  0  0  0  0  0  0  0  0  0  0
   10.4159    2.8238   -0.4829 H   0  0  0  0  0  0  0  0  0  0  0  0
    8.0155   -0.7276   -1.6982 H   0  0  0  0  0  0  0  0  0  0  0  0
    5.5325   -0.8548   -1.4901 H   0  0  0  0  0  0  0  0  0  0  0  0
    5.7586    1.5551    1.9485 H   0  0  0  0  0  0  0  0  0  0  0  0
    8.1683    1.6869    1.7586 H   0  0  0  0  0  0  0  0  0  0  0  0
    3.9052    2.2470    1.2777 H   0  0  0  0  0  0  0  0  0  0  0  0
    1.4647    2.2178    1.5621 H   0  0  0  0  0  0  0  0  0  0  0  0
   -0.7738    0.7403    1.1772 H   0  0  0  0  0  0  0  0  0  0  0  0
    3.7258   -1.6710   -0.4451 H   0  0  0  0  0  0  0  0  0  0  0  0
   -2.8937    0.5180    0.3146 H   0  0  0  0  0  0  0  0  0  0  0  0
   -2.7466   -0.1038    1.9902 H   0  0  0  0  0  0  0  0  0  0  0  0
   -5.0556   -0.9273    1.7869 H   0  0  0  0  0  0  0  0  0  0  0  0
   -4.9649    0.8816    1.3985 H   0  0  0  0  0  0  0  0  0  0  0  0
   -4.4426   -0.0039   -1.0297 H   0  0  0  0  0  0  0  0  0  0  0  0
   -5.3054   -2.2623   -1.5397 H   0  0  0  0  0  0  0  0  0  0  0  0
   -6.0201   -2.3390    0.0798 H   0  0  0  0  0  0  0  0  0  0  0  0
   -3.4996   -3.2726   -0.5856 H   0  0  0  0  0  0  0  0  0  0  0  0
   -4.1184   -3.0524    1.0719 H   0  0  0  0  0  0  0  0  0  0  0  0
   -7.5716   -0.9817    0.9095 H   0  0  0  0  0  0  0  0  0  0  0  0
   -9.7295   -0.0168    0.4092 H   0  0  0  0  0  0  0  0  0  0  0  0
  -10.0175    1.6469   -1.3789 H   0  0  0  0  0  0  0  0  0  0  0  0
   -8.0650    2.3360   -2.6779 H   0  0  0  0  0  0  0  0  0  0  0  0
   -5.8271    1.3499   -2.1753 H   0  0  0  0  0  0  0  0  0  0  0  0
  1  2  1  0
  2  3  2  0
  2  4  2  0
  2  5  1  0
  5  6  2  0
  6  7  1  0
  7  8  2  0
  8  9  1  0
  9 10  2  0
  8 11  1  0
 11 12  2  0
 12 13  1  0
 13 14  2  0
 14 15  1  0
 15 16  1  0
 16 17  2  0
 17 18  1  0
 18 19  2  0
 16 20  1  0
 20 21  2  0
 20 22  1  0
 22 23  1  0
 23 24  1  0
 24 25  1  0
 25 26  1  0
 26 27  1  0
 25 28  1  0
 28 29  2  0
 29 30  1  0
 30 31  2  0
 31 32  1  0
 32 33  2  0
 10  5  1  0
 19 11  1  0
 27 22  1  0
 33 28  1  0
 18 14  1  0
  1 34  1  0
  1 35  1  0
  6 36  1  0
  7 37  1  0
  9 38  1  0
 10 39  1  0
 12 40  1  0
 13 41  1  0
 15 42  1  0
 19 43  1  0
 23 44  1  0
 23 45  1  0
 24 46  1  0
 24 47  1  0
 25 48  1  0
 26 49  1  0
 26 50  1  0
 27 51  1  0
 27 52  1  0
 29 53  1  0
 30 54  1  0
 31 55  1  0
 32 56  1  0
 33 57  1  0
M  END
$$$$
[H]C1=C(c2c([H])c(N3C([H])([H])C([H])([H])N(C([H])([H])[H])C([H])([H])C3([H])[H])c([H])c([H])c2N([H])C(=O)c2nc([H])c(C#N)n2[H])C([H])([H])C([H])([H])C(C([H])([H])[H])(C([H])([H])[H])C1([H])[H]
     RDKit          3D

 61 64  0  0  0  0  0  0  0  0999 V2000
   -5.5858   -4.2685   -1.7287 C   0  0  0  0  0  0  0  0  0  0  0  0
   -4.3983   -4.3278   -0.8841 N   0  0  0  0  0  0  0  0  0  0  0  0
   -4.5767   -3.4200    0.2443 C   0  0  0  0  0  0  0  0  0  0  0  0
   -4.2828   -2.0090   -0.2871 C   0  0  0  0  0  0  0  0  0  0  0  0
   -2.8455   -1.9857   -0.5007 N   0  0  0  0  0  0  0  0  0  0  0  0
   -2.2023   -3.2107   -0.8850 C   0  0  0  0  0  0  0  0  0  0  0  0
   -3.2446   -4.0203   -1.6683 C   0  0  0  0  0  0  0  0  0  0  0  0
   -2.1057   -0.7928   -0.3427 C   0  0  0  0  0  0  0  0  0  0  0  0
   -2.7064    0.4330   -0.1644 C   0  0  0  0  0  0  0  0  0  0  0  0
   -1.9311    1.5589   -0.0108 C   0  0  0  0  0  0  0  0  0  0  0  0
   -0.5358    1.5571   -0.0211 C   0  0  0  0  0  0  0  0  0  0  0  0
    0.2223    2.7339   -0.0165 N   0  0  0  0  0  0  0  0  0  0  0  0
   -0.1681    3.9760    0.4881 C   0  0  0  0  0  0  0  0  0  0  0  0
   -1.2987    4.1232    1.0174 O   0  0  0  0  0  0  0  0  0  0  0  0
    0.7311    5.1503    0.4160 C   0  0  0  0  0  0  0  0  0  0  0  0
    1.9661    5.2440   -0.0932 N   0  0  0  0  0  0  0  0  0  0  0  0
    2.4444    6.4994    0.0379 C   0  0  0  0  0  0  0  0  0  0  0  0
    1.4491    7.2164    0.6616 C   0  0  0  0  0  0  0  0  0  0  0  0
    0.4160    6.3619    0.8787 N   0  0  0  0  0  0  0  0  0  0  0  0
    1.5559    8.6077    0.9898 C   0  0  0  0  0  0  0  0  0  0  0  0
    1.6582    9.7373    1.2697 N   0  0  0  0  0  0  0  0  0  0  0  0
    0.0512    0.2951   -0.1999 C   0  0  0  0  0  0  0  0  0  0  0  0
   -0.7382   -0.8594   -0.3599 C   0  0  0  0  0  0  0  0  0  0  0  0
    1.4856    0.1037   -0.0705 C   0  0  0  0  0  0  0  0  0  0  0  0
    2.0531   -0.9920   -0.6172 C   0  0  0  0  0  0  0  0  0  0  0  0
    3.5207   -1.1720   -0.4769 C   0  0  0  0  0  0  0  0  0  0  0  0
    3.8960   -1.1198    0.9714 C   0  0  0  0  0  0  0  0  0  0  0  0
    3.5702   -2.4370    1.6649 C   0  0  0  0  0  0  0  0  0  0  0  0
    5.3989   -0.9561    1.0607 C   0  0  0  0  0  0  0  0  0  0  0  0
    3.1509   -0.0441    1.6786 C   0  0  0  0  0  0  0  0  0  0  0  0
    2.4341    0.9308    0.7104 C   0  0  0  0  0  0  0  0  0  0  0  0
   -5.4423   -3.5453   -2.5523 H   0  0  0  0  0  0  0  0  0  0  0  0
   -5.7732   -5.3053   -2.0834 H   0  0  0  0  0  0  0  0  0  0  0  0
   -6.4396   -3.8910   -1.1017 H   0  0  0  0  0  0  0  0  0  0  0  0
   -5.5986   -3.4995    0.6115 H   0  0  0  0  0  0  0  0  0  0  0  0
   -3.8489   -3.7085    1.0247 H   0  0  0  0  0  0  0  0  0  0  0  0
   -4.7753   -1.8796   -1.2512 H   0  0  0  0  0  0  0  0  0  0  0  0
   -4.5650   -1.2747    0.4894 H   0  0  0  0  0  0  0  0  0  0  0  0
   -1.3532   -3.0673   -1.5976 H   0  0  0  0  0  0  0  0  0  0  0  0
   -1.8266   -3.7739   -0.0289 H   0  0  0  0  0  0  0  0  0  0  0  0
   -3.5054   -3.3515   -2.5386 H   0  0  0  0  0  0  0  0  0  0  0  0
   -2.7649   -4.9433   -2.0934 H   0  0  0  0  0  0  0  0  0  0  0  0
   -3.7783    0.4783   -0.1507 H   0  0  0  0  0  0  0  0  0  0  0  0
   -2.4495    2.4902    0.1065 H   0  0  0  0  0  0  0  0  0  0  0  0
    1.1868    2.7408   -0.4767 H   0  0  0  0  0  0  0  0  0  0  0  0
    3.4183    6.8360   -0.2931 H   0  0  0  0  0  0  0  0  0  0  0  0
   -0.4607    6.6731    1.3410 H   0  0  0  0  0  0  0  0  0  0  0  0
   -0.2542   -1.8177   -0.4856 H   0  0  0  0  0  0  0  0  0  0  0  0
    1.5208   -1.7456   -1.1616 H   0  0  0  0  0  0  0  0  0  0  0  0
    3.8542   -2.1414   -0.8710 H   0  0  0  0  0  0  0  0  0  0  0  0
    4.0228   -0.3920   -1.0828 H   0  0  0  0  0  0  0  0  0  0  0  0
    2.4748   -2.5662    1.7973 H   0  0  0  0  0  0  0  0  0  0  0  0
    4.0593   -2.4185    2.6397 H   0  0  0  0  0  0  0  0  0  0  0  0
    3.9196   -3.2853    1.0317 H   0  0  0  0  0  0  0  0  0  0  0  0
    5.8469   -0.7762    0.0621 H   0  0  0  0  0  0  0  0  0  0  0  0
    5.9084   -1.8488    1.4694 H   0  0  0  0  0  0  0  0  0  0  0  0
    5.6851   -0.0794    1.6835 H   0  0  0  0  0  0  0  0  0  0  0  0
    2.4596   -0.4257    2.4307 H   0  0  0  0  0  0  0  0  0  0  0  0
    3.9140    0.5779    2.2303 H   0  0  0  0  0  0  0  0  0  0  0  0
    3.2447    1.3779    0.1123 H   0  0  0  0  0  0  0  0  0  0  0  0
    1.9367    1.6492    1.4083 H   0  0  0  0  0  0  0  0  0  0  0  0
  1  2  1  0
  2  3  1  0
  3  4  1  0
  4  5  1  0
  5  6  1  0
  6  7  1  0
  5  8  1  0
  8  9  2  0
  9 10  1  0
 10 11  2  0
 11 12  1  0
 12 13  1  0
 13 14  2  0
 13 15  1  0
 15 16  2  0
 16 17  1  0
 17 18  2  0
 18 19  1  0
 18 20  1  0
 20 21  3  0
 11 22  1  0
 22 23  2  0
 22 24  1  0
 24 25  2  0
 25 26  1  0
 26 27  1  0
 27 28  1  0
 27 29  1  0
 27 30  1  0
 30 31  1  0
  7  2  1  0
 23  8  1  0
 31 24  1  0
 19 15  1  0
  1 32  1  0
  1 33  1  0
  1 34  1  0
  3 35  1  0
  3 36  1  0
  4 37  1  0
  4 38  1  0
  6 39  1  0
  6 40  1  0
  7 41  1  0
  7 42  1  0
  9 43  1  0
 10 44  1  0
 12 45  1  0
 17 46  1  0
 19 47  1  0
 23 48  1  0
 25 49  1  0
 26 50  1  0
 26 51  1  0
 28 52  1  0
 28 53  1  0
 28 54  1  0
 29 55  1  0
 29 56  1  0
 29 57  1  0
 30 58  1  0
 30 59  1  0
 31 60  1  0
 31 61  1  0
M  END
$$$$
[H]c1nc2c(c([H])c1-c1c([H])c([H])c(S(=O)(=O)N([H])[H])c([H])c1[H])c([H])c([H])n2[H]
     RDKit          3D

 30 32  0  0  0  0  0  0  0  0999 V2000
    5.4155    0.8586    0.2819 N   0  0  0  0  0  0  0  0  0  0  0  0
    4.5790    0.6333   -1.2056 S   0  0  0  0  0  0  0  0  0  0  0  0
    5.0785   -0.5925   -1.9365 O   0  0  0  0  0  0  0  0  0  0  0  0
    4.8089    1.8552   -2.0486 O   0  0  0  0  0  0  0  0  0  0  0  0
    2.8596    0.4739   -0.8760 C   0  0  0  0  0  0  0  0  0  0  0  0
    2.3500   -0.7800   -0.6496 C   0  0  0  0  0  0  0  0  0  0  0  0
    0.9997   -0.8838   -0.3913 C   0  0  0  0  0  0  0  0  0  0  0  0
    0.2156    0.2330   -0.3663 C   0  0  0  0  0  0  0  0  0  0  0  0
    0.7413    1.4677   -0.5937 C   0  0  0  0  0  0  0  0  0  0  0  0
    2.0954    1.6182   -0.8577 C   0  0  0  0  0  0  0  0  0  0  0  0
   -1.2078    0.1171   -0.0919 C   0  0  0  0  0  0  0  0  0  0  0  0
   -2.1039    1.0036   -0.6482 C   0  0  0  0  0  0  0  0  0  0  0  0
   -3.4005    0.8739   -0.3786 N   0  0  0  0  0  0  0  0  0  0  0  0
   -3.8808   -0.1109    0.4341 C   0  0  0  0  0  0  0  0  0  0  0  0
   -5.1142   -0.4442    0.8504 N   0  0  0  0  0  0  0  0  0  0  0  0
   -5.0852   -1.5155    1.6617 C   0  0  0  0  0  0  0  0  0  0  0  0
   -3.7674   -1.8969    1.7780 C   0  0  0  0  0  0  0  0  0  0  0  0
   -3.0246   -1.0199    1.0127 C   0  0  0  0  0  0  0  0  0  0  0  0
   -1.6763   -0.9001    0.7437 C   0  0  0  0  0  0  0  0  0  0  0  0
    5.6213    1.8644    0.4783 H   0  0  0  0  0  0  0  0  0  0  0  0
    6.2110    0.2246    0.4182 H   0  0  0  0  0  0  0  0  0  0  0  0
    2.9664   -1.6875   -0.6668 H   0  0  0  0  0  0  0  0  0  0  0  0
    0.5881   -1.8889   -0.2090 H   0  0  0  0  0  0  0  0  0  0  0  0
    0.1540    2.3724   -0.5823 H   0  0  0  0  0  0  0  0  0  0  0  0
    2.5375    2.5861   -1.0418 H   0  0  0  0  0  0  0  0  0  0  0  0
   -1.7134    1.7980   -1.3038 H   0  0  0  0  0  0  0  0  0  0  0  0
   -5.9846    0.0813    0.5656 H   0  0  0  0  0  0  0  0  0  0  0  0
   -5.9299   -2.0150    2.1531 H   0  0  0  0  0  0  0  0  0  0  0  0
   -3.3716   -2.7372    2.3649 H   0  0  0  0  0  0  0  0  0  0  0  0
   -0.9616   -1.5890    1.1738 H   0  0  0  0  0  0  0  0  0  0  0  0
  1  2  1  0
  2  3  2  0
  2  4  2  0
  2  5  1  0
  5  6  2  0
  6  7  1  0
  7  8  2  0
  8  9  1  0
  9 10  2  0
  8 11  1  0
 11 12  2  0
 12 13  1  0
 13 14  2  0
 14 15  1  0
 15 16  1  0
 16 17  2  0
 17 18  1  0
 18 19  2  0
 10  5  1  0
 19 11  1  0
 18 14  1  0
  1 20  1  0
  1 21  1  0
  6 22  1  0
  7 23  1  0
  9 24  1  0
 10 25  1  0
 12 26  1  0
 15 27  1  0
 16 28  1  0
 17 29  1  0
 19 30  1  0
M  END
$$$$
[H]c1c([H])c([H])c(C([H])([H])N2C([H])([H])[C@@]([H])(N([H])C(=O)OC(C([H])([H])[H])(C([H])([H])[H])C([H])([H])[H])[C@]([H])(c3nc4c([H])c([H])c([H])c([H])c4n3[H])C2([H])[H])c([H])c1[H]
     RDKit          3D

 57 60  0  0  0  0  0  0  0  0999 V2000
    4.6293    1.0441   -1.4243 C   0  0  0  0  0  0  0  0  0  0  0  0
    4.7105   -0.1796   -0.5435 C   0  0  0  0  0  0  0  0  0  0  0  0
    4.6132   -1.3984   -1.4092 C   0  0  0  0  0  0  0  0  0  0  0  0
    6.0496   -0.1710    0.1567 C   0  0  0  0  0  0  0  0  0  0  0  0
    3.7062   -0.0833    0.4298 O   0  0  0  0  0  0  0  0  0  0  0  0
    2.3582   -0.0053    0.1423 C   0  0  0  0  0  0  0  0  0  0  0  0
    2.0506   -0.0247   -1.0721 O   0  0  0  0  0  0  0  0  0  0  0  0
    1.3453    0.0917    1.1148 N   0  0  0  0  0  0  0  0  0  0  0  0
   -0.0388    0.1695    0.7431 C   0  0  2  0  0  0  0  0  0  0  0  0
   -0.7103    1.4500    1.1917 C   0  0  0  0  0  0  0  0  0  0  0  0
   -2.0228    1.1170    1.6212 N   0  0  0  0  0  0  0  0  0  0  0  0
   -3.1055    1.7204    0.9190 C   0  0  0  0  0  0  0  0  0  0  0  0
   -3.1256    3.1992    0.9794 C   0  0  0  0  0  0  0  0  0  0  0  0
   -2.6381    3.9835   -0.0484 C   0  0  0  0  0  0  0  0  0  0  0  0
   -2.6662    5.3599    0.0287 C   0  0  0  0  0  0  0  0  0  0  0  0
   -3.1800    6.0228    1.1310 C   0  0  0  0  0  0  0  0  0  0  0  0
   -3.6637    5.2343    2.1511 C   0  0  0  0  0  0  0  0  0  0  0  0
   -3.6403    3.8782    2.0837 C   0  0  0  0  0  0  0  0  0  0  0  0
   -2.1425   -0.2900    1.8072 C   0  0  0  0  0  0  0  0  0  0  0  0
   -0.8703   -0.9391    1.3492 C   0  0  1  0  0  0  0  0  0  0  0  0
   -1.1226   -2.0075    0.3466 C   0  0  0  0  0  0  0  0  0  0  0  0
   -1.7534   -1.8914   -0.8320 N   0  0  0  0  0  0  0  0  0  0  0  0
   -1.7490   -3.1106   -1.4073 C   0  0  0  0  0  0  0  0  0  0  0  0
   -2.2419   -3.5847   -2.5990 C   0  0  0  0  0  0  0  0  0  0  0  0
   -2.0975   -4.8942   -2.9441 C   0  0  0  0  0  0  0  0  0  0  0  0
   -1.4551   -5.7928   -2.1177 C   0  0  0  0  0  0  0  0  0  0  0  0
   -0.9567   -5.3394   -0.9252 C   0  0  0  0  0  0  0  0  0  0  0  0
   -1.1002   -4.0222   -0.5747 C   0  0  0  0  0  0  0  0  0  0  0  0
   -0.7292   -3.2815    0.5061 N   0  0  0  0  0  0  0  0  0  0  0  0
    4.0894    1.8522   -0.8895 H   0  0  0  0  0  0  0  0  0  0  0  0
    5.6538    1.4257   -1.6871 H   0  0  0  0  0  0  0  0  0  0  0  0
    4.0673    0.7647   -2.3432 H   0  0  0  0  0  0  0  0  0  0  0  0
    4.0313   -1.2062   -2.3332 H   0  0  0  0  0  0  0  0  0  0  0  0
    4.2502   -2.2936   -0.8585 H   0  0  0  0  0  0  0  0  0  0  0  0
    5.6426   -1.6490   -1.7442 H   0  0  0  0  0  0  0  0  0  0  0  0
    6.8879   -0.3712   -0.5405 H   0  0  0  0  0  0  0  0  0  0  0  0
    6.2728    0.7817    0.6664 H   0  0  0  0  0  0  0  0  0  0  0  0
    6.1073   -0.9730    0.9340 H   0  0  0  0  0  0  0  0  0  0  0  0
    1.5548    0.1116    2.1488 H   0  0  0  0  0  0  0  0  0  0  0  0
   -0.1167    0.1371   -0.3659 H   0  0  0  0  0  0  0  0  0  0  0  0
   -0.1323    1.8022    2.0928 H   0  0  0  0  0  0  0  0  0  0  0  0
   -0.7025    2.2245    0.4244 H   0  0  0  0  0  0  0  0  0  0  0  0
   -3.2058    1.3523   -0.1316 H   0  0  0  0  0  0  0  0  0  0  0  0
   -4.0490    1.3807    1.4334 H   0  0  0  0  0  0  0  0  0  0  0  0
   -2.2272    3.4804   -0.9310 H   0  0  0  0  0  0  0  0  0  0  0  0
   -2.2759    5.9450   -0.7941 H   0  0  0  0  0  0  0  0  0  0  0  0
   -3.1873    7.1058    1.1605 H   0  0  0  0  0  0  0  0  0  0  0  0
   -4.0641    5.7622    3.0105 H   0  0  0  0  0  0  0  0  0  0  0  0
   -4.0368    3.3026    2.9202 H   0  0  0  0  0  0  0  0  0  0  0  0
   -3.0013   -0.7037    1.2045 H   0  0  0  0  0  0  0  0  0  0  0  0
   -2.3958   -0.5208    2.8581 H   0  0  0  0  0  0  0  0  0  0  0  0
   -0.3330   -1.3196    2.2339 H   0  0  0  0  0  0  0  0  0  0  0  0
   -2.7471   -2.8766   -3.2479 H   0  0  0  0  0  0  0  0  0  0  0  0
   -2.4974   -5.2546   -3.8996 H   0  0  0  0  0  0  0  0  0  0  0  0
   -1.3668   -6.8250   -2.4393 H   0  0  0  0  0  0  0  0  0  0  0  0
   -0.4564   -6.0147   -0.2704 H   0  0  0  0  0  0  0  0  0  0  0  0
   -0.2152   -3.6755    1.3229 H   0  0  0  0  0  0  0  0  0  0  0  0
  1  2  1  0
  2  3  1  0
  2  4  1  0
  2  5  1  0
  5  6  1  0
  6  7  2  0
  6  8  1  0
  8  9  1  0
  9 10  1  0
 10 11  1  0
 11 12  1  0
 12 13  1  0
 13 14  2  0
 14 15  1  0
 15 16  2  0
 16 17  1  0
 17 18  2  0
 11 19  1  0
 19 20  1  0
 20 21  1  0
 21 22  2  0
 22 23  1  0
 23 24  2  0
 24 25  1  0
 25 26  2  0
 26 27  1  0
 27 28  2  0
 28 29  1  0
 20  9  1  0
 29 21  1  0
 18 13  1  0
 28 23  1  0
  1 30  1  0
  1 31  1  0
  1 32  1  0
  3 33  1  0
  3 34  1  0
  3 35  1  0
  4 36  1  0
  4 37  1  0
  4 38  1  0
  8 39  1  0
  9 40  1  6
 10 41  1  0
 10 42  1  0
 12 43  1  0
 12 44  1  0
 14 45  1  0
 15 46  1  0
 16 47  1  0
 17 48  1  0
 18 49  1  0
 19 50  1  0
 19 51  1  0
 20 52  1  1
 24 53  1  0
 25 54  1  0
 26 55  1  0
 27 56  1  0
 29 57  1  0
M  END
$$$$
[H]c1c([H])c([H])c(C([H])([H])[C@@]([H])(C(=O)N([H])[H])N([H])C(=O)[C@@]([H])(N([H])C(=O)[C@@]([H])(N([H])C(=O)[C@@]([H])(N([H])C(=O)[C@@]([H])(N([H])[H])C([H])([H])C([H])(C([H])([H])[H])C([H])([H])[H])C([H])([H])c2c([H])c([H])c([H])c([H])c2[H])C([H])([H])c2c([H])c([H])c([H])c([H])c2[H])C([H])([H])C([H])([H])C([H])([H])N=C(N([H])[H])N([H])[H])c([H])c1[H]
     RDKit          3D

106108  0  0  0  0  0  0  0  0999 V2000
  -10.3632   -1.1169    0.4990 C   0  0  0  0  0  0  0  0  0  0  0  0
   -9.2957   -1.2040   -0.5382 C   0  0  0  0  0  0  0  0  0  0  0  0
   -9.6507   -0.2441   -1.6642 C   0  0  0  0  0  0  0  0  0  0  0  0
   -7.9509   -0.8142   -0.0001 C   0  0  0  0  0  0  0  0  0  0  0  0
   -7.4541   -1.6680    1.1257 C   0  0  2  0  0  0  0  0  0  0  0  0
   -8.3097   -1.6391    2.2736 N   0  0  0  0  0  0  0  0  0  0  0  0
   -6.0390   -1.4213    1.4587 C   0  0  0  0  0  0  0  0  0  0  0  0
   -5.6821   -1.2530    2.6414 O   0  0  0  0  0  0  0  0  0  0  0  0
   -5.0697   -1.3764    0.4236 N   0  0  0  0  0  0  0  0  0  0  0  0
   -3.6774   -1.1549    0.6966 C   0  0  1  0  0  0  0  0  0  0  0  0
   -2.9655   -2.5014    0.4952 C   0  0  0  0  0  0  0  0  0  0  0  0
   -3.2011   -3.0247   -0.8853 C   0  0  0  0  0  0  0  0  0  0  0  0
   -2.4112   -2.7562   -1.9535 C   0  0  0  0  0  0  0  0  0  0  0  0
   -2.6568   -3.2647   -3.2284 C   0  0  0  0  0  0  0  0  0  0  0  0
   -3.7452   -4.0750   -3.4186 C   0  0  0  0  0  0  0  0  0  0  0  0
   -4.5570   -4.3612   -2.3574 C   0  0  0  0  0  0  0  0  0  0  0  0
   -4.3084   -3.8584   -1.1138 C   0  0  0  0  0  0  0  0  0  0  0  0
   -3.0599   -0.0462   -0.0278 C   0  0  0  0  0  0  0  0  0  0  0  0
   -3.6722    0.5750   -0.9563 O   0  0  0  0  0  0  0  0  0  0  0  0
   -1.7508    0.3487    0.3204 N   0  0  0  0  0  0  0  0  0  0  0  0
   -0.9801    1.4210   -0.2666 C   0  0  1  0  0  0  0  0  0  0  0  0
   -0.9860    2.6923    0.4742 C   0  0  0  0  0  0  0  0  0  0  0  0
   -0.4958    2.7875    1.8236 C   0  0  0  0  0  0  0  0  0  0  0  0
   -1.3202    2.5466    2.9051 C   0  0  0  0  0  0  0  0  0  0  0  0
   -0.7834    2.6794    4.1686 C   0  0  0  0  0  0  0  0  0  0  0  0
    0.5335    3.0410    4.3775 C   0  0  0  0  0  0  0  0  0  0  0  0
    1.3661    3.2842    3.3044 C   0  0  0  0  0  0  0  0  0  0  0  0
    0.8202    3.1487    2.0251 C   0  0  0  0  0  0  0  0  0  0  0  0
    0.2760    0.9646   -0.8442 C   0  0  0  0  0  0  0  0  0  0  0  0
    0.4074   -0.3096   -0.9328 O   0  0  0  0  0  0  0  0  0  0  0  0
    1.3742    1.6950   -1.3193 N   0  0  0  0  0  0  0  0  0  0  0  0
    2.5530    1.0938   -1.8837 C   0  0  1  0  0  0  0  0  0  0  0  0
    3.3845    2.0180   -2.7114 C   0  0  0  0  0  0  0  0  0  0  0  0
    3.8813    3.1879   -1.8989 C   0  0  0  0  0  0  0  0  0  0  0  0
    4.7236    4.1102   -2.7592 C   0  0  0  0  0  0  0  0  0  0  0  0
    5.1939    5.2204   -1.9515 N   0  0  0  0  0  0  0  0  0  0  0  0
    6.3949    5.6863   -2.0121 C   0  0  0  0  0  0  0  0  0  0  0  0
    6.8454    6.7677   -1.2218 N   0  0  0  0  0  0  0  0  0  0  0  0
    7.2998    5.0860   -2.9135 N   0  0  0  0  0  0  0  0  0  0  0  0
    3.4146    0.5095   -0.7808 C   0  0  0  0  0  0  0  0  0  0  0  0
    3.0053    0.6656    0.3859 O   0  0  0  0  0  0  0  0  0  0  0  0
    4.6012   -0.1768   -0.9996 N   0  0  0  0  0  0  0  0  0  0  0  0
    5.3826   -0.7482    0.1150 C   0  0  1  0  0  0  0  0  0  0  0  0
    5.3412   -2.2372    0.0265 C   0  0  0  0  0  0  0  0  0  0  0  0
    6.0653   -2.9901    1.0604 C   0  0  0  0  0  0  0  0  0  0  0  0
    5.4649   -3.2941    2.2930 C   0  0  0  0  0  0  0  0  0  0  0  0
    6.1161   -4.0233    3.2567 C   0  0  0  0  0  0  0  0  0  0  0  0
    7.3931   -4.4909    3.0551 C   0  0  0  0  0  0  0  0  0  0  0  0
    7.9960   -4.2012    1.8504 C   0  0  0  0  0  0  0  0  0  0  0  0
    7.3522   -3.4735    0.8835 C   0  0  0  0  0  0  0  0  0  0  0  0
    6.6976   -0.1425    0.1825 C   0  0  0  0  0  0  0  0  0  0  0  0
    7.6689   -0.3907    1.1873 N   0  0  0  0  0  0  0  0  0  0  0  0
    7.0187    0.6926   -0.7389 O   0  0  0  0  0  0  0  0  0  0  0  0
  -11.3531   -0.8601    0.0169 H   0  0  0  0  0  0  0  0  0  0  0  0
  -10.4715   -2.0888    1.0135 H   0  0  0  0  0  0  0  0  0  0  0  0
  -10.1605   -0.2851    1.1926 H   0  0  0  0  0  0  0  0  0  0  0  0
   -9.2641   -2.2169   -1.0076 H   0  0  0  0  0  0  0  0  0  0  0  0
   -9.0169   -0.4677   -2.5646 H   0  0  0  0  0  0  0  0  0  0  0  0
  -10.7125   -0.4214   -1.9062 H   0  0  0  0  0  0  0  0  0  0  0  0
   -9.5263    0.8024   -1.3668 H   0  0  0  0  0  0  0  0  0  0  0  0
   -7.2259   -0.7882   -0.8501 H   0  0  0  0  0  0  0  0  0  0  0  0
   -8.0334    0.2636    0.3299 H   0  0  0  0  0  0  0  0  0  0  0  0
   -7.4837   -2.7322    0.7149 H   0  0  0  0  0  0  0  0  0  0  0  0
   -8.5063   -2.6118    2.6317 H   0  0  0  0  0  0  0  0  0  0  0  0
   -7.8596   -1.0481    3.0312 H   0  0  0  0  0  0  0  0  0  0  0  0
   -5.3564   -1.5005   -0.5626 H   0  0  0  0  0  0  0  0  0  0  0  0
   -3.5716   -1.0022    1.8297 H   0  0  0  0  0  0  0  0  0  0  0  0
   -3.4600   -3.1947    1.1977 H   0  0  0  0  0  0  0  0  0  0  0  0
   -1.8879   -2.4119    0.7081 H   0  0  0  0  0  0  0  0  0  0  0  0
   -1.5447   -2.1255   -1.8466 H   0  0  0  0  0  0  0  0  0  0  0  0
   -2.0270   -3.0489   -4.0760 H   0  0  0  0  0  0  0  0  0  0  0  0
   -3.9755   -4.4992   -4.4086 H   0  0  0  0  0  0  0  0  0  0  0  0
   -5.4307   -5.0137   -2.5197 H   0  0  0  0  0  0  0  0  0  0  0  0
   -4.9576   -4.0821   -0.2538 H   0  0  0  0  0  0  0  0  0  0  0  0
   -1.2570   -0.1835    1.0953 H   0  0  0  0  0  0  0  0  0  0  0  0
   -1.6177    1.6619   -1.2015 H   0  0  0  0  0  0  0  0  0  0  0  0
   -2.0543    3.0776    0.4909 H   0  0  0  0  0  0  0  0  0  0  0  0
   -0.4671    3.4524   -0.1518 H   0  0  0  0  0  0  0  0  0  0  0  0
   -2.3277    2.2720    2.6823 H   0  0  0  0  0  0  0  0  0  0  0  0
   -1.4439    2.4858    5.0051 H   0  0  0  0  0  0  0  0  0  0  0  0
    0.9268    3.1368    5.3807 H   0  0  0  0  0  0  0  0  0  0  0  0
    2.3920    3.5658    3.4143 H   0  0  0  0  0  0  0  0  0  0  0  0
    1.5188    3.3558    1.2027 H   0  0  0  0  0  0  0  0  0  0  0  0
    1.3373    2.7280   -1.2605 H   0  0  0  0  0  0  0  0  0  0  0  0
    2.2752    0.1483   -2.4448 H   0  0  0  0  0  0  0  0  0  0  0  0
    2.8024    2.4066   -3.5976 H   0  0  0  0  0  0  0  0  0  0  0  0
    4.2817    1.4967   -3.0997 H   0  0  0  0  0  0  0  0  0  0  0  0
    3.0548    3.8032   -1.4983 H   0  0  0  0  0  0  0  0  0  0  0  0
    4.5555    2.7747   -1.1153 H   0  0  0  0  0  0  0  0  0  0  0  0
    5.5621    3.5684   -3.2418 H   0  0  0  0  0  0  0  0  0  0  0  0
    4.1254    4.5656   -3.5813 H   0  0  0  0  0  0  0  0  0  0  0  0
    7.0301    7.6843   -1.7097 H   0  0  0  0  0  0  0  0  0  0  0  0
    6.9980    6.6889   -0.1918 H   0  0  0  0  0  0  0  0  0  0  0  0
    8.2156    4.7476   -2.5677 H   0  0  0  0  0  0  0  0  0  0  0  0
    7.0524    4.9836   -3.9080 H   0  0  0  0  0  0  0  0  0  0  0  0
    4.9690   -0.3041   -1.9582 H   0  0  0  0  0  0  0  0  0  0  0  0
    4.8071   -0.4724    1.0464 H   0  0  0  0  0  0  0  0  0  0  0  0
    4.2801   -2.6214    0.0486 H   0  0  0  0  0  0  0  0  0  0  0  0
    5.7262   -2.6116   -0.9629 H   0  0  0  0  0  0  0  0  0  0  0  0
    4.4761   -2.9602    2.5090 H   0  0  0  0  0  0  0  0  0  0  0  0
    5.6449   -4.2580    4.2199 H   0  0  0  0  0  0  0  0  0  0  0  0
    7.9220   -5.0610    3.7893 H   0  0  0  0  0  0  0  0  0  0  0  0
    8.9849   -4.5530    1.6730 H   0  0  0  0  0  0  0  0  0  0  0  0
    7.8363   -3.2442   -0.0775 H   0  0  0  0  0  0  0  0  0  0  0  0
    7.3663   -0.4350    2.1863 H   0  0  0  0  0  0  0  0  0  0  0  0
    8.6663   -0.5313    0.9868 H   0  0  0  0  0  0  0  0  0  0  0  0
  1  2  1  0
  2  3  1  0
  2  4  1  0
  4  5  1  0
  5  6  1  0
  5  7  1  0
  7  8  2  0
  7  9  1  0
  9 10  1  0
 10 11  1  0
 11 12  1  0
 12 13  2  0
 13 14  1  0
 14 15  2  0
 15 16  1  0
 16 17  2  0
 10 18  1  0
 18 19  2  0
 18 20  1  0
 20 21  1  0
 21 22  1  0
 22 23  1  0
 23 24  2  0
 24 25  1  0
 25 26  2  0
 26 27  1  0
 27 28  2  0
 21 29  1  0
 29 30  2  0
 29 31  1  0
 31 32  1  0
 32 33  1  0
 33 34  1  0
 34 35  1  0
 35 36  1  0
 36 37  2  3
 37 38  1  0
 37 39  1  0
 32 40  1  0
 40 41  2  0
 40 42  1  0
 42 43  1  0
 43 44  1  0
 44 45  1  0
 45 46  2  0
 46 47  1  0
 47 48  2  0
 48 49  1  0
 49 50  2  0
 43 51  1  0
 51 52  1  0
 51 53  2  0
 17 12  1  0
 28 23  1  0
 50 45  1  0
  1 54  1  0
  1 55  1  0
  1 56  1  0
  2 57  1  0
  3 58  1  0
  3 59  1  0
  3 60  1  0
  4 61  1  0
  4 62  1  0
  5 63  1  6
  6 64  1  0
  6 65  1  0
  9 66  1  0
 10 67  1  1
 11 68  1  0
 11 69  1  0
 13 70  1  0
 14 71  1  0
 15 72  1  0
 16 73  1  0
 17 74  1  0
 20 75  1  0
 21 76  1  6
 22 77  1  0
 22 78  1  0
 24 79  1  0
 25 80  1  0
 26 81  1  0
 27 82  1  0
 28 83  1  0
 31 84  1  0
 32 85  1  6
 33 86  1  0
 33 87  1  0
 34 88  1  0
 34 89  1  0
 35 90  1  0
 35 91  1  0
 38 92  1  0
 38 93  1  0
 39 94  1  0
 39 95  1  0
 42 96  1  0
 43 97  1  1
 44 98  1  0
 44 99  1  0
 46100  1  0
 47101  1  0
 48102  1  0
 49103  1  0
 50104  1  0
 52105  1  0
 52106  1  0
M  END
$$$$
[H]c1nc(C(F)(F)F)c([H])c(C(=O)N([H])c2c([H])c([H])c(C([H])([H])[H])c(-c3c([H])nc(N([H])[H])c(C#N)c3[H])c2[H])c1[H]
     RDKit          3D

 43 45  0  0  0  0  0  0  0  0999 V2000
    3.1835   -2.3110   -1.3705 C   0  0  0  0  0  0  0  0  0  0  0  0
    1.8910   -1.8089   -0.7971 C   0  0  0  0  0  0  0  0  0  0  0  0
    0.8079   -2.6529   -0.7996 C   0  0  0  0  0  0  0  0  0  0  0  0
   -0.3465   -2.2243   -0.2255 C   0  0  0  0  0  0  0  0  0  0  0  0
   -0.5002   -0.9527    0.3774 C   0  0  0  0  0  0  0  0  0  0  0  0
   -1.6481   -0.4827    0.9053 N   0  0  0  0  0  0  0  0  0  0  0  0
   -2.7996   -0.0036    1.4601 C   0  0  0  0  0  0  0  0  0  0  0  0
   -2.8983    0.5259    2.5581 O   0  0  0  0  0  0  0  0  0  0  0  0
   -4.0647   -0.1079    0.6948 C   0  0  0  0  0  0  0  0  0  0  0  0
   -4.4633   -1.2719    0.0606 C   0  0  0  0  0  0  0  0  0  0  0  0
   -5.5936   -1.3421   -0.7035 C   0  0  0  0  0  0  0  0  0  0  0  0
   -6.3546   -0.2139   -0.8354 N   0  0  0  0  0  0  0  0  0  0  0  0
   -6.0209    0.9375   -0.2405 C   0  0  0  0  0  0  0  0  0  0  0  0
   -4.8245    1.0085    0.5635 C   0  0  0  0  0  0  0  0  0  0  0  0
   -6.7969    2.1682   -0.3832 C   0  0  0  0  0  0  0  0  0  0  0  0
   -5.8904    3.1295   -0.8703 F   0  0  0  0  0  0  0  0  0  0  0  0
   -7.3252    2.5199    0.8106 F   0  0  0  0  0  0  0  0  0  0  0  0
   -7.7166    1.9715   -1.4031 F   0  0  0  0  0  0  0  0  0  0  0  0
    0.6801   -0.1277    0.3458 C   0  0  0  0  0  0  0  0  0  0  0  0
    1.8333   -0.5545   -0.2327 C   0  0  0  0  0  0  0  0  0  0  0  0
    3.0146    0.2912   -0.3106 C   0  0  0  0  0  0  0  0  0  0  0  0
    3.7185    0.4688   -1.5205 C   0  0  0  0  0  0  0  0  0  0  0  0
    4.8668    1.1230   -1.6353 N   0  0  0  0  0  0  0  0  0  0  0  0
    5.4497    1.6819   -0.5632 C   0  0  0  0  0  0  0  0  0  0  0  0
    6.7163    2.3112   -0.6035 N   0  0  0  0  0  0  0  0  0  0  0  0
    4.7884    1.5428    0.6645 C   0  0  0  0  0  0  0  0  0  0  0  0
    3.6234    0.8741    0.7761 C   0  0  0  0  0  0  0  0  0  0  0  0
    5.4216    2.1919    1.8099 C   0  0  0  0  0  0  0  0  0  0  0  0
    5.8933    2.7109    2.7328 N   0  0  0  0  0  0  0  0  0  0  0  0
    4.0364   -1.9927   -0.7614 H   0  0  0  0  0  0  0  0  0  0  0  0
    3.1802   -3.4493   -1.2461 H   0  0  0  0  0  0  0  0  0  0  0  0
    3.2618   -2.1847   -2.4547 H   0  0  0  0  0  0  0  0  0  0  0  0
    0.8569   -3.6545   -1.2790 H   0  0  0  0  0  0  0  0  0  0  0  0
   -1.2294   -2.8817   -0.2166 H   0  0  0  0  0  0  0  0  0  0  0  0
   -1.7829   -1.5516    1.7819 H   0  0  0  0  0  0  0  0  0  0  0  0
   -3.8207   -2.1555    0.1864 H   0  0  0  0  0  0  0  0  0  0  0  0
   -5.9533   -2.2100   -1.1823 H   0  0  0  0  0  0  0  0  0  0  0  0
   -4.5662    1.9051    1.0010 H   0  0  0  0  0  0  0  0  0  0  0  0
    0.5658    0.8928    0.7923 H   0  0  0  0  0  0  0  0  0  0  0  0
    3.2240    0.0648   -2.4067 H   0  0  0  0  0  0  0  0  0  0  0  0
    7.5549    1.6954   -0.7254 H   0  0  0  0  0  0  0  0  0  0  0  0
    6.9180    3.3201   -0.5146 H   0  0  0  0  0  0  0  0  0  0  0  0
    3.1096    0.7993    1.7874 H   0  0  0  0  0  0  0  0  0  0  0  0
  1  2  1  0
  2  3  2  0
  3  4  1  0
  4  5  2  0
  5  6  1  0
  6  7  1  0
  7  8  2  0
  7  9  1  0
  9 10  2  0
 10 11  1  0
 11 12  2  0
 12 13  1  0
 13 14  2  0
 13 15  1  0
 15 16  1  0
 15 17  1  0
 15 18  1  0
  5 19  1  0
 19 20  2  0
 20 21  1  0
 21 22  2  0
 22 23  1  0
 23 24  2  0
 24 25  1  0
 24 26  1  0
 26 27  2  0
 26 28  1  0
 28 29  3  0
 20  2  1  0
 27 21  1  0
 14  9  1  0
  1 30  1  0
  1 31  1  0
  1 32  1  0
  3 33  1  0
  4 34  1  0
  6 35  1  0
 10 36  1  0
 11 37  1  0
 14 38  1  0
 19 39  1  0
 22 40  1  0
 25 41  1  0
 25 42  1  0
 27 43  1  0
M  END
$$$$
[H]c1c([H])c(C(F)(F)F)c([H])c([H])c1C(=O)N1C([H])([H])C([H])([H])N(S(=O)(=O)c2c([H])c([H])c3c(c([H])nn3[H])c2[H])C([H])([H])[C@@]1([H])C([H])([H])[H]
     RDKit          3D

 50 53  0  0  0  0  0  0  0  0999 V2000
    0.8494   -0.7682   -1.1793 C   0  0  0  0  0  0  0  0  0  0  0  0
    0.2986    0.2276   -0.2216 C   0  0  2  0  0  0  0  0  0  0  0  0
   -0.1603    1.5017   -0.8564 C   0  0  0  0  0  0  0  0  0  0  0  0
   -1.0505    2.1845   -0.0040 N   0  0  0  0  0  0  0  0  0  0  0  0
   -0.6020    2.4051    1.3200 C   0  0  0  0  0  0  0  0  0  0  0  0
    0.0145    1.1886    1.9604 C   0  0  0  0  0  0  0  0  0  0  0  0
    0.9489    0.4865    1.0030 N   0  0  0  0  0  0  0  0  0  0  0  0
    2.2199    0.3101    1.5007 C   0  0  0  0  0  0  0  0  0  0  0  0
    2.4123    0.5491    2.7998 O   0  0  0  0  0  0  0  0  0  0  0  0
    3.4777   -0.1120    0.8899 C   0  0  0  0  0  0  0  0  0  0  0  0
    3.8734    0.1672   -0.3810 C   0  0  0  0  0  0  0  0  0  0  0  0
    4.9990   -0.3639   -0.9516 C   0  0  0  0  0  0  0  0  0  0  0  0
    5.8037   -1.2401   -0.2274 C   0  0  0  0  0  0  0  0  0  0  0  0
    5.4016   -1.5288    1.0715 C   0  0  0  0  0  0  0  0  0  0  0  0
    4.2831   -0.9934    1.6310 C   0  0  0  0  0  0  0  0  0  0  0  0
    7.0099   -1.8219   -0.8147 C   0  0  0  0  0  0  0  0  0  0  0  0
    7.9086   -0.8234   -1.0837 F   0  0  0  0  0  0  0  0  0  0  0  0
    6.6564   -2.4406   -2.0071 F   0  0  0  0  0  0  0  0  0  0  0  0
    7.5816   -2.7163    0.0930 F   0  0  0  0  0  0  0  0  0  0  0  0
   -2.6506    2.3285   -0.3504 S   0  0  0  0  0  0  0  0  0  0  0  0
   -3.3458    3.2976    0.5932 O   0  0  0  0  0  0  0  0  0  0  0  0
   -2.8090    2.9700   -1.7388 O   0  0  0  0  0  0  0  0  0  0  0  0
   -3.6228    0.8781   -0.4331 C   0  0  0  0  0  0  0  0  0  0  0  0
   -3.3262   -0.2145   -1.2206 C   0  0  0  0  0  0  0  0  0  0  0  0
   -4.1400   -1.3205   -1.2957 C   0  0  0  0  0  0  0  0  0  0  0  0
   -5.3296   -1.3673   -0.5577 C   0  0  0  0  0  0  0  0  0  0  0  0
   -6.3257   -2.2793   -0.4328 N   0  0  0  0  0  0  0  0  0  0  0  0
   -7.2339   -1.7950    0.3939 N   0  0  0  0  0  0  0  0  0  0  0  0
   -6.8520   -0.5780    0.8219 C   0  0  0  0  0  0  0  0  0  0  0  0
   -5.6276   -0.2881    0.2194 C   0  0  0  0  0  0  0  0  0  0  0  0
   -4.8230    0.8158    0.3054 C   0  0  0  0  0  0  0  0  0  0  0  0
    1.3546   -0.2458   -2.0238 H   0  0  0  0  0  0  0  0  0  0  0  0
   -0.0435   -1.2480   -1.7109 H   0  0  0  0  0  0  0  0  0  0  0  0
    1.3662   -1.6009   -0.7280 H   0  0  0  0  0  0  0  0  0  0  0  0
   -0.6806   -0.3362    0.1622 H   0  0  0  0  0  0  0  0  0  0  0  0
   -0.6368    1.3872   -1.8501 H   0  0  0  0  0  0  0  0  0  0  0  0
    0.7798    2.1346   -0.9417 H   0  0  0  0  0  0  0  0  0  0  0  0
    0.1661    3.2086    1.3432 H   0  0  0  0  0  0  0  0  0  0  0  0
   -1.4727    2.7139    1.9526 H   0  0  0  0  0  0  0  0  0  0  0  0
    0.5333    1.4334    2.8914 H   0  0  0  0  0  0  0  0  0  0  0  0
   -0.8013    0.4741    2.1423 H   0  0  0  0  0  0  0  0  0  0  0  0
    3.3091    0.8647   -0.9778 H   0  0  0  0  0  0  0  0  0  0  0  0
    5.3284   -0.1387   -1.9795 H   0  0  0  0  0  0  0  0  0  0  0  0
    6.0406   -2.2201    1.6287 H   0  0  0  0  0  0  0  0  0  0  0  0
    3.9779   -1.2278    2.6533 H   0  0  0  0  0  0  0  0  0  0  0  0
   -2.4144   -0.2078   -1.8010 H   0  0  0  0  0  0  0  0  0  0  0  0
   -3.9184   -2.2143   -1.8901 H   0  0  0  0  0  0  0  0  0  0  0  0
   -6.3267   -3.2119   -0.9330 H   0  0  0  0  0  0  0  0  0  0  0  0
   -7.3439    0.1185    1.4982 H   0  0  0  0  0  0  0  0  0  0  0  0
   -5.0571    1.6569    0.9104 H   0  0  0  0  0  0  0  0  0  0  0  0
  1  2  1  0
  2  3  1  0
  3  4  1  0
  4  5  1  0
  5  6  1  0
  6  7  1  0
  7  8  1  0
  8  9  2  0
  8 10  1  0
 10 11  2  0
 11 12  1  0
 12 13  2  0
 13 14  1  0
 14 15  2  0
 13 16  1  0
 16 17  1  0
 16 18  1  0
 16 19  1  0
  4 20  1  0
 20 21  2  0
 20 22  2  0
 20 23  1  0
 23 24  2  0
 24 25  1  0
 25 26  2  0
 26 27  1  0
 27 28  1  0
 28 29  2  0
 29 30  1  0
 30 31  2  0
  7  2  1  0
 15 10  1  0
 31 23  1  0
 30 26  1  0
  1 32  1  0
  1 33  1  0
  1 34  1  0
  2 35  1  1
  3 36  1  0
  3 37  1  0
  5 38  1  0
  5 39  1  0
  6 40  1  0
  6 41  1  0
 11 42  1  0
 12 43  1  0
 14 44  1  0
 15 45  1  0
 24 46  1  0
 25 47  1  0
 27 48  1  0
 29 49  1  0
 31 50  1  0
M  END
$$$$
[H]OC([H])([H])[C@]1([H])O[C@@]([H])(n2c([H])nc3c(N([H])[H])nc([H])nc32)[C@]([H])(O[H])[C@@]1([H])O[H]
     RDKit          3D

 32 34  0  0  0  0  0  0  0  0999 V2000
    5.2993    1.2493   -0.0364 N   0  0  0  0  0  0  0  0  0  0  0  0
    4.2460    0.3275   -0.2484 C   0  0  0  0  0  0  0  0  0  0  0  0
    4.4790   -0.9552   -0.5877 N   0  0  0  0  0  0  0  0  0  0  0  0
    3.4999   -1.8544   -0.7957 C   0  0  0  0  0  0  0  0  0  0  0  0
    2.2316   -1.4323   -0.6529 N   0  0  0  0  0  0  0  0  0  0  0  0
    1.9202   -0.1711   -0.3170 C   0  0  0  0  0  0  0  0  0  0  0  0
    0.7163    0.4061   -0.1355 N   0  0  0  0  0  0  0  0  0  0  0  0
    0.9940    1.6851    0.1895 C   0  0  0  0  0  0  0  0  0  0  0  0
    2.3234    1.8933    0.2088 N   0  0  0  0  0  0  0  0  0  0  0  0
    2.9172    0.7380   -0.1069 C   0  0  0  0  0  0  0  0  0  0  0  0
   -0.5647   -0.2263   -0.2663 C   0  0  2  0  0  0  0  0  0  0  0  0
   -1.5038    0.5002   -0.9388 O   0  0  0  0  0  0  0  0  0  0  0  0
   -2.7192    0.3829   -0.3189 C   0  0  1  0  0  0  0  0  0  0  0  0
   -3.8662    0.2050   -1.2858 C   0  0  0  0  0  0  0  0  0  0  0  0
   -3.9013    1.3212   -2.1162 O   0  0  0  0  0  0  0  0  0  0  0  0
   -2.6338   -0.7637    0.6663 C   0  0  2  0  0  0  0  0  0  0  0  0
   -3.4894   -0.6334    1.7258 O   0  0  0  0  0  0  0  0  0  0  0  0
   -1.1622   -0.6194    1.0797 C   0  0  1  0  0  0  0  0  0  0  0  0
   -0.6391   -1.7900    1.5636 O   0  0  0  0  0  0  0  0  0  0  0  0
    6.1955    0.9045    0.3770 H   0  0  0  0  0  0  0  0  0  0  0  0
    5.1455    2.2471   -0.3011 H   0  0  0  0  0  0  0  0  0  0  0  0
    3.7456   -2.8685   -1.0656 H   0  0  0  0  0  0  0  0  0  0  0  0
    0.2782    2.4624    0.4102 H   0  0  0  0  0  0  0  0  0  0  0  0
   -0.4279   -1.1947   -0.8247 H   0  0  0  0  0  0  0  0  0  0  0  0
   -2.9028    1.3045    0.2839 H   0  0  0  0  0  0  0  0  0  0  0  0
   -4.8005    0.1479   -0.6936 H   0  0  0  0  0  0  0  0  0  0  0  0
   -3.7117   -0.7069   -1.8913 H   0  0  0  0  0  0  0  0  0  0  0  0
   -4.2562    2.1090   -1.6255 H   0  0  0  0  0  0  0  0  0  0  0  0
   -2.7044   -1.7448    0.1399 H   0  0  0  0  0  0  0  0  0  0  0  0
   -3.5867   -1.5147    2.1686 H   0  0  0  0  0  0  0  0  0  0  0  0
   -1.0648    0.2442    1.7645 H   0  0  0  0  0  0  0  0  0  0  0  0
   -0.0571   -1.6528    2.3746 H   0  0  0  0  0  0  0  0  0  0  0  0
  1  2  1  0
  2  3  2  0
  3  4  1  0
  4  5  2  0
  5  6  1  0
  6  7  1  0
  7  8  1  0
  8  9  2  0
  9 10  1  0
  7 11  1  0
 11 12  1  0
 12 13  1  0
 13 14  1  0
 14 15  1  0
 13 16  1  0
 16 17  1  0
 16 18  1  0
 18 19  1  0
 10  2  1  0
 18 11  1  0
 10  6  2  0
  1 20  1  0
  1 21  1  0
  4 22  1  0
  8 23  1  0
 11 24  1  6
 13 25  1  1
 14 26  1  0
 14 27  1  0
 15 28  1  0
 16 29  1  6
 17 30  1  0
 18 31  1  1
 19 32  1  0
M  END
$$$$
[H]c1nc(C(=O)N([H])c2c([H])c([H])c(N3C([H])([H])C([H])([H])N(C([H])([H])[H])C([H])([H])C3([H])[H])c([H])c2[H])n([H])c1C#N
     RDKit          3D

 41 43  0  0  0  0  0  0  0  0999 V2000
   -6.2183    0.7740    0.0700 C   0  0  0  0  0  0  0  0  0  0  0  0
   -5.3643    0.0301    0.9848 N   0  0  0  0  0  0  0  0  0  0  0  0
   -4.4156    0.8729    1.6436 C   0  0  0  0  0  0  0  0  0  0  0  0
   -3.1006    0.1865    1.9548 C   0  0  0  0  0  0  0  0  0  0  0  0
   -2.5134   -0.2057    0.6925 N   0  0  0  0  0  0  0  0  0  0  0  0
   -3.4280   -0.6244   -0.3531 C   0  0  0  0  0  0  0  0  0  0  0  0
   -4.7639   -1.0370    0.2364 C   0  0  0  0  0  0  0  0  0  0  0  0
   -1.1141   -0.2037    0.4345 C   0  0  0  0  0  0  0  0  0  0  0  0
   -0.6307   -0.5231   -0.8110 C   0  0  0  0  0  0  0  0  0  0  0  0
    0.7461   -0.5334   -1.0989 C   0  0  0  0  0  0  0  0  0  0  0  0
    1.6767   -0.2235   -0.1471 C   0  0  0  0  0  0  0  0  0  0  0  0
    3.0860   -0.1914   -0.3316 N   0  0  0  0  0  0  0  0  0  0  0  0
    3.7657   -0.3119   -1.5315 C   0  0  0  0  0  0  0  0  0  0  0  0
    3.2268   -0.4641   -2.6288 O   0  0  0  0  0  0  0  0  0  0  0  0
    5.2427   -0.2595   -1.5425 C   0  0  0  0  0  0  0  0  0  0  0  0
    6.0650   -0.3560   -2.5885 N   0  0  0  0  0  0  0  0  0  0  0  0
    7.3301   -0.2595   -2.1723 C   0  0  0  0  0  0  0  0  0  0  0  0
    7.3330   -0.0944   -0.8076 C   0  0  0  0  0  0  0  0  0  0  0  0
    6.0336   -0.0997   -0.4593 N   0  0  0  0  0  0  0  0  0  0  0  0
    8.4948    0.0489    0.0266 C   0  0  0  0  0  0  0  0  0  0  0  0
    9.4435    0.1626    0.6846 N   0  0  0  0  0  0  0  0  0  0  0  0
    1.1629    0.1004    1.1211 C   0  0  0  0  0  0  0  0  0  0  0  0
   -0.1839    0.1096    1.4004 C   0  0  0  0  0  0  0  0  0  0  0  0
   -5.7133    0.8986   -0.9186 H   0  0  0  0  0  0  0  0  0  0  0  0
   -6.4880    1.7707    0.4461 H   0  0  0  0  0  0  0  0  0  0  0  0
   -7.1009    0.1262   -0.1328 H   0  0  0  0  0  0  0  0  0  0  0  0
   -4.1671    1.7148    0.9501 H   0  0  0  0  0  0  0  0  0  0  0  0
   -4.7830    1.3294    2.5815 H   0  0  0  0  0  0  0  0  0  0  0  0
   -3.2856   -0.7719    2.5153 H   0  0  0  0  0  0  0  0  0  0  0  0
   -2.5065    0.8912    2.5372 H   0  0  0  0  0  0  0  0  0  0  0  0
   -3.0382   -1.5684   -0.8381 H   0  0  0  0  0  0  0  0  0  0  0  0
   -3.5139    0.1540   -1.1100 H   0  0  0  0  0  0  0  0  0  0  0  0
   -4.6025   -1.9434    0.8583 H   0  0  0  0  0  0  0  0  0  0  0  0
   -5.4209   -1.3098   -0.5915 H   0  0  0  0  0  0  0  0  0  0  0  0
   -1.3308   -0.7746   -1.5977 H   0  0  0  0  0  0  0  0  0  0  0  0
    1.0548   -0.7979   -2.0877 H   0  0  0  0  0  0  0  0  0  0  0  0
    3.7084   -0.0636    0.5394 H   0  0  0  0  0  0  0  0  0  0  0  0
    8.2528   -0.2975   -2.7647 H   0  0  0  0  0  0  0  0  0  0  0  0
    5.7386    0.0105    0.5411 H   0  0  0  0  0  0  0  0  0  0  0  0
    1.8815    0.3500    1.8931 H   0  0  0  0  0  0  0  0  0  0  0  0
   -0.5596    0.3657    2.4019 H   0  0  0  0  0  0  0  0  0  0  0  0
  1  2  1  0
  2  3  1  0
  3  4  1  0
  4  5  1  0
  5  6  1  0
  6  7  1  0
  5  8  1  0
  8  9  2  0
  9 10  1  0
 10 11  2  0
 11 12  1  0
 12 13  1  0
 13 14  2  0
 13 15  1  0
 15 16  2  0
 16 17  1  0
 17 18  2  0
 18 19  1  0
 18 20  1  0
 20 21  3  0
 11 22  1  0
 22 23  2  0
  7  2  1  0
 23  8  1  0
 19 15  1  0
  1 24  1  0
  1 25  1  0
  1 26  1  0
  3 27  1  0
  3 28  1  0
  4 29  1  0
  4 30  1  0
  6 31  1  0
  6 32  1  0
  7 33  1  0
  7 34  1  0
  9 35  1  0
 10 36  1  0
 12 37  1  0
 17 38  1  0
 19 39  1  0
 22 40  1  0
 23 41  1  0
M  END
$$$$
[H]OC(=O)[C@@]1([H])O[C@@]([H])(n2c([H])nc3c(N([H])C([H])([H])c4c([H])c([H])c(-c5c([H])c([H])c([H])c([H])c5[H])c([H])c4[H])nc([H])nc32)[C@]([H])(O[H])[C@]1([H])O[H]
     RDKit          3D

 54 58  0  0  0  0  0  0  0  0999 V2000
   -3.7423   -3.2155   -1.8834 O   0  0  0  0  0  0  0  0  0  0  0  0
   -4.9878   -2.6136   -2.0735 C   0  0  0  0  0  0  0  0  0  0  0  0
   -5.7465   -3.1360   -2.9201 O   0  0  0  0  0  0  0  0  0  0  0  0
   -5.3856   -1.3984   -1.2934 C   0  0  1  0  0  0  0  0  0  0  0  0
   -4.3612   -1.0250   -0.4228 O   0  0  0  0  0  0  0  0  0  0  0  0
   -4.5817    0.3233   -0.1473 C   0  0  2  0  0  0  0  0  0  0  0  0
   -4.7991    0.8723   -1.5543 C   0  0  2  0  0  0  0  0  0  0  0  0
   -5.5439    2.0364   -1.4274 O   0  0  0  0  0  0  0  0  0  0  0  0
   -5.5683   -0.2371   -2.2383 C   0  0  2  0  0  0  0  0  0  0  0  0
   -6.9085    0.0786   -2.4017 O   0  0  0  0  0  0  0  0  0  0  0  0
   -3.4547    0.9658    0.4467 N   0  0  0  0  0  0  0  0  0  0  0  0
   -3.3233    2.2979    0.5641 C   0  0  0  0  0  0  0  0  0  0  0  0
   -2.1544    2.5794    1.1658 N   0  0  0  0  0  0  0  0  0  0  0  0
   -1.5556    1.3927    1.4232 C   0  0  0  0  0  0  0  0  0  0  0  0
   -0.3529    1.1061    2.0205 C   0  0  0  0  0  0  0  0  0  0  0  0
    0.4554    2.1774    2.4726 N   0  0  0  0  0  0  0  0  0  0  0  0
    1.7389    2.0164    3.1134 C   0  0  0  0  0  0  0  0  0  0  0  0
    2.6514    1.3373    2.1457 C   0  0  0  0  0  0  0  0  0  0  0  0
    3.0042    1.9667    0.9706 C   0  0  0  0  0  0  0  0  0  0  0  0
    3.8521    1.3177    0.1083 C   0  0  0  0  0  0  0  0  0  0  0  0
    4.3642    0.0683    0.3651 C   0  0  0  0  0  0  0  0  0  0  0  0
    3.9888   -0.5416    1.5613 C   0  0  0  0  0  0  0  0  0  0  0  0
    3.1391    0.0978    2.4355 C   0  0  0  0  0  0  0  0  0  0  0  0
    5.2540   -0.6404   -0.5178 C   0  0  0  0  0  0  0  0  0  0  0  0
    5.1564   -0.4710   -1.8765 C   0  0  0  0  0  0  0  0  0  0  0  0
    6.0140   -1.1511   -2.7514 C   0  0  0  0  0  0  0  0  0  0  0  0
    6.9674   -2.0004   -2.2470 C   0  0  0  0  0  0  0  0  0  0  0  0
    7.0666   -2.1713   -0.8880 C   0  0  0  0  0  0  0  0  0  0  0  0
    6.2151   -1.4950   -0.0360 C   0  0  0  0  0  0  0  0  0  0  0  0
   -0.0317   -0.1880    2.1337 N   0  0  0  0  0  0  0  0  0  0  0  0
   -0.8264   -1.1805    1.6939 C   0  0  0  0  0  0  0  0  0  0  0  0
   -1.9946   -0.8744    1.1148 N   0  0  0  0  0  0  0  0  0  0  0  0
   -2.3779    0.3956    0.9692 C   0  0  0  0  0  0  0  0  0  0  0  0
   -3.6343   -3.9809   -1.2106 H   0  0  0  0  0  0  0  0  0  0  0  0
   -6.3056   -1.6602   -0.7445 H   0  0  0  0  0  0  0  0  0  0  0  0
   -5.4973    0.3817    0.4709 H   0  0  0  0  0  0  0  0  0  0  0  0
   -3.8049    1.0291   -2.0059 H   0  0  0  0  0  0  0  0  0  0  0  0
   -5.9277    2.3408   -2.2873 H   0  0  0  0  0  0  0  0  0  0  0  0
   -5.1078   -0.4577   -3.2015 H   0  0  0  0  0  0  0  0  0  0  0  0
   -7.3527    0.2985   -1.5651 H   0  0  0  0  0  0  0  0  0  0  0  0
   -4.0242    3.0621    0.2394 H   0  0  0  0  0  0  0  0  0  0  0  0
    0.1196    3.1631    2.3440 H   0  0  0  0  0  0  0  0  0  0  0  0
    1.6784    1.3663    4.0101 H   0  0  0  0  0  0  0  0  0  0  0  0
    2.1500    3.0194    3.3841 H   0  0  0  0  0  0  0  0  0  0  0  0
    2.6058    2.9697    0.7423 H   0  0  0  0  0  0  0  0  0  0  0  0
    4.1463    1.7969   -0.8293 H   0  0  0  0  0  0  0  0  0  0  0  0
    4.3799   -1.5350    1.7928 H   0  0  0  0  0  0  0  0  0  0  0  0
    2.8757   -0.4330    3.3681 H   0  0  0  0  0  0  0  0  0  0  0  0
    4.4175    0.1897   -2.3087 H   0  0  0  0  0  0  0  0  0  0  0  0
    5.9505   -1.0289   -3.8177 H   0  0  0  0  0  0  0  0  0  0  0  0
    7.6372   -2.5317   -2.9317 H   0  0  0  0  0  0  0  0  0  0  0  0
    7.8074   -2.8321   -0.4857 H   0  0  0  0  0  0  0  0  0  0  0  0
    6.2769   -1.6170    1.0488 H   0  0  0  0  0  0  0  0  0  0  0  0
   -0.5620   -2.2311    1.7877 H   0  0  0  0  0  0  0  0  0  0  0  0
  1  2  1  0
  2  3  2  0
  2  4  1  0
  4  5  1  0
  5  6  1  0
  6  7  1  0
  7  8  1  0
  7  9  1  0
  9 10  1  0
  6 11  1  0
 11 12  1  0
 12 13  2  0
 13 14  1  0
 14 15  2  0
 15 16  1  0
 16 17  1  0
 17 18  1  0
 18 19  2  0
 19 20  1  0
 20 21  2  0
 21 22  1  0
 22 23  2  0
 21 24  1  0
 24 25  2  0
 25 26  1  0
 26 27  2  0
 27 28  1  0
 28 29  2  0
 15 30  1  0
 30 31  2  0
 31 32  1  0
 32 33  2  0
  9  4  1  0
 33 11  1  0
 33 14  1  0
 23 18  1  0
 29 24  1  0
  1 34  1  0
  4 35  1  1
  6 36  1  1
  7 37  1  6
  8 38  1  0
  9 39  1  6
 10 40  1  0
 12 41  1  0
 16 42  1  0
 17 43  1  0
 17 44  1  0
 19 45  1  0
 20 46  1  0
 22 47  1  0
 23 48  1  0
 25 49  1  0
 26 50  1  0
 27 51  1  0
 28 52  1  0
 29 53  1  0
 31 54  1  0
M  END
$$$$
[H]N(C(=O)[C@]([H])(C(=O)C([H])([H])[H])C([H])([H])[H])[C@]([H])(C(=O)N([H])[C@]([H])(C(=O)N([H])[C@]([H])(C(=O)N([H])[C@]([H])(C(=O)N([H])[C@]([H])(C(=O)N([H])[C@]([H])(C(=O)N([H])[C@]([H])(C(=O)N([H])[C@]([H])(C(=O)N1C([H])([H])C([H])([H])C([H])([H])[C@@]1([H])C(=O)N1C(=O)C([H])([H])C([H])([H])C1([H])[H])C([H])([H])C([H])(C([H])([H])[H])C([H])([H])[H])C([H])([H])[H])C([H])([H])[H])C([H])([H])[H])C([H])([H])[H])C([H])([H])[H])C([H])([H])[H])C([H])([H])[H]
     RDKit          3D

129130  0  0  0  0  0  0  0  0999 V2000
  -10.2614   -4.5208   -0.7535 C   0  0  0  0  0  0  0  0  0  0  0  0
  -10.3173   -4.0873    0.7075 C   0  0  0  0  0  0  0  0  0  0  0  0
   -9.9234   -5.3799    1.4791 C   0  0  0  0  0  0  0  0  0  0  0  0
   -9.3315   -3.0413    1.0311 C   0  0  0  0  0  0  0  0  0  0  0  0
   -9.3093   -1.7552    0.3804 C   0  0  2  0  0  0  0  0  0  0  0  0
   -8.0709   -1.0623    0.9341 N   0  0  0  0  0  0  0  0  0  0  0  0
   -7.0789   -0.6028    0.0503 C   0  0  0  0  0  0  0  0  0  0  0  0
   -7.1355   -0.7145   -1.1908 O   0  0  0  0  0  0  0  0  0  0  0  0
   -5.8851    0.0575    0.6611 C   0  0  2  0  0  0  0  0  0  0  0  0
   -6.3426    1.1213    1.6111 C   0  0  0  0  0  0  0  0  0  0  0  0
   -4.9636    0.4766   -0.3459 N   0  0  0  0  0  0  0  0  0  0  0  0
   -3.7227   -0.2017   -0.5636 C   0  0  0  0  0  0  0  0  0  0  0  0
   -3.4561   -1.1999    0.1767 O   0  0  0  0  0  0  0  0  0  0  0  0
   -2.7600    0.1996   -1.5925 C   0  0  2  0  0  0  0  0  0  0  0  0
   -3.3505    0.3396   -2.9616 C   0  0  0  0  0  0  0  0  0  0  0  0
   -1.6523   -0.7503   -1.5587 N   0  0  0  0  0  0  0  0  0  0  0  0
   -0.3585   -0.3197   -1.2693 C   0  0  0  0  0  0  0  0  0  0  0  0
   -0.1791    0.9225   -1.0494 O   0  0  0  0  0  0  0  0  0  0  0  0
    0.7663   -1.2656   -1.2159 C   0  0  2  0  0  0  0  0  0  0  0  0
    0.5217   -2.2358   -0.0617 C   0  0  0  0  0  0  0  0  0  0  0  0
    1.9659   -0.5298   -0.9108 N   0  0  0  0  0  0  0  0  0  0  0  0
    3.2022   -0.9527   -1.5145 C   0  0  0  0  0  0  0  0  0  0  0  0
    3.2076   -1.9457   -2.2597 O   0  0  0  0  0  0  0  0  0  0  0  0
    4.4436   -0.2131   -1.2469 C   0  0  2  0  0  0  0  0  0  0  0  0
    4.5731    0.9463   -2.2717 C   0  0  0  0  0  0  0  0  0  0  0  0
    5.6102   -1.0784   -1.5062 N   0  0  0  0  0  0  0  0  0  0  0  0
    6.6623   -0.9922   -0.5813 C   0  0  0  0  0  0  0  0  0  0  0  0
    6.5695   -0.2036    0.4157 O   0  0  0  0  0  0  0  0  0  0  0  0
    7.9001   -1.8097   -0.7498 C   0  0  2  0  0  0  0  0  0  0  0  0
    7.5045   -3.2464   -0.5493 C   0  0  0  0  0  0  0  0  0  0  0  0
    8.8145   -1.3461    0.2868 N   0  0  0  0  0  0  0  0  0  0  0  0
    9.9611   -0.5940    0.0156 C   0  0  0  0  0  0  0  0  0  0  0  0
   10.2158   -0.2960   -1.1713 O   0  0  0  0  0  0  0  0  0  0  0  0
   10.8795   -0.1389    1.1133 C   0  0  2  0  0  0  0  0  0  0  0  0
   10.1481    0.1251    2.3954 C   0  0  0  0  0  0  0  0  0  0  0  0
   11.6063    1.0303    0.6306 N   0  0  0  0  0  0  0  0  0  0  0  0
   12.9249    0.9877    0.1507 C   0  0  0  0  0  0  0  0  0  0  0  0
   13.5857   -0.0529    0.1081 O   0  0  0  0  0  0  0  0  0  0  0  0
   13.5396    2.2800   -0.3379 C   0  0  2  0  0  0  0  0  0  0  0  0
   12.6130    2.7626   -1.4521 C   0  0  0  0  0  0  0  0  0  0  0  0
   14.8468    1.9949   -0.8586 N   0  0  0  0  0  0  0  0  0  0  0  0
   16.0554    2.5403   -0.3451 C   0  0  0  0  0  0  0  0  0  0  0  0
   15.9953    3.3228    0.6306 O   0  0  0  0  0  0  0  0  0  0  0  0
   17.3679    2.1584   -0.9963 C   0  0  1  0  0  0  0  0  0  0  0  0
   18.5182    2.7411   -0.2121 C   0  0  0  0  0  0  0  0  0  0  0  0
   17.4901    0.7058   -1.1337 C   0  0  0  0  0  0  0  0  0  0  0  0
   17.4332   -0.2280    0.0259 C   0  0  0  0  0  0  0  0  0  0  0  0
   17.6466    0.2068   -2.2427 O   0  0  0  0  0  0  0  0  0  0  0  0
  -10.2958   -0.7224    0.4027 C   0  0  0  0  0  0  0  0  0  0  0  0
   -9.7842    0.4151   -0.1267 O   0  0  0  0  0  0  0  0  0  0  0  0
  -11.5997   -0.5438    0.8025 N   0  0  0  0  0  0  0  0  0  0  0  0
  -12.6517   -1.2501    1.4649 C   0  0  0  0  0  0  0  0  0  0  0  0
  -13.7422   -1.1584    0.3828 C   0  0  0  0  0  0  0  0  0  0  0  0
  -13.6928    0.3708    0.1740 C   0  0  0  0  0  0  0  0  0  0  0  0
  -12.2933    0.7676    0.4949 C   0  0  1  0  0  0  0  0  0  0  0  0
  -12.1355    1.6530    1.6483 C   0  0  0  0  0  0  0  0  0  0  0  0
  -11.5995    1.2238    2.7306 O   0  0  0  0  0  0  0  0  0  0  0  0
  -12.5662    3.0020    1.6000 N   0  0  0  0  0  0  0  0  0  0  0  0
  -12.4515    3.9821    2.6941 C   0  0  0  0  0  0  0  0  0  0  0  0
  -12.8234    5.3082    2.0794 C   0  0  0  0  0  0  0  0  0  0  0  0
  -13.8776    4.8577    1.0642 C   0  0  0  0  0  0  0  0  0  0  0  0
  -13.1620    3.6609    0.4953 C   0  0  0  0  0  0  0  0  0  0  0  0
  -13.1243    3.3489   -0.7024 O   0  0  0  0  0  0  0  0  0  0  0  0
   -9.3694   -5.1247   -0.9646 H   0  0  0  0  0  0  0  0  0  0  0  0
  -11.1326   -5.2103   -0.8960 H   0  0  0  0  0  0  0  0  0  0  0  0
  -10.4096   -3.6822   -1.4564 H   0  0  0  0  0  0  0  0  0  0  0  0
  -11.3505   -3.9341    0.9473 H   0  0  0  0  0  0  0  0  0  0  0  0
  -10.7282   -6.1007    1.3680 H   0  0  0  0  0  0  0  0  0  0  0  0
   -9.7352   -5.1123    2.5254 H   0  0  0  0  0  0  0  0  0  0  0  0
   -9.0255   -5.7649    0.9626 H   0  0  0  0  0  0  0  0  0  0  0  0
   -9.3197   -2.9667    2.1678 H   0  0  0  0  0  0  0  0  0  0  0  0
   -8.2939   -3.5170    0.8574 H   0  0  0  0  0  0  0  0  0  0  0  0
   -8.9832   -1.9041   -0.7052 H   0  0  0  0  0  0  0  0  0  0  0  0
   -7.9714   -0.9379    1.9540 H   0  0  0  0  0  0  0  0  0  0  0  0
   -5.3658   -0.7528    1.2518 H   0  0  0  0  0  0  0  0  0  0  0  0
   -7.3161    1.5577    1.3112 H   0  0  0  0  0  0  0  0  0  0  0  0
   -5.5779    1.9152    1.7784 H   0  0  0  0  0  0  0  0  0  0  0  0
   -6.5168    0.6805    2.6410 H   0  0  0  0  0  0  0  0  0  0  0  0
   -5.1818    1.2893   -0.9558 H   0  0  0  0  0  0  0  0  0  0  0  0
   -2.3508    1.2220   -1.3329 H   0  0  0  0  0  0  0  0  0  0  0  0
   -4.4655    0.2716   -2.8480 H   0  0  0  0  0  0  0  0  0  0  0  0
   -3.0366   -0.4460   -3.6753 H   0  0  0  0  0  0  0  0  0  0  0  0
   -3.1124    1.3358   -3.4272 H   0  0  0  0  0  0  0  0  0  0  0  0
   -1.8362   -1.7631   -1.7550 H   0  0  0  0  0  0  0  0  0  0  0  0
    0.8824   -1.8966   -2.1265 H   0  0  0  0  0  0  0  0  0  0  0  0
    0.8425   -3.2639   -0.3459 H   0  0  0  0  0  0  0  0  0  0  0  0
    1.1201   -1.9381    0.8015 H   0  0  0  0  0  0  0  0  0  0  0  0
   -0.5386   -2.2759    0.1747 H   0  0  0  0  0  0  0  0  0  0  0  0
    1.9147    0.2817   -0.2600 H   0  0  0  0  0  0  0  0  0  0  0  0
    4.4568    0.2466   -0.2621 H   0  0  0  0  0  0  0  0  0  0  0  0
    5.0261    1.7868   -1.7527 H   0  0  0  0  0  0  0  0  0  0  0  0
    5.2686    0.6543   -3.0951 H   0  0  0  0  0  0  0  0  0  0  0  0
    3.5619    1.1947   -2.6391 H   0  0  0  0  0  0  0  0  0  0  0  0
    5.5568   -1.6728   -2.3438 H   0  0  0  0  0  0  0  0  0  0  0  0
    8.3121   -1.6670   -1.7719 H   0  0  0  0  0  0  0  0  0  0  0  0
    6.8966   -3.3312    0.4040 H   0  0  0  0  0  0  0  0  0  0  0  0
    8.4007   -3.8902   -0.4876 H   0  0  0  0  0  0  0  0  0  0  0  0
    6.8036   -3.5399   -1.3448 H   0  0  0  0  0  0  0  0  0  0  0  0
    8.5676   -1.6122    1.2573 H   0  0  0  0  0  0  0  0  0  0  0  0
   11.6220   -0.9499    1.2814 H   0  0  0  0  0  0  0  0  0  0  0  0
   10.7924    0.4894    3.2014 H   0  0  0  0  0  0  0  0  0  0  0  0
    9.6313   -0.7846    2.7754 H   0  0  0  0  0  0  0  0  0  0  0  0
    9.4203    0.9590    2.1960 H   0  0  0  0  0  0  0  0  0  0  0  0
   11.0760    1.9493    0.6628 H   0  0  0  0  0  0  0  0  0  0  0  0
   13.5368    3.0013    0.4925 H   0  0  0  0  0  0  0  0  0  0  0  0
   11.7627    3.2716   -0.9277 H   0  0  0  0  0  0  0  0  0  0  0  0
   12.1897    1.8621   -1.9403 H   0  0  0  0  0  0  0  0  0  0  0  0
   13.1452    3.4180   -2.1504 H   0  0  0  0  0  0  0  0  0  0  0  0
   14.8892    1.3237   -1.6871 H   0  0  0  0  0  0  0  0  0  0  0  0
   17.3341    2.6353   -2.0202 H   0  0  0  0  0  0  0  0  0  0  0  0
   18.2968    2.6852    0.8911 H   0  0  0  0  0  0  0  0  0  0  0  0
   19.4645    2.2241   -0.4344 H   0  0  0  0  0  0  0  0  0  0  0  0
   18.5775    3.8246   -0.4371 H   0  0  0  0  0  0  0  0  0  0  0  0
   17.2519    0.3182    0.9798 H   0  0  0  0  0  0  0  0  0  0  0  0
   16.5586   -0.9193   -0.1051 H   0  0  0  0  0  0  0  0  0  0  0  0
   18.3637   -0.8221    0.1136 H   0  0  0  0  0  0  0  0  0  0  0  0
  -12.4826   -2.2230    1.8533 H   0  0  0  0  0  0  0  0  0  0  0  0
  -13.0932   -0.6458    2.3120 H   0  0  0  0  0  0  0  0  0  0  0  0
  -13.4263   -1.6073   -0.5644 H   0  0  0  0  0  0  0  0  0  0  0  0
  -14.7262   -1.4656    0.7583 H   0  0  0  0  0  0  0  0  0  0  0  0
  -14.3783    0.8244    0.9309 H   0  0  0  0  0  0  0  0  0  0  0  0
  -14.0294    0.6170   -0.8499 H   0  0  0  0  0  0  0  0  0  0  0  0
  -11.7928    1.1704   -0.4057 H   0  0  0  0  0  0  0  0  0  0  0  0
  -13.2026    3.7307    3.4610 H   0  0  0  0  0  0  0  0  0  0  0  0
  -11.4135    4.0378    3.0515 H   0  0  0  0  0  0  0  0  0  0  0  0
  -13.2070    6.0224    2.8105 H   0  0  0  0  0  0  0  0  0  0  0  0
  -11.9920    5.7583    1.4733 H   0  0  0  0  0  0  0  0  0  0  0  0
  -14.1027    5.6059    0.3098 H   0  0  0  0  0  0  0  0  0  0  0  0
  -14.7297    4.4874    1.6543 H   0  0  0  0  0  0  0  0  0  0  0  0
  1  2  1  0
  2  3  1  0
  2  4  1  0
  4  5  1  0
  5  6  1  0
  6  7  1  0
  7  8  2  0
  7  9  1  0
  9 10  1  0
  9 11  1  0
 11 12  1  0
 12 13  2  0
 12 14  1  0
 14 15  1  0
 14 16  1  0
 16 17  1  0
 17 18  2  0
 17 19  1  0
 19 20  1  0
 19 21  1  0
 21 22  1  0
 22 23  2  0
 22 24  1  0
 24 25  1  0
 24 26  1  0
 26 27  1  0
 27 28  2  0
 27 29  1  0
 29 30  1  0
 29 31  1  0
 31 32  1  0
 32 33  2  0
 32 34  1  0
 34 35  1  0
 34 36  1  0
 36 37  1  0
 37 38  2  0
 37 39  1  0
 39 40  1  0
 39 41  1  0
 41 42  1  0
 42 43  2  0
 42 44  1  0
 44 45  1  0
 44 46  1  0
 46 47  1  0
 46 48  2  0
  5 49  1  0
 49 50  2  0
 49 51  1  0
 51 52  1  0
 52 53  1  0
 53 54  1  0
 54 55  1  0
 55 56  1  0
 56 57  2  0
 56 58  1  0
 58 59  1  0
 59 60  1  0
 60 61  1  0
 61 62  1  0
 62 63  2  0
 55 51  1  0
 62 58  1  0
  1 64  1  0
  1 65  1  0
  1 66  1  0
  2 67  1  0
  3 68  1  0
  3 69  1  0
  3 70  1  0
  4 71  1  0
  4 72  1  0
  5 73  1  6
  6 74  1  0
  9 75  1  1
 10 76  1  0
 10 77  1  0
 10 78  1  0
 11 79  1  0
 14 80  1  1
 15 81  1  0
 15 82  1  0
 15 83  1  0
 16 84  1  0
 19 85  1  6
 20 86  1  0
 20 87  1  0
 20 88  1  0
 21 89  1  0
 24 90  1  1
 25 91  1  0
 25 92  1  0
 25 93  1  0
 26 94  1  0
 29 95  1  6
 30 96  1  0
 30 97  1  0
 30 98  1  0
 31 99  1  0
 34100  1  1
 35101  1  0
 35102  1  0
 35103  1  0
 36104  1  0
 39105  1  1
 40106  1  0
 40107  1  0
 40108  1  0
 41109  1  0
 44110  1  6
 45111  1  0
 45112  1  0
 45113  1  0
 47114  1  0
 47115  1  0
 47116  1  0
 52117  1  0
 52118  1  0
 53119  1  0
 53120  1  0
 54121  1  0
 54122  1  0
 55123  1  6
 59124  1  0
 59125  1  0
 60126  1  0
 60127  1  0
 61128  1  0
 61129  1  0
M  END
$$$$
[H]OC(=O)C([H])([H])[C@@]([H])(C(=O)N([H])[C@]([H])(C(=O)O[H])C([H])([H])c1c([H])c([H])c([H])c([H])c1[H])N([H])C(=O)[C@@]([H])(N([H])C(=O)[C@@]([H])(N([H])C(=O)[C@@]([H])(N([H])C(=O)[C@@]([H])(N([H])[H])C([H])([H])c1c([H])c([H])c([H])c([H])c1[H])[C@@]([H])(C([H])([H])[H])C([H])([H])C([H])([H])[H])C([H])([H])c1c([H])c([H])c([H])c([H])c1[H])C([H])([H])c1c([H])c([H])c([H])c([H])c1[H]
     RDKit          3D

115118  0  0  0  0  0  0  0  0999 V2000
   -6.3094   -1.3818   -4.3463 C   0  0  0  0  0  0  0  0  0  0  0  0
   -6.4446   -1.1766   -2.8575 C   0  0  0  0  0  0  0  0  0  0  0  0
   -5.0035   -1.1380   -2.3083 C   0  0  2  0  0  0  0  0  0  0  0  0
   -4.4272   -2.4758   -2.6674 C   0  0  0  0  0  0  0  0  0  0  0  0
   -5.0535   -0.7795   -0.8800 C   0  0  2  0  0  0  0  0  0  0  0  0
   -5.7155    0.5333   -0.7976 N   0  0  0  0  0  0  0  0  0  0  0  0
   -6.6129    0.8759    0.2317 C   0  0  0  0  0  0  0  0  0  0  0  0
   -6.8036   -0.0124    1.1356 O   0  0  0  0  0  0  0  0  0  0  0  0
   -7.3387    2.1193    0.3644 C   0  0  1  0  0  0  0  0  0  0  0  0
   -7.9280    2.2984    1.6916 N   0  0  0  0  0  0  0  0  0  0  0  0
   -6.7519    3.3930   -0.0650 C   0  0  0  0  0  0  0  0  0  0  0  0
   -5.5328    3.8749    0.5498 C   0  0  0  0  0  0  0  0  0  0  0  0
   -5.6204    4.5966    1.7183 C   0  0  0  0  0  0  0  0  0  0  0  0
   -4.4840    5.1220    2.3207 C   0  0  0  0  0  0  0  0  0  0  0  0
   -3.2509    4.9146    1.7356 C   0  0  0  0  0  0  0  0  0  0  0  0
   -3.1468    4.2048    0.5815 C   0  0  0  0  0  0  0  0  0  0  0  0
   -4.2973    3.6899   -0.0017 C   0  0  0  0  0  0  0  0  0  0  0  0
   -3.8130   -0.8126   -0.1266 C   0  0  0  0  0  0  0  0  0  0  0  0
   -3.4665    0.2842    0.4548 O   0  0  0  0  0  0  0  0  0  0  0  0
   -2.9155   -1.8708    0.0791 N   0  0  0  0  0  0  0  0  0  0  0  0
   -1.7194   -1.7968    0.8479 C   0  0  1  0  0  0  0  0  0  0  0  0
   -1.7189   -2.8802    1.9149 C   0  0  0  0  0  0  0  0  0  0  0  0
   -2.8389   -2.7759    2.8466 C   0  0  0  0  0  0  0  0  0  0  0  0
   -4.0172   -3.4108    2.5424 C   0  0  0  0  0  0  0  0  0  0  0  0
   -5.1232   -3.3472    3.3978 C   0  0  0  0  0  0  0  0  0  0  0  0
   -5.0235   -2.6346    4.5650 C   0  0  0  0  0  0  0  0  0  0  0  0
   -3.8436   -2.0003    4.8678 C   0  0  0  0  0  0  0  0  0  0  0  0
   -2.7378   -2.0635    4.0144 C   0  0  0  0  0  0  0  0  0  0  0  0
   -0.4697   -2.1422    0.0207 C   0  0  0  0  0  0  0  0  0  0  0  0
   -0.7556   -2.5097   -1.1313 O   0  0  0  0  0  0  0  0  0  0  0  0
    0.7880   -2.0280    0.5837 N   0  0  0  0  0  0  0  0  0  0  0  0
    2.1208   -2.2328    0.3019 C   0  0  1  0  0  0  0  0  0  0  0  0
    2.6988   -2.6883   -0.9671 C   0  0  0  0  0  0  0  0  0  0  0  0
    2.3979   -4.0361   -1.4865 C   0  0  0  0  0  0  0  0  0  0  0  0
    3.0180   -5.1280   -0.8623 C   0  0  0  0  0  0  0  0  0  0  0  0
    2.8369   -6.3829   -1.3757 C   0  0  0  0  0  0  0  0  0  0  0  0
    2.0754   -6.6534   -2.4770 C   0  0  0  0  0  0  0  0  0  0  0  0
    1.4552   -5.5930   -3.1065 C   0  0  0  0  0  0  0  0  0  0  0  0
    1.6340   -4.3192   -2.5930 C   0  0  0  0  0  0  0  0  0  0  0  0
    3.0320   -1.1267    0.7952 C   0  0  0  0  0  0  0  0  0  0  0  0
    2.5341   -0.0170    0.9939 O   0  0  0  0  0  0  0  0  0  0  0  0
    4.3843   -1.4325    0.9908 N   0  0  0  0  0  0  0  0  0  0  0  0
    5.3669   -0.4259    1.4151 C   0  0  1  0  0  0  0  0  0  0  0  0
    6.6001   -1.0991    1.8944 C   0  0  0  0  0  0  0  0  0  0  0  0
    6.3191   -1.9910    3.0418 C   0  0  0  0  0  0  0  0  0  0  0  0
    7.3161   -2.7359    3.6638 O   0  0  0  0  0  0  0  0  0  0  0  0
    5.1490   -2.0822    3.4707 O   0  0  0  0  0  0  0  0  0  0  0  0
    5.6469    0.5450    0.2952 C   0  0  0  0  0  0  0  0  0  0  0  0
    5.0756    0.4998   -0.8199 O   0  0  0  0  0  0  0  0  0  0  0  0
    6.6073    1.5367    0.5704 N   0  0  0  0  0  0  0  0  0  0  0  0
    6.9066    2.5381   -0.4863 C   0  0  1  0  0  0  0  0  0  0  0  0
    6.5693    3.8870    0.0535 C   0  0  0  0  0  0  0  0  0  0  0  0
    6.7991    4.9541   -0.9186 C   0  0  0  0  0  0  0  0  0  0  0  0
    7.9616    5.6957   -0.9718 C   0  0  0  0  0  0  0  0  0  0  0  0
    8.0773    6.6728   -1.9236 C   0  0  0  0  0  0  0  0  0  0  0  0
    7.0980    6.9735   -2.8469 C   0  0  0  0  0  0  0  0  0  0  0  0
    5.9391    6.2047   -2.7626 C   0  0  0  0  0  0  0  0  0  0  0  0
    5.7870    5.2334   -1.8407 C   0  0  0  0  0  0  0  0  0  0  0  0
    8.3227    2.3623   -0.8078 C   0  0  0  0  0  0  0  0  0  0  0  0
    9.0217    3.0466   -1.7890 O   0  0  0  0  0  0  0  0  0  0  0  0
    9.0133    1.5105   -0.1534 O   0  0  0  0  0  0  0  0  0  0  0  0
   -6.4853   -2.4317   -4.6181 H   0  0  0  0  0  0  0  0  0  0  0  0
   -5.2999   -1.1022   -4.7068 H   0  0  0  0  0  0  0  0  0  0  0  0
   -7.0243   -0.6729   -4.8285 H   0  0  0  0  0  0  0  0  0  0  0  0
   -6.9383   -2.0368   -2.3759 H   0  0  0  0  0  0  0  0  0  0  0  0
   -6.9890   -0.2650   -2.5778 H   0  0  0  0  0  0  0  0  0  0  0  0
   -4.4151   -0.3894   -2.9023 H   0  0  0  0  0  0  0  0  0  0  0  0
   -4.6996   -2.7831   -3.7021 H   0  0  0  0  0  0  0  0  0  0  0  0
   -3.3172   -2.4267   -2.6511 H   0  0  0  0  0  0  0  0  0  0  0  0
   -4.7305   -3.2891   -1.9736 H   0  0  0  0  0  0  0  0  0  0  0  0
   -5.7834   -1.4575   -0.3416 H   0  0  0  0  0  0  0  0  0  0  0  0
   -5.5096    1.2391   -1.5358 H   0  0  0  0  0  0  0  0  0  0  0  0
   -8.2958    1.9976   -0.2946 H   0  0  0  0  0  0  0  0  0  0  0  0
   -7.2270    2.2533    2.4578 H   0  0  0  0  0  0  0  0  0  0  0  0
   -8.7653    1.6970    1.8449 H   0  0  0  0  0  0  0  0  0  0  0  0
   -6.5217    3.2780   -1.1831 H   0  0  0  0  0  0  0  0  0  0  0  0
   -7.5458    4.2203   -0.1142 H   0  0  0  0  0  0  0  0  0  0  0  0
   -6.5898    4.7786    2.2146 H   0  0  0  0  0  0  0  0  0  0  0  0
   -4.5399    5.6817    3.2234 H   0  0  0  0  0  0  0  0  0  0  0  0
   -2.3575    5.3371    2.2204 H   0  0  0  0  0  0  0  0  0  0  0  0
   -2.1788    4.0300    0.1060 H   0  0  0  0  0  0  0  0  0  0  0  0
   -4.1418    3.1289   -0.9296 H   0  0  0  0  0  0  0  0  0  0  0  0
   -3.1285   -2.8128   -0.3501 H   0  0  0  0  0  0  0  0  0  0  0  0
   -1.5610   -0.7877    1.2259 H   0  0  0  0  0  0  0  0  0  0  0  0
   -0.7727   -2.9498    2.4647 H   0  0  0  0  0  0  0  0  0  0  0  0
   -1.8278   -3.8545    1.3552 H   0  0  0  0  0  0  0  0  0  0  0  0
   -4.1739   -3.9901    1.6371 H   0  0  0  0  0  0  0  0  0  0  0  0
   -6.0539   -3.8424    3.1657 H   0  0  0  0  0  0  0  0  0  0  0  0
   -5.8883   -2.6004    5.2026 H   0  0  0  0  0  0  0  0  0  0  0  0
   -3.7949   -1.4481    5.7910 H   0  0  0  0  0  0  0  0  0  0  0  0
   -1.8518   -1.5403    4.3269 H   0  0  0  0  0  0  0  0  0  0  0  0
    0.6880   -1.6376    1.6464 H   0  0  0  0  0  0  0  0  0  0  0  0
    2.3957   -3.1685    1.0000 H   0  0  0  0  0  0  0  0  0  0  0  0
    3.8347   -2.6280   -0.9195 H   0  0  0  0  0  0  0  0  0  0  0  0
    2.4944   -1.9067   -1.7901 H   0  0  0  0  0  0  0  0  0  0  0  0
    3.6124   -4.9652   -0.0112 H   0  0  0  0  0  0  0  0  0  0  0  0
    3.3320   -7.2370   -0.8768 H   0  0  0  0  0  0  0  0  0  0  0  0
    1.9321   -7.6484   -2.8958 H   0  0  0  0  0  0  0  0  0  0  0  0
    0.8394   -5.7745   -3.9945 H   0  0  0  0  0  0  0  0  0  0  0  0
    1.1197   -3.4930   -3.1239 H   0  0  0  0  0  0  0  0  0  0  0  0
    4.7126   -2.4248    0.8378 H   0  0  0  0  0  0  0  0  0  0  0  0
    4.9366    0.2238    2.2098 H   0  0  0  0  0  0  0  0  0  0  0  0
    7.3732   -0.3640    2.2226 H   0  0  0  0  0  0  0  0  0  0  0  0
    7.0310   -1.7561    1.0738 H   0  0  0  0  0  0  0  0  0  0  0  0
    7.7452   -3.5257    3.1823 H   0  0  0  0  0  0  0  0  0  0  0  0
    7.1229    1.6188    1.4545 H   0  0  0  0  0  0  0  0  0  0  0  0
    6.2249    2.3406   -1.3339 H   0  0  0  0  0  0  0  0  0  0  0  0
    5.4926    3.8988    0.3279 H   0  0  0  0  0  0  0  0  0  0  0  0
    7.1529    4.1202    0.9793 H   0  0  0  0  0  0  0  0  0  0  0  0
    8.7721    5.5090   -0.2674 H   0  0  0  0  0  0  0  0  0  0  0  0
    9.0040    7.2453   -1.9445 H   0  0  0  0  0  0  0  0  0  0  0  0
    7.2126    7.7475   -3.5853 H   0  0  0  0  0  0  0  0  0  0  0  0
    5.1591    6.4421   -3.4980 H   0  0  0  0  0  0  0  0  0  0  0  0
    4.8482    4.6609   -1.8247 H   0  0  0  0  0  0  0  0  0  0  0  0
    9.9842    3.3741   -1.6004 H   0  0  0  0  0  0  0  0  0  0  0  0
  1  2  1  0
  2  3  1  0
  3  4  1  0
  3  5  1  0
  5  6  1  0
  6  7  1  0
  7  8  2  0
  7  9  1  0
  9 10  1  0
  9 11  1  0
 11 12  1  0
 12 13  2  0
 13 14  1  0
 14 15  2  0
 15 16  1  0
 16 17  2  0
  5 18  1  0
 18 19  2  0
 18 20  1  0
 20 21  1  0
 21 22  1  0
 22 23  1  0
 23 24  2  0
 24 25  1  0
 25 26  2  0
 26 27  1  0
 27 28  2  0
 21 29  1  0
 29 30  2  0
 29 31  1  0
 31 32  1  0
 32 33  1  0
 33 34  1  0
 34 35  2  0
 35 36  1  0
 36 37  2  0
 37 38  1  0
 38 39  2  0
 32 40  1  0
 40 41  2  0
 40 42  1  0
 42 43  1  0
 43 44  1  0
 44 45  1  0
 45 46  1  0
 45 47  2  0
 43 48  1  0
 48 49  2  0
 48 50  1  0
 50 51  1  0
 51 52  1  0
 52 53  1  0
 53 54  2  0
 54 55  1  0
 55 56  2  0
 56 57  1  0
 57 58  2  0
 51 59  1  0
 59 60  1  0
 59 61  2  0
 17 12  1  0
 28 23  1  0
 39 34  1  0
 58 53  1  0
  1 62  1  0
  1 63  1  0
  1 64  1  0
  2 65  1  0
  2 66  1  0
  3 67  1  6
  4 68  1  0
  4 69  1  0
  4 70  1  0
  5 71  1  1
  6 72  1  0
  9 73  1  6
 10 74  1  0
 10 75  1  0
 11 76  1  0
 11 77  1  0
 13 78  1  0
 14 79  1  0
 15 80  1  0
 16 81  1  0
 17 82  1  0
 20 83  1  0
 21 84  1  1
 22 85  1  0
 22 86  1  0
 24 87  1  0
 25 88  1  0
 26 89  1  0
 27 90  1  0
 28 91  1  0
 31 92  1  0
 32 93  1  1
 33 94  1  0
 33 95  1  0
 35 96  1  0
 36 97  1  0
 37 98  1  0
 38 99  1  0
 39100  1  0
 42101  1  0
 43102  1  1
 44103  1  0
 44104  1  0
 46105  1  0
 50106  1  0
 51107  1  6
 52108  1  0
 52109  1  0
 54110  1  0
 55111  1  0
 56112  1  0
 57113  1  0
 58114  1  0
 60115  1  0
M  END
$$$$
[H]c1nc(N([H])c2c([H])c([H])c(N3C([H])([H])C([H])([H])C([H])(N4C([H])([H])C([H])([H])C([H])([H])C4([H])[H])C([H])([H])C3([H])[H])c([H])c2OC([H])([H])[H])nc(N([H])c2c([H])c([H])c([H])c([H])c2S(=O)(=O)C(C([H])([H])[H])(C([H])([H])[H])C([H])([H])[H])c1Cl
     RDKit          3D

 80 84  0  0  0  0  0  0  0  0999 V2000
    1.4280    3.8792    0.5782 C   0  0  0  0  0  0  0  0  0  0  0  0
    0.6615    2.7170    0.4755 O   0  0  0  0  0  0  0  0  0  0  0  0
    1.2615    1.4958    0.0810 C   0  0  0  0  0  0  0  0  0  0  0  0
    2.6047    1.4743   -0.1956 C   0  0  0  0  0  0  0  0  0  0  0  0
    3.2652    0.3268   -0.5859 C   0  0  0  0  0  0  0  0  0  0  0  0
    2.5005   -0.7949   -0.6828 C   0  0  0  0  0  0  0  0  0  0  0  0
    1.1340   -0.8175   -0.4115 C   0  0  0  0  0  0  0  0  0  0  0  0
    0.5020    0.3485   -0.0215 C   0  0  0  0  0  0  0  0  0  0  0  0
   -0.8801    0.4264    0.2795 N   0  0  0  0  0  0  0  0  0  0  0  0
   -1.8162   -0.6310    0.3638 C   0  0  0  0  0  0  0  0  0  0  0  0
   -1.5796   -1.9300    0.1758 N   0  0  0  0  0  0  0  0  0  0  0  0
   -2.5290   -2.8641    0.3067 C   0  0  0  0  0  0  0  0  0  0  0  0
   -3.8176   -2.5239    0.6484 C   0  0  0  0  0  0  0  0  0  0  0  0
   -5.0906   -3.6731    0.8491 Cl  0  0  0  0  0  0  0  0  0  0  0  0
   -4.1013   -1.1608    0.8532 C   0  0  0  0  0  0  0  0  0  0  0  0
   -5.3881   -0.7312    1.1962 N   0  0  0  0  0  0  0  0  0  0  0  0
   -5.8402    0.5629    1.4462 C   0  0  0  0  0  0  0  0  0  0  0  0
   -4.9809    1.6437    1.6807 C   0  0  0  0  0  0  0  0  0  0  0  0
   -5.4319    2.9117    2.0352 C   0  0  0  0  0  0  0  0  0  0  0  0
   -6.7793    3.0918    2.1554 C   0  0  0  0  0  0  0  0  0  0  0  0
   -7.6752    2.0892    1.9422 C   0  0  0  0  0  0  0  0  0  0  0  0
   -7.2151    0.8068    1.5818 C   0  0  0  0  0  0  0  0  0  0  0  0
   -8.4328   -0.3358    1.2300 S   0  0  0  0  0  0  0  0  0  0  0  0
   -9.7760    0.1794    1.8089 O   0  0  0  0  0  0  0  0  0  0  0  0
   -8.2227   -1.7154    1.8054 O   0  0  0  0  0  0  0  0  0  0  0  0
   -8.7347   -0.5072   -0.4925 C   0  0  0  0  0  0  0  0  0  0  0  0
   -9.1806    0.8152   -1.1133 C   0  0  0  0  0  0  0  0  0  0  0  0
   -7.6068   -1.0949   -1.2447 C   0  0  0  0  0  0  0  0  0  0  0  0
   -9.9270   -1.4918   -0.6089 C   0  0  0  0  0  0  0  0  0  0  0  0
   -3.0866   -0.3269    0.6959 N   0  0  0  0  0  0  0  0  0  0  0  0
    4.6534    0.2791   -0.8628 N   0  0  0  0  0  0  0  0  0  0  0  0
    5.5843    1.3496   -0.6336 C   0  0  0  0  0  0  0  0  0  0  0  0
    6.7514    0.9090    0.2657 C   0  0  0  0  0  0  0  0  0  0  0  0
    7.1155   -0.5292   -0.0211 C   0  0  0  0  0  0  0  0  0  0  0  0
    6.7256   -0.8451   -1.4502 C   0  0  0  0  0  0  0  0  0  0  0  0
    5.1998   -0.9517   -1.4378 C   0  0  0  0  0  0  0  0  0  0  0  0
    8.4888   -0.7705    0.2839 N   0  0  0  0  0  0  0  0  0  0  0  0
    8.9122   -2.1251    0.1286 C   0  0  0  0  0  0  0  0  0  0  0  0
    9.9619   -2.1639   -0.9382 C   0  0  0  0  0  0  0  0  0  0  0  0
   10.5560   -0.7910   -0.8663 C   0  0  0  0  0  0  0  0  0  0  0  0
    9.4191    0.0926   -0.3993 C   0  0  0  0  0  0  0  0  0  0  0  0
    0.8012    4.7364    0.8480 H   0  0  0  0  0  0  0  0  0  0  0  0
    2.2052    3.6879    1.3544 H   0  0  0  0  0  0  0  0  0  0  0  0
    1.9371    4.0458   -0.4109 H   0  0  0  0  0  0  0  0  0  0  0  0
    3.1646    2.4133   -0.0989 H   0  0  0  0  0  0  0  0  0  0  0  0
    2.9514   -1.7501   -0.9903 H   0  0  0  0  0  0  0  0  0  0  0  0
    0.6218   -1.7322   -0.5239 H   0  0  0  0  0  0  0  0  0  0  0  0
   -1.2352    1.4287    0.4589 H   0  0  0  0  0  0  0  0  0  0  0  0
   -2.3097   -3.9260    0.1468 H   0  0  0  0  0  0  0  0  0  0  0  0
   -6.0768   -1.5520    1.2972 H   0  0  0  0  0  0  0  0  0  0  0  0
   -3.9229    1.5215    1.6065 H   0  0  0  0  0  0  0  0  0  0  0  0
   -4.6979    3.6805    2.1945 H   0  0  0  0  0  0  0  0  0  0  0  0
   -7.1251    4.0922    2.4370 H   0  0  0  0  0  0  0  0  0  0  0  0
   -8.7295    2.2858    2.0510 H   0  0  0  0  0  0  0  0  0  0  0  0
   -9.9881    0.5702   -1.8390 H   0  0  0  0  0  0  0  0  0  0  0  0
   -9.5818    1.4529   -0.2983 H   0  0  0  0  0  0  0  0  0  0  0  0
   -8.3685    1.2983   -1.6920 H   0  0  0  0  0  0  0  0  0  0  0  0
   -7.9801   -1.4182   -2.2643 H   0  0  0  0  0  0  0  0  0  0  0  0
   -7.1699   -2.0106   -0.8135 H   0  0  0  0  0  0  0  0  0  0  0  0
   -6.7671   -0.3675   -1.4115 H   0  0  0  0  0  0  0  0  0  0  0  0
  -10.0249   -1.7971   -1.6601 H   0  0  0  0  0  0  0  0  0  0  0  0
   -9.7202   -2.3791    0.0308 H   0  0  0  0  0  0  0  0  0  0  0  0
  -10.8106   -0.9356   -0.2387 H   0  0  0  0  0  0  0  0  0  0  0  0
    6.0260    1.6409   -1.6212 H   0  0  0  0  0  0  0  0  0  0  0  0
    5.1461    2.2131   -0.1278 H   0  0  0  0  0  0  0  0  0  0  0  0
    7.5613    1.6137    0.0764 H   0  0  0  0  0  0  0  0  0  0  0  0
    6.3840    1.0066    1.3060 H   0  0  0  0  0  0  0  0  0  0  0  0
    6.5004   -1.1701    0.6358 H   0  0  0  0  0  0  0  0  0  0  0  0
    7.0113   -0.0614   -2.1652 H   0  0  0  0  0  0  0  0  0  0  0  0
    7.0900   -1.8580   -1.7064 H   0  0  0  0  0  0  0  0  0  0  0  0
    4.7712   -1.0479   -2.4412 H   0  0  0  0  0  0  0  0  0  0  0  0
    4.9671   -1.8118   -0.7785 H   0  0  0  0  0  0  0  0  0  0  0  0
    9.3330   -2.5477    1.0736 H   0  0  0  0  0  0  0  0  0  0  0  0
    8.0622   -2.7568   -0.1603 H   0  0  0  0  0  0  0  0  0  0  0  0
    9.5688   -2.4091   -1.9310 H   0  0  0  0  0  0  0  0  0  0  0  0
   10.6881   -2.9663   -0.6730 H   0  0  0  0  0  0  0  0  0  0  0  0
   10.8919   -0.5057   -1.8905 H   0  0  0  0  0  0  0  0  0  0  0  0
   11.4144   -0.7692   -0.1894 H   0  0  0  0  0  0  0  0  0  0  0  0
    8.9590    0.6558   -1.2125 H   0  0  0  0  0  0  0  0  0  0  0  0
    9.8191    0.8049    0.3498 H   0  0  0  0  0  0  0  0  0  0  0  0
  1  2  1  0
  2  3  1  0
  3  4  2  0
  4  5  1  0
  5  6  2  0
  6  7  1  0
  7  8  2  0
  8  9  1  0
  9 10  1  0
 10 11  2  0
 11 12  1  0
 12 13  2  0
 13 14  1  0
 13 15  1  0
 15 16  1  0
 16 17  1  0
 17 18  2  0
 18 19  1  0
 19 20  2  0
 20 21  1  0
 21 22  2  0
 22 23  1  0
 23 24  2  0
 23 25  2  0
 23 26  1  0
 26 27  1  0
 26 28  1  0
 26 29  1  0
 15 30  2  0
  5 31  1  0
 31 32  1  0
 32 33  1  0
 33 34  1  0
 34 35  1  0
 35 36  1  0
 34 37  1  0
 37 38  1  0
 38 39  1  0
 39 40  1  0
 40 41  1  0
  8  3  1  0
 30 10  1  0
 36 31  1  0
 41 37  1  0
 22 17  1  0
  1 42  1  0
  1 43  1  0
  1 44  1  0
  4 45  1  0
  6 46  1  0
  7 47  1  0
  9 48  1  0
 12 49  1  0
 16 50  1  0
 18 51  1  0
 19 52  1  0
 20 53  1  0
 21 54  1  0
 27 55  1  0
 27 56  1  0
 27 57  1  0
 28 58  1  0
 28 59  1  0
 28 60  1  0
 29 61  1  0
 29 62  1  0
 29 63  1  0
 32 64  1  0
 32 65  1  0
 33 66  1  0
 33 67  1  0
 34 68  1  0
 35 69  1  0
 35 70  1  0
 36 71  1  0
 36 72  1  0
 38 73  1  0
 38 74  1  0
 39 75  1  0
 39 76  1  0
 40 77  1  0
 40 78  1  0
 41 79  1  0
 41 80  1  0
M  END
$$$$
[H]N=C(N([H])[H])N([H])C([H])([H])C([H])([H])C([H])([H])[C@@]([H])(C(=O)N([H])[C@]([H])(C(=O)N([H])[C@]([H])(C(=O)N([H])[H])C([H])([H])c1c([H])c([H])c([H])c([H])c1[H])C([H])([H])c1c([H])c([H])c([H])c([H])c1[H])N([H])C(=O)[C@@]([H])(N([H])C(=O)[C@@]([H])(N([H])[H])C([H])([H])c1c([H])c([H])c([H])c([H])c1[H])C([H])([H])C([H])(C([H])([H])[H])C([H])([H])[H]
     RDKit          3D

106108  0  0  0  0  0  0  0  0999 V2000
    4.5438    3.8433    0.1504 C   0  0  0  0  0  0  0  0  0  0  0  0
    4.3320    2.3110   -0.0096 C   0  0  0  0  0  0  0  0  0  0  0  0
    5.6149    1.8381   -0.6570 C   0  0  0  0  0  0  0  0  0  0  0  0
    4.0580    1.7370    1.3316 C   0  0  0  0  0  0  0  0  0  0  0  0
    3.7980    0.3033    1.4730 C   0  0  2  0  0  0  0  0  0  0  0  0
    4.8091   -0.5795    0.9961 N   0  0  0  0  0  0  0  0  0  0  0  0
    5.7093   -1.3625    1.7231 C   0  0  0  0  0  0  0  0  0  0  0  0
    5.6814   -1.3719    2.9696 O   0  0  0  0  0  0  0  0  0  0  0  0
    6.7350   -2.2057    1.0348 C   0  0  1  0  0  0  0  0  0  0  0  0
    7.5218   -2.9982    1.9379 N   0  0  0  0  0  0  0  0  0  0  0  0
    6.1708   -3.0421   -0.0708 C   0  0  0  0  0  0  0  0  0  0  0  0
    7.2786   -3.8201   -0.7146 C   0  0  0  0  0  0  0  0  0  0  0  0
    7.9867   -3.2857   -1.7832 C   0  0  0  0  0  0  0  0  0  0  0  0
    9.0007   -4.0040   -2.3751 C   0  0  0  0  0  0  0  0  0  0  0  0
    9.3334   -5.2595   -1.9254 C   0  0  0  0  0  0  0  0  0  0  0  0
    8.6489   -5.8066   -0.8730 C   0  0  0  0  0  0  0  0  0  0  0  0
    7.6118   -5.0628   -0.2712 C   0  0  0  0  0  0  0  0  0  0  0  0
    2.4338   -0.2240    1.1947 C   0  0  0  0  0  0  0  0  0  0  0  0
    2.4598   -1.3785    0.6312 O   0  0  0  0  0  0  0  0  0  0  0  0
    1.2783    0.4584    1.5203 N   0  0  0  0  0  0  0  0  0  0  0  0
    0.1390    1.1306    1.8410 C   0  0  1  0  0  0  0  0  0  0  0  0
    0.0914    2.6226    1.7332 C   0  0  0  0  0  0  0  0  0  0  0  0
    0.3586    3.2053    0.3933 C   0  0  0  0  0  0  0  0  0  0  0  0
    0.2158    4.7313    0.5461 C   0  0  0  0  0  0  0  0  0  0  0  0
    0.4472    5.3588   -0.7342 N   0  0  0  0  0  0  0  0  0  0  0  0
    0.3715    6.7712   -0.8562 C   0  0  0  0  0  0  0  0  0  0  0  0
   -0.3210    7.4130   -1.9165 N   0  0  0  0  0  0  0  0  0  0  0  0
    0.9389    7.4936    0.0170 N   0  0  0  0  0  0  0  0  0  0  0  0
   -1.2027    0.5763    1.4298 C   0  0  0  0  0  0  0  0  0  0  0  0
   -1.3623   -0.6749    1.5978 O   0  0  0  0  0  0  0  0  0  0  0  0
   -2.2360    1.3353    0.9066 N   0  0  0  0  0  0  0  0  0  0  0  0
   -3.5919    0.7841    0.5669 C   0  0  1  0  0  0  0  0  0  0  0  0
   -4.3222    1.8523   -0.0923 C   0  0  0  0  0  0  0  0  0  0  0  0
   -5.7033    1.7410   -0.5274 C   0  0  0  0  0  0  0  0  0  0  0  0
   -6.7134    1.9755    0.4326 C   0  0  0  0  0  0  0  0  0  0  0  0
   -8.0371    2.0028    0.1020 C   0  0  0  0  0  0  0  0  0  0  0  0
   -8.4494    1.8015   -1.1888 C   0  0  0  0  0  0  0  0  0  0  0  0
   -7.4671    1.5658   -2.1611 C   0  0  0  0  0  0  0  0  0  0  0  0
   -6.1326    1.5404   -1.8054 C   0  0  0  0  0  0  0  0  0  0  0  0
   -3.3735   -0.4593   -0.2276 C   0  0  0  0  0  0  0  0  0  0  0  0
   -2.4570   -0.4063   -1.0577 O   0  0  0  0  0  0  0  0  0  0  0  0
   -4.1748   -1.6031    0.0168 N   0  0  0  0  0  0  0  0  0  0  0  0
   -4.1769   -2.9049   -0.4387 C   0  0  1  0  0  0  0  0  0  0  0  0
   -5.2107   -3.3459   -1.3887 C   0  0  0  0  0  0  0  0  0  0  0  0
   -6.5889   -3.2484   -0.8632 C   0  0  0  0  0  0  0  0  0  0  0  0
   -7.3760   -2.1864   -1.1839 C   0  0  0  0  0  0  0  0  0  0  0  0
   -8.6577   -2.0683   -0.7057 C   0  0  0  0  0  0  0  0  0  0  0  0
   -9.1966   -3.0257    0.1197 C   0  0  0  0  0  0  0  0  0  0  0  0
   -8.3910   -4.1041    0.4411 C   0  0  0  0  0  0  0  0  0  0  0  0
   -7.1037   -4.2323   -0.0323 C   0  0  0  0  0  0  0  0  0  0  0  0
   -2.8700   -3.4961   -0.9037 C   0  0  0  0  0  0  0  0  0  0  0  0
   -2.9060   -4.9065   -1.3004 N   0  0  0  0  0  0  0  0  0  0  0  0
   -1.7893   -2.9485   -0.9872 O   0  0  0  0  0  0  0  0  0  0  0  0
    3.6973    4.3271    0.6235 H   0  0  0  0  0  0  0  0  0  0  0  0
    5.4892    3.9335    0.7452 H   0  0  0  0  0  0  0  0  0  0  0  0
    4.8120    4.1995   -0.8614 H   0  0  0  0  0  0  0  0  0  0  0  0
    3.5253    2.2138   -0.7329 H   0  0  0  0  0  0  0  0  0  0  0  0
    5.3430    1.1342   -1.4839 H   0  0  0  0  0  0  0  0  0  0  0  0
    6.1640    2.7175   -1.0732 H   0  0  0  0  0  0  0  0  0  0  0  0
    6.2572    1.2814    0.0449 H   0  0  0  0  0  0  0  0  0  0  0  0
    3.1846    2.3285    1.7530 H   0  0  0  0  0  0  0  0  0  0  0  0
    4.9014    2.0797    2.0059 H   0  0  0  0  0  0  0  0  0  0  0  0
    3.8575    0.1101    2.6415 H   0  0  0  0  0  0  0  0  0  0  0  0
    4.8749   -0.6605   -0.0639 H   0  0  0  0  0  0  0  0  0  0  0  0
    7.4093   -1.4338    0.5391 H   0  0  0  0  0  0  0  0  0  0  0  0
    6.9018   -3.6781    2.4486 H   0  0  0  0  0  0  0  0  0  0  0  0
    7.9877   -2.3816    2.6317 H   0  0  0  0  0  0  0  0  0  0  0  0
    5.7319   -2.4090   -0.8805 H   0  0  0  0  0  0  0  0  0  0  0  0
    5.3891   -3.7323    0.2408 H   0  0  0  0  0  0  0  0  0  0  0  0
    7.7313   -2.3018   -2.1397 H   0  0  0  0  0  0  0  0  0  0  0  0
    9.5585   -3.5800   -3.2205 H   0  0  0  0  0  0  0  0  0  0  0  0
   10.1236   -5.8058   -2.3937 H   0  0  0  0  0  0  0  0  0  0  0  0
    8.8805   -6.7961   -0.4919 H   0  0  0  0  0  0  0  0  0  0  0  0
    7.0836   -5.5003    0.5538 H   0  0  0  0  0  0  0  0  0  0  0  0
    0.5326   -0.6053    1.1024 H   0  0  0  0  0  0  0  0  0  0  0  0
   -0.0278    0.9891    3.0400 H   0  0  0  0  0  0  0  0  0  0  0  0
   -0.8508    3.0532    2.1356 H   0  0  0  0  0  0  0  0  0  0  0  0
    0.8877    3.0907    2.4150 H   0  0  0  0  0  0  0  0  0  0  0  0
   -0.3028    2.9090   -0.4282 H   0  0  0  0  0  0  0  0  0  0  0  0
    1.4346    3.0467    0.1277 H   0  0  0  0  0  0  0  0  0  0  0  0
    0.9827    5.0610    1.2694 H   0  0  0  0  0  0  0  0  0  0  0  0
   -0.8102    4.9818    0.8759 H   0  0  0  0  0  0  0  0  0  0  0  0
    0.6716    4.7920   -1.5869 H   0  0  0  0  0  0  0  0  0  0  0  0
   -1.3355    7.4289   -2.0267 H   0  0  0  0  0  0  0  0  0  0  0  0
    0.2615    7.9055   -2.6364 H   0  0  0  0  0  0  0  0  0  0  0  0
    0.9856    8.5147    0.0848 H   0  0  0  0  0  0  0  0  0  0  0  0
   -2.0921    2.3508    0.7474 H   0  0  0  0  0  0  0  0  0  0  0  0
   -3.9998    0.4955    1.5603 H   0  0  0  0  0  0  0  0  0  0  0  0
   -3.7241    2.2604   -1.0010 H   0  0  0  0  0  0  0  0  0  0  0  0
   -4.3090    2.7850    0.5865 H   0  0  0  0  0  0  0  0  0  0  0  0
   -6.3595    2.1373    1.4647 H   0  0  0  0  0  0  0  0  0  0  0  0
   -8.7939    2.1921    0.8732 H   0  0  0  0  0  0  0  0  0  0  0  0
   -9.4659    1.8124   -1.5180 H   0  0  0  0  0  0  0  0  0  0  0  0
   -7.7809    1.4031   -3.1811 H   0  0  0  0  0  0  0  0  0  0  0  0
   -5.3877    1.3553   -2.5755 H   0  0  0  0  0  0  0  0  0  0  0  0
   -4.9926   -1.4058    0.7456 H   0  0  0  0  0  0  0  0  0  0  0  0
   -4.3972   -3.6144    0.5189 H   0  0  0  0  0  0  0  0  0  0  0  0
   -5.0276   -4.4078   -1.7319 H   0  0  0  0  0  0  0  0  0  0  0  0
   -5.1212   -2.6825   -2.3072 H   0  0  0  0  0  0  0  0  0  0  0  0
   -7.0189   -1.4079   -1.8479 H   0  0  0  0  0  0  0  0  0  0  0  0
   -9.2789   -1.2203   -0.9692 H   0  0  0  0  0  0  0  0  0  0  0  0
  -10.1918   -2.9425    0.4983 H   0  0  0  0  0  0  0  0  0  0  0  0
   -8.7925   -4.8855    1.0962 H   0  0  0  0  0  0  0  0  0  0  0  0
   -6.4707   -5.0667    0.2113 H   0  0  0  0  0  0  0  0  0  0  0  0
   -2.4258   -5.2355   -2.1228 H   0  0  0  0  0  0  0  0  0  0  0  0
   -3.4602   -5.5173   -0.6682 H   0  0  0  0  0  0  0  0  0  0  0  0
  1  2  1  0
  2  3  1  0
  2  4  1  0
  4  5  1  0
  5  6  1  0
  6  7  1  0
  7  8  2  0
  7  9  1  0
  9 10  1  0
  9 11  1  0
 11 12  1  0
 12 13  2  0
 13 14  1  0
 14 15  2  0
 15 16  1  0
 16 17  2  0
  5 18  1  0
 18 19  2  0
 18 20  1  0
 20 21  1  0
 21 22  1  0
 22 23  1  0
 23 24  1  0
 24 25  1  0
 25 26  1  0
 26 27  1  0
 26 28  2  3
 21 29  1  0
 29 30  2  0
 29 31  1  0
 31 32  1  0
 32 33  1  0
 33 34  1  0
 34 35  2  0
 35 36  1  0
 36 37  2  0
 37 38  1  0
 38 39  2  0
 32 40  1  0
 40 41  2  0
 40 42  1  0
 42 43  1  0
 43 44  1  0
 44 45  1  0
 45 46  2  0
 46 47  1  0
 47 48  2  0
 48 49  1  0
 49 50  2  0
 43 51  1  0
 51 52  1  0
 51 53  2  0
 17 12  1  0
 39 34  1  0
 50 45  1  0
  1 54  1  0
  1 55  1  0
  1 56  1  0
  2 57  1  0
  3 58  1  0
  3 59  1  0
  3 60  1  0
  4 61  1  0
  4 62  1  0
  5 63  1  1
  6 64  1  0
  9 65  1  6
 10 66  1  0
 10 67  1  0
 11 68  1  0
 11 69  1  0
 13 70  1  0
 14 71  1  0
 15 72  1  0
 16 73  1  0
 17 74  1  0
 20 75  1  0
 21 76  1  1
 22 77  1  0
 22 78  1  0
 23 79  1  0
 23 80  1  0
 24 81  1  0
 24 82  1  0
 25 83  1  0
 27 84  1  0
 27 85  1  0
 28 86  1  0
 31 87  1  0
 32 88  1  1
 33 89  1  0
 33 90  1  0
 35 91  1  0
 36 92  1  0
 37 93  1  0
 38 94  1  0
 39 95  1  0
 42 96  1  0
 43 97  1  1
 44 98  1  0
 44 99  1  0
 46100  1  0
 47101  1  0
 48102  1  0
 49103  1  0
 50104  1  0
 52105  1  0
 52106  1  0
M  END
$$$$
