[H]c1nc([H])c([H])c(-c2c([H])c([H])c3nc([H])n(-c4sc(C(=O)N([H])[H])c(O[C@@]([H])(c5c([H])c([H])c([H])c([H])c5Cl)C([H])([H])[H])c4[H])c3c2[H])c1[H]
     RDKit          3D

 52 56  0  0  0  0  0  0  0  0999 V2000
   -4.1030   -0.6464    2.0202 C   0  0  0  0  0  0  0  0  0  0  0  0
   -3.1597   -0.1664    0.9225 C   0  0  1  0  0  0  0  0  0  0  0  0
   -2.7226   -1.1989    0.1151 O   0  0  0  0  0  0  0  0  0  0  0  0
   -1.4487   -1.8229    0.1685 C   0  0  0  0  0  0  0  0  0  0  0  0
   -0.4561   -1.5328    1.0184 C   0  0  0  0  0  0  0  0  0  0  0  0
    0.7047   -2.2414    0.9210 C   0  0  0  0  0  0  0  0  0  0  0  0
    0.3909   -3.3099   -0.3650 S   0  0  0  0  0  0  0  0  0  0  0  0
   -1.2023   -2.8309   -0.7452 C   0  0  0  0  0  0  0  0  0  0  0  0
   -2.1080   -3.3603   -1.7961 C   0  0  0  0  0  0  0  0  0  0  0  0
   -3.3958   -2.8631   -1.9935 N   0  0  0  0  0  0  0  0  0  0  0  0
   -1.6415   -4.2891   -2.5013 O   0  0  0  0  0  0  0  0  0  0  0  0
    1.9190   -2.1723    1.6631 N   0  0  0  0  0  0  0  0  0  0  0  0
    2.2872   -2.9190    2.7340 C   0  0  0  0  0  0  0  0  0  0  0  0
    3.5074   -2.5559    3.1551 N   0  0  0  0  0  0  0  0  0  0  0  0
    3.9354   -1.5663    2.3525 C   0  0  0  0  0  0  0  0  0  0  0  0
    5.0790   -0.7955    2.2727 C   0  0  0  0  0  0  0  0  0  0  0  0
    5.2423    0.1777    1.3099 C   0  0  0  0  0  0  0  0  0  0  0  0
    4.2622    0.4299    0.3723 C   0  0  0  0  0  0  0  0  0  0  0  0
    3.1107   -0.3525    0.4595 C   0  0  0  0  0  0  0  0  0  0  0  0
    2.9469   -1.3258    1.4221 C   0  0  0  0  0  0  0  0  0  0  0  0
    4.4019    1.4450   -0.6521 C   0  0  0  0  0  0  0  0  0  0  0  0
    5.1118    2.6008   -0.4496 C   0  0  0  0  0  0  0  0  0  0  0  0
    5.2012    3.5370   -1.4890 C   0  0  0  0  0  0  0  0  0  0  0  0
    4.6063    3.3266   -2.6795 N   0  0  0  0  0  0  0  0  0  0  0  0
    3.9072    2.1995   -2.8938 C   0  0  0  0  0  0  0  0  0  0  0  0
    3.8051    1.2571   -1.8778 C   0  0  0  0  0  0  0  0  0  0  0  0
   -3.8599    0.9257    0.2154 C   0  0  0  0  0  0  0  0  0  0  0  0
   -5.0959    1.3858    0.6216 C   0  0  0  0  0  0  0  0  0  0  0  0
   -5.7664    2.4191   -0.0363 C   0  0  0  0  0  0  0  0  0  0  0  0
   -5.1903    3.0063   -1.1240 C   0  0  0  0  0  0  0  0  0  0  0  0
   -3.9754    2.5737   -1.5452 C   0  0  0  0  0  0  0  0  0  0  0  0
   -3.3213    1.5486   -0.8843 C   0  0  0  0  0  0  0  0  0  0  0  0
   -1.7654    1.0802   -1.5232 Cl  0  0  0  0  0  0  0  0  0  0  0  0
   -4.2574    0.1819    2.7359 H   0  0  0  0  0  0  0  0  0  0  0  0
   -5.0872   -0.9662    1.6343 H   0  0  0  0  0  0  0  0  0  0  0  0
   -3.6774   -1.4960    2.5855 H   0  0  0  0  0  0  0  0  0  0  0  0
   -2.2644    0.2324    1.4857 H   0  0  0  0  0  0  0  0  0  0  0  0
   -0.5538   -0.7418    1.7905 H   0  0  0  0  0  0  0  0  0  0  0  0
   -4.0564   -2.7955   -1.1979 H   0  0  0  0  0  0  0  0  0  0  0  0
   -3.7166   -2.5543   -2.9294 H   0  0  0  0  0  0  0  0  0  0  0  0
    1.6766   -3.6810    3.1624 H   0  0  0  0  0  0  0  0  0  0  0  0
    5.8512   -1.0008    3.0187 H   0  0  0  0  0  0  0  0  0  0  0  0
    6.1450    0.7710    1.2632 H   0  0  0  0  0  0  0  0  0  0  0  0
    2.3269   -0.1846   -0.2530 H   0  0  0  0  0  0  0  0  0  0  0  0
    5.5778    2.7537    0.4976 H   0  0  0  0  0  0  0  0  0  0  0  0
    5.7502    4.4506   -1.3592 H   0  0  0  0  0  0  0  0  0  0  0  0
    3.4491    2.0787   -3.8653 H   0  0  0  0  0  0  0  0  0  0  0  0
    3.2386    0.3709   -2.0880 H   0  0  0  0  0  0  0  0  0  0  0  0
   -5.6233    0.9807    1.4691 H   0  0  0  0  0  0  0  0  0  0  0  0
   -6.7336    2.7738    0.2878 H   0  0  0  0  0  0  0  0  0  0  0  0
   -5.7172    3.8166   -1.6390 H   0  0  0  0  0  0  0  0  0  0  0  0
   -3.5350    3.0466   -2.4040 H   0  0  0  0  0  0  0  0  0  0  0  0
  1  2  1  0
  2  3  1  0
  3  4  1  0
  4  5  1  0
  5  6  2  0
  6  7  1  0
  7  8  1  0
  8  9  1  0
  9 10  1  0
  9 11  2  0
  6 12  1  0
 12 13  1  0
 13 14  2  0
 14 15  1  0
 15 16  2  0
 16 17  1  0
 17 18  2  0
 18 19  1  0
 19 20  2  0
 18 21  1  0
 21 22  2  0
 22 23  1  0
 23 24  2  0
 24 25  1  0
 25 26  2  0
  2 27  1  0
 27 28  2  0
 28 29  1  0
 29 30  2  0
 30 31  1  0
 31 32  2  0
 32 33  1  0
  8  4  2  0
 20 12  1  0
 26 21  1  0
 32 27  1  0
 20 15  1  0
  1 34  1  0
  1 35  1  0
  1 36  1  0
  2 37  1  1
  5 38  1  0
 10 39  1  0
 10 40  1  0
 13 41  1  0
 16 42  1  0
 17 43  1  0
 19 44  1  0
 22 45  1  0
 23 46  1  0
 25 47  1  0
 26 48  1  0
 28 49  1  0
 29 50  1  0
 30 51  1  0
 31 52  1  0
M  END
$$$$
[H]c1c([H])c([H])c([C@@]([H])(N([H])c2nc([H])c3onc(-c4c([H])c([H])c5c(c4[H])OC([H])([H])O5)c3c2[H])C([H])([H])[H])c([H])c1[H]
     RDKit          3D

 44 48  0  0  0  0  0  0  0  0999 V2000
    3.3846    0.5395    2.4544 C   0  0  0  0  0  0  0  0  0  0  0  0
    2.7964    1.2646    1.2925 C   0  0  2  0  0  0  0  0  0  0  0  0
    1.4499    0.9340    0.9684 N   0  0  0  0  0  0  0  0  0  0  0  0
    0.9027   -0.3828    1.0510 C   0  0  0  0  0  0  0  0  0  0  0  0
   -0.4236   -0.5363    0.6318 C   0  0  0  0  0  0  0  0  0  0  0  0
   -1.0117   -1.7607    0.7154 C   0  0  0  0  0  0  0  0  0  0  0  0
   -2.2793   -2.2280    0.3893 C   0  0  0  0  0  0  0  0  0  0  0  0
   -2.2543   -3.5369    0.7027 N   0  0  0  0  0  0  0  0  0  0  0  0
   -1.0889   -3.8612    1.1781 O   0  0  0  0  0  0  0  0  0  0  0  0
   -0.2894   -2.8487    1.2167 C   0  0  0  0  0  0  0  0  0  0  0  0
    1.0144   -2.6753    1.6236 C   0  0  0  0  0  0  0  0  0  0  0  0
    1.5463   -1.4499    1.5205 N   0  0  0  0  0  0  0  0  0  0  0  0
   -3.3625   -1.4303   -0.1702 C   0  0  0  0  0  0  0  0  0  0  0  0
   -4.0989   -1.9249   -1.2460 C   0  0  0  0  0  0  0  0  0  0  0  0
   -5.1314   -1.2139   -1.8087 C   0  0  0  0  0  0  0  0  0  0  0  0
   -5.4680    0.0357   -1.3068 C   0  0  0  0  0  0  0  0  0  0  0  0
   -6.4451    0.9422   -1.6821 O   0  0  0  0  0  0  0  0  0  0  0  0
   -6.4718    2.0137   -0.7573 C   0  0  0  0  0  0  0  0  0  0  0  0
   -5.3275    1.7875    0.0145 O   0  0  0  0  0  0  0  0  0  0  0  0
   -4.7687    0.5459   -0.2579 C   0  0  0  0  0  0  0  0  0  0  0  0
   -3.7286   -0.1913    0.2950 C   0  0  0  0  0  0  0  0  0  0  0  0
    3.6945    1.1942    0.1231 C   0  0  0  0  0  0  0  0  0  0  0  0
    3.6062    0.2784   -0.8810 C   0  0  0  0  0  0  0  0  0  0  0  0
    4.5042    0.2786   -1.9331 C   0  0  0  0  0  0  0  0  0  0  0  0
    5.5000    1.1987   -1.9881 C   0  0  0  0  0  0  0  0  0  0  0  0
    5.6370    2.1393   -1.0120 C   0  0  0  0  0  0  0  0  0  0  0  0
    4.7440    2.1304    0.0242 C   0  0  0  0  0  0  0  0  0  0  0  0
    4.2526    1.1408    2.8347 H   0  0  0  0  0  0  0  0  0  0  0  0
    3.8397   -0.4287    2.1446 H   0  0  0  0  0  0  0  0  0  0  0  0
    2.6700    0.4333    3.2761 H   0  0  0  0  0  0  0  0  0  0  0  0
    2.8350    2.3782    1.6208 H   0  0  0  0  0  0  0  0  0  0  0  0
    0.8382    1.7442    0.6460 H   0  0  0  0  0  0  0  0  0  0  0  0
   -0.9699    0.3012    0.2479 H   0  0  0  0  0  0  0  0  0  0  0  0
    1.6239   -3.4697    2.0178 H   0  0  0  0  0  0  0  0  0  0  0  0
   -3.8075   -2.9017   -1.6098 H   0  0  0  0  0  0  0  0  0  0  0  0
   -5.6568   -1.6638   -2.6416 H   0  0  0  0  0  0  0  0  0  0  0  0
   -6.3746    2.9440   -1.3547 H   0  0  0  0  0  0  0  0  0  0  0  0
   -7.4151    2.0045   -0.1753 H   0  0  0  0  0  0  0  0  0  0  0  0
   -3.1915    0.2383    1.1287 H   0  0  0  0  0  0  0  0  0  0  0  0
    2.8388   -0.4686   -0.9038 H   0  0  0  0  0  0  0  0  0  0  0  0
    4.4128   -0.4562   -2.7140 H   0  0  0  0  0  0  0  0  0  0  0  0
    6.2260    1.2255   -2.8066 H   0  0  0  0  0  0  0  0  0  0  0  0
    6.4254    2.8801   -1.0409 H   0  0  0  0  0  0  0  0  0  0  0  0
    4.8225    2.8558    0.8089 H   0  0  0  0  0  0  0  0  0  0  0  0
  1  2  1  0
  2  3  1  0
  3  4  1  0
  4  5  2  0
  5  6  1  0
  6  7  1  0
  7  8  2  0
  8  9  1  0
  9 10  1  0
 10 11  1  0
 11 12  2  0
  7 13  1  0
 13 14  2  0
 14 15  1  0
 15 16  2  0
 16 17  1  0
 17 18  1  0
 18 19  1  0
 19 20  1  0
 20 21  2  0
  2 22  1  0
 22 23  2  0
 23 24  1  0
 24 25  2  0
 25 26  1  0
 26 27  2  0
 12  4  1  0
 21 13  1  0
 27 22  1  0
 10  6  2  0
 20 16  1  0
  1 28  1  0
  1 29  1  0
  1 30  1  0
  2 31  1  1
  3 32  1  0
  5 33  1  0
 11 34  1  0
 14 35  1  0
 15 36  1  0
 18 37  1  0
 18 38  1  0
 21 39  1  0
 23 40  1  0
 24 41  1  0
 25 42  1  0
 26 43  1  0
 27 44  1  0
M  END
$$$$
[H]c1c([H])c([H])c(C([H])([H])Oc2c(C(=O)N([H])[H])sc(-n3c([H])nc4c([H])c(OC([H])([H])[H])c(OC([H])([H])[H])c([H])c43)c2[H])c(C(F)(F)F)c1[H]
     RDKit          3D

 51 54  0  0  0  0  0  0  0  0999 V2000
   -7.9529   -0.5779    1.2485 C   0  0  0  0  0  0  0  0  0  0  0  0
   -6.9899    0.4831    0.9188 O   0  0  0  0  0  0  0  0  0  0  0  0
   -5.6545    0.0067    0.8974 C   0  0  0  0  0  0  0  0  0  0  0  0
   -5.3290   -1.1455    1.4695 C   0  0  0  0  0  0  0  0  0  0  0  0
   -4.0230   -1.5960    1.2998 C   0  0  0  0  0  0  0  0  0  0  0  0
   -3.4913   -2.7899    1.7502 N   0  0  0  0  0  0  0  0  0  0  0  0
   -2.2530   -2.8076    1.3151 C   0  0  0  0  0  0  0  0  0  0  0  0
   -1.9972   -1.6004    0.5593 N   0  0  0  0  0  0  0  0  0  0  0  0
   -0.7061   -1.4842    0.0447 C   0  0  0  0  0  0  0  0  0  0  0  0
    0.1795   -0.4725    0.1552 C   0  0  0  0  0  0  0  0  0  0  0  0
    1.4716   -0.7446   -0.1282 C   0  0  0  0  0  0  0  0  0  0  0  0
    2.4782    0.0822   -0.0037 O   0  0  0  0  0  0  0  0  0  0  0  0
    2.9671    1.3381    0.1939 C   0  0  0  0  0  0  0  0  0  0  0  0
    4.4208    1.0051    0.4008 C   0  0  0  0  0  0  0  0  0  0  0  0
    4.7651   -0.0232    1.2453 C   0  0  0  0  0  0  0  0  0  0  0  0
    6.1037   -0.4221    1.3958 C   0  0  0  0  0  0  0  0  0  0  0  0
    7.0461    0.2548    0.6645 C   0  0  0  0  0  0  0  0  0  0  0  0
    6.6778    1.3082   -0.1695 C   0  0  0  0  0  0  0  0  0  0  0  0
    5.3211    1.7061   -0.2994 C   0  0  0  0  0  0  0  0  0  0  0  0
    4.9210    2.8354   -1.1724 C   0  0  0  0  0  0  0  0  0  0  0  0
    4.2574    3.8146   -0.4520 F   0  0  0  0  0  0  0  0  0  0  0  0
    6.1620    3.4780   -1.4878 F   0  0  0  0  0  0  0  0  0  0  0  0
    4.3497    2.5009   -2.3411 F   0  0  0  0  0  0  0  0  0  0  0  0
    1.7813   -2.0634   -0.5283 C   0  0  0  0  0  0  0  0  0  0  0  0
    0.2859   -2.8077   -0.5005 S   0  0  0  0  0  0  0  0  0  0  0  0
    3.1263   -2.5955   -0.8260 C   0  0  0  0  0  0  0  0  0  0  0  0
    3.7294   -2.5400   -2.1118 N   0  0  0  0  0  0  0  0  0  0  0  0
    3.7875   -3.1274    0.0986 O   0  0  0  0  0  0  0  0  0  0  0  0
   -3.0741   -0.9262    0.5978 C   0  0  0  0  0  0  0  0  0  0  0  0
   -3.4467    0.3197    0.0174 C   0  0  0  0  0  0  0  0  0  0  0  0
   -4.7209    0.8133    0.1569 C   0  0  0  0  0  0  0  0  0  0  0  0
   -5.2399    1.9409   -0.2166 O   0  0  0  0  0  0  0  0  0  0  0  0
   -5.7383    3.0571   -0.5906 C   0  0  0  0  0  0  0  0  0  0  0  0
   -7.9504   -1.0235    0.0815 H   0  0  0  0  0  0  0  0  0  0  0  0
   -8.9145   -0.2554    1.4095 H   0  0  0  0  0  0  0  0  0  0  0  0
   -7.5176   -1.4198    1.7288 H   0  0  0  0  0  0  0  0  0  0  0  0
   -5.9256   -1.7542    2.1848 H   0  0  0  0  0  0  0  0  0  0  0  0
   -1.4647   -3.5170    1.4200 H   0  0  0  0  0  0  0  0  0  0  0  0
   -0.1427    0.5531    0.4567 H   0  0  0  0  0  0  0  0  0  0  0  0
    2.4581    1.9364    0.9264 H   0  0  0  0  0  0  0  0  0  0  0  0
    2.9031    1.9186   -0.7937 H   0  0  0  0  0  0  0  0  0  0  0  0
    4.0460   -0.5127    1.8441 H   0  0  0  0  0  0  0  0  0  0  0  0
    6.3662   -1.2284    2.0581 H   0  0  0  0  0  0  0  0  0  0  0  0
    8.0981   -0.0345    0.6889 H   0  0  0  0  0  0  0  0  0  0  0  0
    7.4110    1.7825   -0.7673 H   0  0  0  0  0  0  0  0  0  0  0  0
    4.2239   -1.6590   -2.4398 H   0  0  0  0  0  0  0  0  0  0  0  0
    3.6976   -3.3777   -2.7064 H   0  0  0  0  0  0  0  0  0  0  0  0
   -2.7036    0.8442   -0.5661 H   0  0  0  0  0  0  0  0  0  0  0  0
   -5.7378    3.4443   -1.6440 H   0  0  0  0  0  0  0  0  0  0  0  0
   -6.8471    3.1666   -0.2239 H   0  0  0  0  0  0  0  0  0  0  0  0
   -5.2148    3.9163    0.0257 H   0  0  0  0  0  0  0  0  0  0  0  0
  1  2  1  0
  2  3  1  0
  3  4  2  0
  4  5  1  0
  5  6  1  0
  6  7  2  0
  7  8  1  0
  8  9  1  0
  9 10  2  0
 10 11  1  0
 11 12  1  0
 12 13  1  0
 13 14  1  0
 14 15  2  0
 15 16  1  0
 16 17  2  0
 17 18  1  0
 18 19  2  0
 19 20  1  0
 20 21  1  0
 20 22  1  0
 20 23  1  0
 11 24  2  0
 24 25  1  0
 24 26  1  0
 26 27  1  0
 26 28  2  0
  8 29  1  0
 29 30  1  0
 30 31  2  0
 31 32  1  0
 32 33  1  0
 31  3  1  0
 29  5  2  0
 25  9  1  0
 19 14  1  0
  1 34  1  0
  1 35  1  0
  1 36  1  0
  4 37  1  0
  7 38  1  0
 10 39  1  0
 13 40  1  0
 13 41  1  0
 15 42  1  0
 16 43  1  0
 17 44  1  0
 18 45  1  0
 27 46  1  0
 27 47  1  0
 30 48  1  0
 33 49  1  0
 33 50  1  0
 33 51  1  0
M  END
$$$$
[H]c1nc(N([H])c2c([H])c(OC([H])([H])[H])c(OC([H])([H])[H])c(OC([H])([H])[H])c2[H])nc(N([H])c2nc3c(c([H])c2[H])OC(C([H])([H])[H])(C([H])([H])[H])C(=O)N3[H])c1F
     RDKit          3D

 57 60  0  0  0  0  0  0  0  0999 V2000
   -5.6364    2.1181   -1.8630 C   0  0  0  0  0  0  0  0  0  0  0  0
   -5.8443    0.7587   -1.5880 O   0  0  0  0  0  0  0  0  0  0  0  0
   -4.8072    0.0010   -1.0783 C   0  0  0  0  0  0  0  0  0  0  0  0
   -3.5618    0.6012   -0.8432 C   0  0  0  0  0  0  0  0  0  0  0  0
   -2.5031   -0.0703   -0.3477 C   0  0  0  0  0  0  0  0  0  0  0  0
   -1.2316    0.4626   -0.0655 N   0  0  0  0  0  0  0  0  0  0  0  0
   -0.9067    1.8244    0.0656 C   0  0  0  0  0  0  0  0  0  0  0  0
   -1.7494    2.8585   -0.0431 N   0  0  0  0  0  0  0  0  0  0  0  0
   -1.4116    4.1432    0.0863 C   0  0  0  0  0  0  0  0  0  0  0  0
   -0.1125    4.4539    0.3502 C   0  0  0  0  0  0  0  0  0  0  0  0
    0.3587    5.6995    0.5032 F   0  0  0  0  0  0  0  0  0  0  0  0
    0.8217    3.4140    0.4762 C   0  0  0  0  0  0  0  0  0  0  0  0
    2.1801    3.7060    0.7505 N   0  0  0  0  0  0  0  0  0  0  0  0
    3.1050    2.6399    0.8733 C   0  0  0  0  0  0  0  0  0  0  0  0
    4.4571    2.8965    1.1446 C   0  0  0  0  0  0  0  0  0  0  0  0
    5.3443    1.8517    1.2613 C   0  0  0  0  0  0  0  0  0  0  0  0
    4.9285    0.5481    1.1161 C   0  0  0  0  0  0  0  0  0  0  0  0
    5.7961   -0.5293    1.2273 O   0  0  0  0  0  0  0  0  0  0  0  0
    5.5066   -1.7939    0.6515 C   0  0  0  0  0  0  0  0  0  0  0  0
    6.2846   -2.8749    1.3459 C   0  0  0  0  0  0  0  0  0  0  0  0
    5.8127   -1.7705   -0.8228 C   0  0  0  0  0  0  0  0  0  0  0  0
    4.0556   -2.1122    0.8177 C   0  0  0  0  0  0  0  0  0  0  0  0
    3.6763   -3.3008    1.0572 O   0  0  0  0  0  0  0  0  0  0  0  0
    3.1427   -1.0383    0.6962 N   0  0  0  0  0  0  0  0  0  0  0  0
    3.5828    0.3027    0.8467 C   0  0  0  0  0  0  0  0  0  0  0  0
    2.7547    1.3550    0.7416 N   0  0  0  0  0  0  0  0  0  0  0  0
    0.3826    2.1601    0.3289 N   0  0  0  0  0  0  0  0  0  0  0  0
   -2.7045   -1.4372   -0.0691 C   0  0  0  0  0  0  0  0  0  0  0  0
   -3.9082   -2.0549   -0.2874 C   0  0  0  0  0  0  0  0  0  0  0  0
   -4.0666   -3.3859   -0.0045 O   0  0  0  0  0  0  0  0  0  0  0  0
   -2.9762   -4.1177    0.5153 C   0  0  0  0  0  0  0  0  0  0  0  0
   -4.9761   -1.3425   -0.7952 C   0  0  0  0  0  0  0  0  0  0  0  0
   -6.2188   -1.9257   -1.0338 O   0  0  0  0  0  0  0  0  0  0  0  0
   -7.1743   -1.9137    0.0186 C   0  0  0  0  0  0  0  0  0  0  0  0
   -4.7813    2.3111   -2.5387 H   0  0  0  0  0  0  0  0  0  0  0  0
   -5.4850    2.7232   -0.9417 H   0  0  0  0  0  0  0  0  0  0  0  0
   -6.5386    2.5082   -2.4098 H   0  0  0  0  0  0  0  0  0  0  0  0
   -3.4970    1.6360   -1.0973 H   0  0  0  0  0  0  0  0  0  0  0  0
   -0.4103   -0.2136    0.0641 H   0  0  0  0  0  0  0  0  0  0  0  0
   -2.1604    4.9024   -0.0184 H   0  0  0  0  0  0  0  0  0  0  0  0
    2.4712    4.6872    0.8556 H   0  0  0  0  0  0  0  0  0  0  0  0
    4.7318    3.9285    1.2492 H   0  0  0  0  0  0  0  0  0  0  0  0
    6.3943    2.0780    1.4734 H   0  0  0  0  0  0  0  0  0  0  0  0
    5.7812   -3.1588    2.2953 H   0  0  0  0  0  0  0  0  0  0  0  0
    7.3278   -2.5920    1.5737 H   0  0  0  0  0  0  0  0  0  0  0  0
    6.3119   -3.7970    0.7168 H   0  0  0  0  0  0  0  0  0  0  0  0
    5.5475   -2.7321   -1.2838 H   0  0  0  0  0  0  0  0  0  0  0  0
    5.2428   -0.9509   -1.3072 H   0  0  0  0  0  0  0  0  0  0  0  0
    6.8942   -1.5474   -0.9277 H   0  0  0  0  0  0  0  0  0  0  0  0
    2.1474   -1.2464    0.4955 H   0  0  0  0  0  0  0  0  0  0  0  0
   -1.8577   -2.0119    0.3366 H   0  0  0  0  0  0  0  0  0  0  0  0
   -2.2185   -4.1935   -0.2936 H   0  0  0  0  0  0  0  0  0  0  0  0
   -3.3828   -5.1246    0.7905 H   0  0  0  0  0  0  0  0  0  0  0  0
   -2.5554   -3.6060    1.4036 H   0  0  0  0  0  0  0  0  0  0  0  0
   -7.4919   -2.9486    0.2973 H   0  0  0  0  0  0  0  0  0  0  0  0
   -8.0902   -1.3564   -0.3279 H   0  0  0  0  0  0  0  0  0  0  0  0
   -6.7818   -1.4227    0.9319 H   0  0  0  0  0  0  0  0  0  0  0  0
  1  2  1  0
  2  3  1  0
  3  4  2  0
  4  5  1  0
  5  6  1  0
  6  7  1  0
  7  8  2  0
  8  9  1  0
  9 10  2  0
 10 11  1  0
 10 12  1  0
 12 13  1  0
 13 14  1  0
 14 15  2  0
 15 16  1  0
 16 17  2  0
 17 18  1  0
 18 19  1  0
 19 20  1  0
 19 21  1  0
 19 22  1  0
 22 23  2  0
 22 24  1  0
 24 25  1  0
 25 26  2  0
 12 27  2  0
  5 28  2  0
 28 29  1  0
 29 30  1  0
 30 31  1  0
 29 32  2  0
 32 33  1  0
 33 34  1  0
 32  3  1  0
 27  7  1  0
 26 14  1  0
 25 17  1  0
  1 35  1  0
  1 36  1  0
  1 37  1  0
  4 38  1  0
  6 39  1  0
  9 40  1  0
 13 41  1  0
 15 42  1  0
 16 43  1  0
 20 44  1  0
 20 45  1  0
 20 46  1  0
 21 47  1  0
 21 48  1  0
 21 49  1  0
 24 50  1  0
 28 51  1  0
 31 52  1  0
 31 53  1  0
 31 54  1  0
 34 55  1  0
 34 56  1  0
 34 57  1  0
M  END
$$$$
[H]c1nc(N([H])c2c([H])c([H])c(-c3c([H])c([H])nc([H])c3[H])c([H])c2[H])nc(N([H])c2c(N([H])C(C([H])([H])[H])(C([H])([H])[H])C([H])([H])[H])c(=O)c2=O)c1[H]
     RDKit          3D

 53 56  0  0  0  0  0  0  0  0999 V2000
   -5.7842    1.2944    2.1586 C   0  0  0  0  0  0  0  0  0  0  0  0
   -5.7234    0.7144    0.7852 C   0  0  0  0  0  0  0  0  0  0  0  0
   -6.0305   -0.7729    0.8809 C   0  0  0  0  0  0  0  0  0  0  0  0
   -6.8128    1.3499   -0.0508 C   0  0  0  0  0  0  0  0  0  0  0  0
   -4.4340    0.9566    0.2141 N   0  0  0  0  0  0  0  0  0  0  0  0
   -4.1073    0.5159   -1.0968 C   0  0  0  0  0  0  0  0  0  0  0  0
   -3.5587   -0.6488   -1.6261 C   0  0  0  0  0  0  0  0  0  0  0  0
   -3.0987   -1.8765   -1.0830 N   0  0  0  0  0  0  0  0  0  0  0  0
   -1.7415   -2.0515   -0.6811 C   0  0  0  0  0  0  0  0  0  0  0  0
   -1.3212   -3.2353   -0.1647 C   0  0  0  0  0  0  0  0  0  0  0  0
    0.0002   -3.3464    0.2054 C   0  0  0  0  0  0  0  0  0  0  0  0
    0.7895   -2.2909    0.0371 N   0  0  0  0  0  0  0  0  0  0  0  0
    0.4352   -1.1097   -0.4618 C   0  0  0  0  0  0  0  0  0  0  0  0
    1.2832    0.0001   -0.6360 N   0  0  0  0  0  0  0  0  0  0  0  0
    2.6434    0.1345   -0.3341 C   0  0  0  0  0  0  0  0  0  0  0  0
    3.3440   -0.7141    0.4504 C   0  0  0  0  0  0  0  0  0  0  0  0
    4.7172   -0.5439    0.7021 C   0  0  0  0  0  0  0  0  0  0  0  0
    5.4001    0.5106    0.1478 C   0  0  0  0  0  0  0  0  0  0  0  0
    4.7057    1.3887   -0.6548 C   0  0  0  0  0  0  0  0  0  0  0  0
    3.3664    1.2085   -0.8907 C   0  0  0  0  0  0  0  0  0  0  0  0
    6.8344    0.6926    0.4061 C   0  0  0  0  0  0  0  0  0  0  0  0
    7.3875    0.3122    1.5919 C   0  0  0  0  0  0  0  0  0  0  0  0
    8.7559    0.4944    1.8164 C   0  0  0  0  0  0  0  0  0  0  0  0
    9.5258    1.0456    0.8610 N   0  0  0  0  0  0  0  0  0  0  0  0
    8.9908    1.4245   -0.3123 C   0  0  0  0  0  0  0  0  0  0  0  0
    7.6376    1.2513   -0.5511 C   0  0  0  0  0  0  0  0  0  0  0  0
   -0.8899   -1.0255   -0.8235 N   0  0  0  0  0  0  0  0  0  0  0  0
   -3.6644   -0.0777   -2.8834 C   0  0  0  0  0  0  0  0  0  0  0  0
   -3.3832   -0.4495   -4.0381 O   0  0  0  0  0  0  0  0  0  0  0  0
   -4.2054    1.0721   -2.3670 C   0  0  0  0  0  0  0  0  0  0  0  0
   -4.6309    2.1818   -2.7657 O   0  0  0  0  0  0  0  0  0  0  0  0
   -5.8462    2.4026    2.1112 H   0  0  0  0  0  0  0  0  0  0  0  0
   -4.8980    1.0527    2.7809 H   0  0  0  0  0  0  0  0  0  0  0  0
   -6.6787    0.9092    2.7193 H   0  0  0  0  0  0  0  0  0  0  0  0
   -5.4595   -1.2457    1.6855 H   0  0  0  0  0  0  0  0  0  0  0  0
   -7.1076   -0.8425    1.1729 H   0  0  0  0  0  0  0  0  0  0  0  0
   -5.9155   -1.2833   -0.0778 H   0  0  0  0  0  0  0  0  0  0  0  0
   -6.8408    0.8390   -1.0350 H   0  0  0  0  0  0  0  0  0  0  0  0
   -6.6408    2.4405   -0.1380 H   0  0  0  0  0  0  0  0  0  0  0  0
   -7.7874    1.1494    0.4431 H   0  0  0  0  0  0  0  0  0  0  0  0
   -3.7161    1.4653    0.7646 H   0  0  0  0  0  0  0  0  0  0  0  0
   -3.7832   -2.6533   -0.9847 H   0  0  0  0  0  0  0  0  0  0  0  0
   -2.0195   -4.0516   -0.0568 H   0  0  0  0  0  0  0  0  0  0  0  0
    0.3990   -4.2590    0.6221 H   0  0  0  0  0  0  0  0  0  0  0  0
    0.7830    0.8720   -1.0690 H   0  0  0  0  0  0  0  0  0  0  0  0
    2.8764   -1.5557    0.9295 H   0  0  0  0  0  0  0  0  0  0  0  0
    5.2512   -1.2552    1.3445 H   0  0  0  0  0  0  0  0  0  0  0  0
    5.2690    2.2128   -1.0791 H   0  0  0  0  0  0  0  0  0  0  0  0
    2.8224    1.9011   -1.5233 H   0  0  0  0  0  0  0  0  0  0  0  0
    6.7642   -0.1275    2.3496 H   0  0  0  0  0  0  0  0  0  0  0  0
    9.2040    0.2012    2.7416 H   0  0  0  0  0  0  0  0  0  0  0  0
    9.6524    1.8620   -1.0468 H   0  0  0  0  0  0  0  0  0  0  0  0
    7.2408    1.5607   -1.4897 H   0  0  0  0  0  0  0  0  0  0  0  0
  1  2  1  0
  2  3  1  0
  2  4  1  0
  2  5  1  0
  5  6  1  0
  6  7  2  0
  7  8  1  0
  8  9  1  0
  9 10  2  0
 10 11  1  0
 11 12  2  0
 12 13  1  0
 13 14  1  0
 14 15  1  0
 15 16  2  0
 16 17  1  0
 17 18  2  0
 18 19  1  0
 19 20  2  0
 18 21  1  0
 21 22  2  0
 22 23  1  0
 23 24  2  0
 24 25  1  0
 25 26  2  0
 13 27  2  0
  7 28  1  0
 28 29  2  0
 28 30  1  0
 30 31  2  0
 30  6  1  0
 27  9  1  0
 20 15  1  0
 26 21  1  0
  1 32  1  0
  1 33  1  0
  1 34  1  0
  3 35  1  0
  3 36  1  0
  3 37  1  0
  4 38  1  0
  4 39  1  0
  4 40  1  0
  5 41  1  0
  8 42  1  0
 10 43  1  0
 11 44  1  0
 14 45  1  0
 16 46  1  0
 17 47  1  0
 19 48  1  0
 20 49  1  0
 22 50  1  0
 23 51  1  0
 25 52  1  0
 26 53  1  0
M  END
$$$$
[H]c1nc(N([H])c2c([H])c([H])c(N3C([H])([H])C([H])([H])N(C([H])([H])[H])C([H])([H])C3([H])[H])c([H])c2OC([H])([H])[H])nc2c1C([H])([H])C([H])([H])c1c(C(=O)N([H])[H])nn(C([H])([H])[H])c1-2
     RDKit          3D

 61 65  0  0  0  0  0  0  0  0999 V2000
    2.2719    3.5887   -0.7274 C   0  0  0  0  0  0  0  0  0  0  0  0
    1.3283    2.5675   -0.5175 O   0  0  0  0  0  0  0  0  0  0  0  0
    1.7612    1.2782   -0.3511 C   0  0  0  0  0  0  0  0  0  0  0  0
    3.0808    0.9601   -0.3837 C   0  0  0  0  0  0  0  0  0  0  0  0
    3.5394   -0.3263   -0.2193 C   0  0  0  0  0  0  0  0  0  0  0  0
    2.6165   -1.3192   -0.0149 C   0  0  0  0  0  0  0  0  0  0  0  0
    1.2613   -1.0147    0.0218 C   0  0  0  0  0  0  0  0  0  0  0  0
    0.8038    0.2741   -0.1430 C   0  0  0  0  0  0  0  0  0  0  0  0
   -0.5491    0.6400   -0.1156 N   0  0  0  0  0  0  0  0  0  0  0  0
   -1.6700   -0.1914    0.0770 C   0  0  0  0  0  0  0  0  0  0  0  0
   -1.6100   -1.5016    0.2694 N   0  0  0  0  0  0  0  0  0  0  0  0
   -2.6614   -2.3102    0.4544 C   0  0  0  0  0  0  0  0  0  0  0  0
   -3.9065   -1.7027    0.4394 C   0  0  0  0  0  0  0  0  0  0  0  0
   -5.0728   -2.5646    0.6413 C   0  0  0  0  0  0  0  0  0  0  0  0
   -6.3869   -1.8883    0.6114 C   0  0  0  0  0  0  0  0  0  0  0  0
   -6.4066   -0.4476    0.4002 C   0  0  0  0  0  0  0  0  0  0  0  0
   -7.4824    0.4455    0.3325 C   0  0  0  0  0  0  0  0  0  0  0  0
   -6.9698    1.6448    0.1237 N   0  0  0  0  0  0  0  0  0  0  0  0
   -5.6702    1.6117    0.0504 N   0  0  0  0  0  0  0  0  0  0  0  0
   -4.7390    2.6992   -0.1669 C   0  0  0  0  0  0  0  0  0  0  0  0
   -5.3085    0.3092    0.2219 C   0  0  0  0  0  0  0  0  0  0  0  0
   -3.9950   -0.3487    0.2421 C   0  0  0  0  0  0  0  0  0  0  0  0
   -2.9151    0.4276    0.0601 N   0  0  0  0  0  0  0  0  0  0  0  0
   -8.8788    0.0781    0.4711 C   0  0  0  0  0  0  0  0  0  0  0  0
   -9.8749    1.0877    0.3816 N   0  0  0  0  0  0  0  0  0  0  0  0
   -9.2472   -1.1011    0.6680 O   0  0  0  0  0  0  0  0  0  0  0  0
    4.9314   -0.5888   -0.2669 N   0  0  0  0  0  0  0  0  0  0  0  0
    5.8594    0.4941   -0.5558 C   0  0  0  0  0  0  0  0  0  0  0  0
    7.1950   -0.0818   -1.0444 C   0  0  0  0  0  0  0  0  0  0  0  0
    7.7798   -0.9032   -0.0345 N   0  0  0  0  0  0  0  0  0  0  0  0
    8.3188    0.0002    0.9946 C   0  0  0  0  0  0  0  0  0  0  0  0
    6.8730   -1.7866    0.6186 C   0  0  0  0  0  0  0  0  0  0  0  0
    5.5122   -1.8878   -0.0411 C   0  0  0  0  0  0  0  0  0  0  0  0
    2.9693    3.6866    0.1524 H   0  0  0  0  0  0  0  0  0  0  0  0
    2.9110    3.3016   -1.5865 H   0  0  0  0  0  0  0  0  0  0  0  0
    1.8101    4.5865   -0.8475 H   0  0  0  0  0  0  0  0  0  0  0  0
    3.7943    1.7836   -0.5492 H   0  0  0  0  0  0  0  0  0  0  0  0
    2.9719   -2.3277    0.1132 H   0  0  0  0  0  0  0  0  0  0  0  0
    0.6270   -1.8611    0.1868 H   0  0  0  0  0  0  0  0  0  0  0  0
   -0.7360    1.6976   -0.2625 H   0  0  0  0  0  0  0  0  0  0  0  0
   -2.4879   -3.3607    0.6011 H   0  0  0  0  0  0  0  0  0  0  0  0
   -4.9899   -3.3803   -0.1414 H   0  0  0  0  0  0  0  0  0  0  0  0
   -4.9487   -3.1381    1.6054 H   0  0  0  0  0  0  0  0  0  0  0  0
   -6.9216   -2.1733    1.5772 H   0  0  0  0  0  0  0  0  0  0  0  0
   -7.0081   -2.4285   -0.1636 H   0  0  0  0  0  0  0  0  0  0  0  0
   -4.0448    2.7663    0.6970 H   0  0  0  0  0  0  0  0  0  0  0  0
   -4.0875    2.4908   -1.0654 H   0  0  0  0  0  0  0  0  0  0  0  0
   -5.2629    3.6304   -0.3874 H   0  0  0  0  0  0  0  0  0  0  0  0
   -9.9182    1.6589   -0.4892 H   0  0  0  0  0  0  0  0  0  0  0  0
  -10.5541    1.2712    1.1507 H   0  0  0  0  0  0  0  0  0  0  0  0
    6.0578    1.1337    0.3067 H   0  0  0  0  0  0  0  0  0  0  0  0
    5.5034    1.1106   -1.4161 H   0  0  0  0  0  0  0  0  0  0  0  0
    7.0601   -0.6013   -2.0231 H   0  0  0  0  0  0  0  0  0  0  0  0
    7.8301    0.8026   -1.2599 H   0  0  0  0  0  0  0  0  0  0  0  0
    7.4347    0.2408    1.6457 H   0  0  0  0  0  0  0  0  0  0  0  0
    8.7292    0.9158    0.5699 H   0  0  0  0  0  0  0  0  0  0  0  0
    9.0031   -0.5944    1.6064 H   0  0  0  0  0  0  0  0  0  0  0  0
    6.7025   -1.5418    1.6752 H   0  0  0  0  0  0  0  0  0  0  0  0
    7.3152   -2.8238    0.5491 H   0  0  0  0  0  0  0  0  0  0  0  0
    5.5440   -2.4717   -0.9863 H   0  0  0  0  0  0  0  0  0  0  0  0
    4.9075   -2.5160    0.6761 H   0  0  0  0  0  0  0  0  0  0  0  0
  1  2  1  0
  2  3  1  0
  3  4  2  0
  4  5  1  0
  5  6  2  0
  6  7  1  0
  7  8  2  0
  8  9  1  0
  9 10  1  0
 10 11  2  0
 11 12  1  0
 12 13  2  0
 13 14  1  0
 14 15  1  0
 15 16  1  0
 16 17  1  0
 17 18  2  0
 18 19  1  0
 19 20  1  0
 19 21  1  0
 21 22  1  0
 22 23  2  0
 17 24  1  0
 24 25  1  0
 24 26  2  0
  5 27  1  0
 27 28  1  0
 28 29  1  0
 29 30  1  0
 30 31  1  0
 30 32  1  0
 32 33  1  0
  8  3  1  0
 23 10  1  0
 33 27  1  0
 22 13  1  0
 21 16  2  0
  1 34  1  0
  1 35  1  0
  1 36  1  0
  4 37  1  0
  6 38  1  0
  7 39  1  0
  9 40  1  0
 12 41  1  0
 14 42  1  0
 14 43  1  0
 15 44  1  0
 15 45  1  0
 20 46  1  0
 20 47  1  0
 20 48  1  0
 25 49  1  0
 25 50  1  0
 28 51  1  0
 28 52  1  0
 29 53  1  0
 29 54  1  0
 31 55  1  0
 31 56  1  0
 31 57  1  0
 32 58  1  0
 32 59  1  0
 33 60  1  0
 33 61  1  0
M  END
$$$$
[H]c1nc(N([H])c2c([H])c([H])c([H])c([H])c2[H])nc2c1C([H])([H])C([H])([H])c1c(C(=O)N([H])[H])nn(C([H])([H])[H])c1-2
     RDKit          3D

 40 43  0  0  0  0  0  0  0  0999 V2000
   -0.2590    1.8827    1.1529 C   0  0  0  0  0  0  0  0  0  0  0  0
   -1.4265    1.2515    0.5745 N   0  0  0  0  0  0  0  0  0  0  0  0
   -2.6703    1.7417    0.7193 N   0  0  0  0  0  0  0  0  0  0  0  0
   -3.5625    0.9814    0.1046 C   0  0  0  0  0  0  0  0  0  0  0  0
   -5.0194    1.2034    0.0467 C   0  0  0  0  0  0  0  0  0  0  0  0
   -5.5748    2.3242    0.6944 N   0  0  0  0  0  0  0  0  0  0  0  0
   -5.7424    0.3708   -0.5915 O   0  0  0  0  0  0  0  0  0  0  0  0
   -2.8686   -0.0621   -0.4740 C   0  0  0  0  0  0  0  0  0  0  0  0
   -3.3928   -1.1897   -1.2765 C   0  0  0  0  0  0  0  0  0  0  0  0
   -2.3766   -2.1600   -1.7328 C   0  0  0  0  0  0  0  0  0  0  0  0
   -0.9822   -1.8947   -1.3697 C   0  0  0  0  0  0  0  0  0  0  0  0
   -0.0162   -2.7895   -1.7982 C   0  0  0  0  0  0  0  0  0  0  0  0
    1.2490   -2.5610   -1.4755 N   0  0  0  0  0  0  0  0  0  0  0  0
    1.6742   -1.4896   -0.7397 C   0  0  0  0  0  0  0  0  0  0  0  0
    3.0428   -1.4257   -0.4702 N   0  0  0  0  0  0  0  0  0  0  0  0
    3.7332   -0.4200    0.2341 C   0  0  0  0  0  0  0  0  0  0  0  0
    3.3400    0.8750    0.3138 C   0  0  0  0  0  0  0  0  0  0  0  0
    4.0659    1.7894    1.0496 C   0  0  0  0  0  0  0  0  0  0  0  0
    5.2063    1.4526    1.7311 C   0  0  0  0  0  0  0  0  0  0  0  0
    5.6106    0.1392    1.6531 C   0  0  0  0  0  0  0  0  0  0  0  0
    4.8968   -0.7698    0.9273 C   0  0  0  0  0  0  0  0  0  0  0  0
    0.7510   -0.6335   -0.3296 N   0  0  0  0  0  0  0  0  0  0  0  0
   -0.5668   -0.8233   -0.6347 C   0  0  0  0  0  0  0  0  0  0  0  0
   -1.5481    0.1394   -0.1613 C   0  0  0  0  0  0  0  0  0  0  0  0
   -0.5694    2.4922    2.0257 H   0  0  0  0  0  0  0  0  0  0  0  0
    0.2294    2.5880    0.4416 H   0  0  0  0  0  0  0  0  0  0  0  0
    0.4569    1.1343    1.5484 H   0  0  0  0  0  0  0  0  0  0  0  0
   -6.0314    2.2159    1.6136 H   0  0  0  0  0  0  0  0  0  0  0  0
   -5.5299    3.2588    0.2569 H   0  0  0  0  0  0  0  0  0  0  0  0
   -4.2206   -1.7207   -0.7133 H   0  0  0  0  0  0  0  0  0  0  0  0
   -3.9360   -0.8083   -2.1937 H   0  0  0  0  0  0  0  0  0  0  0  0
   -2.4269   -2.3292   -2.8514 H   0  0  0  0  0  0  0  0  0  0  0  0
   -2.6210   -3.1883   -1.3138 H   0  0  0  0  0  0  0  0  0  0  0  0
   -0.2824   -3.6579   -2.3839 H   0  0  0  0  0  0  0  0  0  0  0  0
    3.6872   -2.2223   -0.8320 H   0  0  0  0  0  0  0  0  0  0  0  0
    2.4459    1.2138   -0.2202 H   0  0  0  0  0  0  0  0  0  0  0  0
    3.7423    2.8352    1.1106 H   0  0  0  0  0  0  0  0  0  0  0  0
    5.7555    2.2052    2.3041 H   0  0  0  0  0  0  0  0  0  0  0  0
    6.5163   -0.1516    2.1877 H   0  0  0  0  0  0  0  0  0  0  0  0
    5.2204   -1.7974    0.8719 H   0  0  0  0  0  0  0  0  0  0  0  0
  1  2  1  0
  2  3  1  0
  3  4  2  0
  4  5  1  0
  5  6  1  0
  5  7  2  0
  4  8  1  0
  8  9  1  0
  9 10  1  0
 10 11  1  0
 11 12  2  0
 12 13  1  0
 13 14  2  0
 14 15  1  0
 15 16  1  0
 16 17  2  0
 17 18  1  0
 18 19  2  0
 19 20  1  0
 20 21  2  0
 14 22  1  0
 22 23  2  0
 23 24  1  0
 24  2  1  0
 24  8  2  0
 23 11  1  0
 21 16  1  0
  1 25  1  0
  1 26  1  0
  1 27  1  0
  6 28  1  0
  6 29  1  0
  9 30  1  0
  9 31  1  0
 10 32  1  0
 10 33  1  0
 12 34  1  0
 15 35  1  0
 17 36  1  0
 18 37  1  0
 19 38  1  0
 20 39  1  0
 21 40  1  0
M  END
$$$$
[H]c1nc(N([H])c2c([H])c([H])c(C(=O)N([H])C3([H])C([H])([H])C([H])([H])N(C([H])([H])[H])C([H])([H])C3([H])[H])c([H])c2[H])nc2c1N(C([H])([H])[H])C(=O)[C@@]([H])(C([H])([H])C([H])([H])[H])N2C1([H])C([H])([H])C([H])([H])C([H])([H])C1([H])[H]
     RDKit          3D

 73 77  0  0  0  0  0  0  0  0999 V2000
   -8.3914   -1.0553   -1.2035 C   0  0  0  0  0  0  0  0  0  0  0  0
   -7.5079    0.1677   -0.8871 C   0  0  0  0  0  0  0  0  0  0  0  0
   -6.1562   -0.3447   -0.6627 C   0  0  1  0  0  0  0  0  0  0  0  0
   -5.0860    0.5257   -0.3566 N   0  0  0  0  0  0  0  0  0  0  0  0
   -5.0465    1.9618   -0.3499 C   0  0  0  0  0  0  0  0  0  0  0  0
   -5.8979    2.6429    0.6630 C   0  0  0  0  0  0  0  0  0  0  0  0
   -6.6629    3.7228   -0.0407 C   0  0  0  0  0  0  0  0  0  0  0  0
   -6.3095    3.6777   -1.4880 C   0  0  0  0  0  0  0  0  0  0  0  0
   -5.3447    2.5584   -1.7101 C   0  0  0  0  0  0  0  0  0  0  0  0
   -3.8524   -0.1523    0.0063 C   0  0  0  0  0  0  0  0  0  0  0  0
   -2.6571    0.4316   -0.2008 N   0  0  0  0  0  0  0  0  0  0  0  0
   -1.4848   -0.1902    0.1381 C   0  0  0  0  0  0  0  0  0  0  0  0
   -0.2527    0.4447   -0.1210 N   0  0  0  0  0  0  0  0  0  0  0  0
    1.0311   -0.0127    0.1636 C   0  0  0  0  0  0  0  0  0  0  0  0
    2.0979    0.4608   -0.6064 C   0  0  0  0  0  0  0  0  0  0  0  0
    3.3917    0.0745   -0.3739 C   0  0  0  0  0  0  0  0  0  0  0  0
    3.7071   -0.8064    0.6386 C   0  0  0  0  0  0  0  0  0  0  0  0
    2.6720   -1.2795    1.4036 C   0  0  0  0  0  0  0  0  0  0  0  0
    1.3427   -0.8838    1.1663 C   0  0  0  0  0  0  0  0  0  0  0  0
    5.0684   -1.2492    0.9268 C   0  0  0  0  0  0  0  0  0  0  0  0
    5.2412   -2.0904    1.8440 O   0  0  0  0  0  0  0  0  0  0  0  0
    6.1861   -0.7711    0.2187 N   0  0  0  0  0  0  0  0  0  0  0  0
    7.5131   -1.2523    0.5530 C   0  0  0  0  0  0  0  0  0  0  0  0
    8.2724   -0.0548    1.1151 C   0  0  0  0  0  0  0  0  0  0  0  0
    9.7346   -0.2611    0.7785 C   0  0  0  0  0  0  0  0  0  0  0  0
    9.8656    0.0476   -0.6413 N   0  0  0  0  0  0  0  0  0  0  0  0
    9.6392    1.4711   -0.8369 C   0  0  0  0  0  0  0  0  0  0  0  0
    8.9656   -0.7373   -1.4289 C   0  0  0  0  0  0  0  0  0  0  0  0
    8.2339   -1.7962   -0.6397 C   0  0  0  0  0  0  0  0  0  0  0  0
   -1.5306   -1.3998    0.6843 N   0  0  0  0  0  0  0  0  0  0  0  0
   -2.6754   -2.0475    0.9230 C   0  0  0  0  0  0  0  0  0  0  0  0
   -3.8418   -1.4079    0.5768 C   0  0  0  0  0  0  0  0  0  0  0  0
   -5.0802   -2.0630    0.8203 N   0  0  0  0  0  0  0  0  0  0  0  0
   -5.1454   -3.3881    1.4200 C   0  0  0  0  0  0  0  0  0  0  0  0
   -6.2609   -1.3648    0.4527 C   0  0  0  0  0  0  0  0  0  0  0  0
   -7.3370   -1.6095    1.0524 O   0  0  0  0  0  0  0  0  0  0  0  0
   -8.8670   -0.9051   -2.2141 H   0  0  0  0  0  0  0  0  0  0  0  0
   -9.2022   -1.1778   -0.4864 H   0  0  0  0  0  0  0  0  0  0  0  0
   -7.7842   -1.9753   -1.3332 H   0  0  0  0  0  0  0  0  0  0  0  0
   -7.6824    0.8833   -1.6766 H   0  0  0  0  0  0  0  0  0  0  0  0
   -7.9241    0.5714    0.0813 H   0  0  0  0  0  0  0  0  0  0  0  0
   -5.8543   -0.9412   -1.5871 H   0  0  0  0  0  0  0  0  0  0  0  0
   -3.9921    2.3214   -0.1292 H   0  0  0  0  0  0  0  0  0  0  0  0
   -6.5142    1.9794    1.3027 H   0  0  0  0  0  0  0  0  0  0  0  0
   -5.2745    3.1985    1.4394 H   0  0  0  0  0  0  0  0  0  0  0  0
   -6.3929    4.7644    0.3102 H   0  0  0  0  0  0  0  0  0  0  0  0
   -7.7707    3.6643    0.1597 H   0  0  0  0  0  0  0  0  0  0  0  0
   -7.2512    3.4183   -2.0557 H   0  0  0  0  0  0  0  0  0  0  0  0
   -5.9801    4.6532   -1.9099 H   0  0  0  0  0  0  0  0  0  0  0  0
   -4.4280    3.0461   -2.1599 H   0  0  0  0  0  0  0  0  0  0  0  0
   -5.6384    1.8208   -2.4679 H   0  0  0  0  0  0  0  0  0  0  0  0
   -0.2970    1.4157   -0.6005 H   0  0  0  0  0  0  0  0  0  0  0  0
    1.8886    1.1596   -1.4172 H   0  0  0  0  0  0  0  0  0  0  0  0
    4.2240    0.4441   -0.9773 H   0  0  0  0  0  0  0  0  0  0  0  0
    2.8309   -1.9738    2.2180 H   0  0  0  0  0  0  0  0  0  0  0  0
    0.5721   -1.2733    1.8119 H   0  0  0  0  0  0  0  0  0  0  0  0
    6.1291   -0.0658   -0.5629 H   0  0  0  0  0  0  0  0  0  0  0  0
    7.4528   -1.9997    1.3616 H   0  0  0  0  0  0  0  0  0  0  0  0
    8.1093   -0.0202    2.2143 H   0  0  0  0  0  0  0  0  0  0  0  0
    7.8902    0.8859    0.6721 H   0  0  0  0  0  0  0  0  0  0  0  0
   10.0350   -1.3131    0.9169 H   0  0  0  0  0  0  0  0  0  0  0  0
   10.3902    0.4231    1.3556 H   0  0  0  0  0  0  0  0  0  0  0  0
   10.3857    1.8483   -1.5752 H   0  0  0  0  0  0  0  0  0  0  0  0
    9.8179    1.9897    0.1133 H   0  0  0  0  0  0  0  0  0  0  0  0
    8.5972    1.6690   -1.1688 H   0  0  0  0  0  0  0  0  0  0  0  0
    9.5810   -1.2757   -2.1956 H   0  0  0  0  0  0  0  0  0  0  0  0
    8.2371   -0.1003   -2.0030 H   0  0  0  0  0  0  0  0  0  0  0  0
    7.5307   -2.2976   -1.3485 H   0  0  0  0  0  0  0  0  0  0  0  0
    8.9979   -2.5513   -0.3190 H   0  0  0  0  0  0  0  0  0  0  0  0
   -2.7216   -3.0244    1.3643 H   0  0  0  0  0  0  0  0  0  0  0  0
   -6.2135   -3.6353    1.5874 H   0  0  0  0  0  0  0  0  0  0  0  0
   -4.6303   -3.4386    2.3869 H   0  0  0  0  0  0  0  0  0  0  0  0
   -4.6926   -4.1570    0.7407 H   0  0  0  0  0  0  0  0  0  0  0  0
  1  2  1  0
  2  3  1  0
  3  4  1  0
  4  5  1  0
  5  6  1  0
  6  7  1  0
  7  8  1  0
  8  9  1  0
  4 10  1  0
 10 11  2  0
 11 12  1  0
 12 13  1  0
 13 14  1  0
 14 15  2  0
 15 16  1  0
 16 17  2  0
 17 18  1  0
 18 19  2  0
 17 20  1  0
 20 21  2  0
 20 22  1  0
 22 23  1  0
 23 24  1  0
 24 25  1  0
 25 26  1  0
 26 27  1  0
 26 28  1  0
 28 29  1  0
 12 30  2  0
 30 31  1  0
 31 32  2  0
 32 33  1  0
 33 34  1  0
 33 35  1  0
 35 36  2  0
 35  3  1  0
  9  5  1  0
 32 10  1  0
 19 14  1  0
 29 23  1  0
  1 37  1  0
  1 38  1  0
  1 39  1  0
  2 40  1  0
  2 41  1  0
  3 42  1  6
  5 43  1  0
  6 44  1  0
  6 45  1  0
  7 46  1  0
  7 47  1  0
  8 48  1  0
  8 49  1  0
  9 50  1  0
  9 51  1  0
 13 52  1  0
 15 53  1  0
 16 54  1  0
 18 55  1  0
 19 56  1  0
 22 57  1  0
 23 58  1  0
 24 59  1  0
 24 60  1  0
 25 61  1  0
 25 62  1  0
 27 63  1  0
 27 64  1  0
 27 65  1  0
 28 66  1  0
 28 67  1  0
 29 68  1  0
 29 69  1  0
 31 70  1  0
 34 71  1  0
 34 72  1  0
 34 73  1  0
M  END
$$$$
[H]c1nc(N([H])c2c([H])c([H])c(F)c(C([H])([H])C([H])([H])C([H])([H])N(C([H])([H])[H])C([H])([H])[H])c2[H])nc2c1C([H])([H])C(=S)N([H])c1c([H])c(Cl)c([H])c([H])c1-2
     RDKit          3D

 54 57  0  0  0  0  0  0  0  0999 V2000
    6.5473    2.1386   -0.4935 C   0  0  0  0  0  0  0  0  0  0  0  0
    5.9258    0.8877   -0.8329 N   0  0  0  0  0  0  0  0  0  0  0  0
    6.7663   -0.1061   -1.3273 C   0  0  0  0  0  0  0  0  0  0  0  0
    4.5670    0.9355   -1.1061 C   0  0  0  0  0  0  0  0  0  0  0  0
    3.7810   -0.2331   -1.4702 C   0  0  0  0  0  0  0  0  0  0  0  0
    3.6013   -1.3797   -0.5494 C   0  0  0  0  0  0  0  0  0  0  0  0
    2.9475   -1.0888    0.7426 C   0  0  0  0  0  0  0  0  0  0  0  0
    1.5450   -1.0660    0.8215 C   0  0  0  0  0  0  0  0  0  0  0  0
    0.8259   -0.7424    1.9211 C   0  0  0  0  0  0  0  0  0  0  0  0
   -0.5763   -0.6511    2.0461 N   0  0  0  0  0  0  0  0  0  0  0  0
   -1.4647   -0.4243    0.9840 C   0  0  0  0  0  0  0  0  0  0  0  0
   -1.0863   -0.2642   -0.2860 N   0  0  0  0  0  0  0  0  0  0  0  0
   -1.8657   -0.0328   -1.3370 C   0  0  0  0  0  0  0  0  0  0  0  0
   -3.2435    0.0549   -1.0959 C   0  0  0  0  0  0  0  0  0  0  0  0
   -3.9490    0.3008   -2.3355 C   0  0  0  0  0  0  0  0  0  0  0  0
   -5.4009    0.2672   -2.3286 C   0  0  0  0  0  0  0  0  0  0  0  0
   -6.0327    0.1296   -3.8565 S   0  0  0  0  0  0  0  0  0  0  0  0
   -6.4140    0.3216   -1.3587 N   0  0  0  0  0  0  0  0  0  0  0  0
   -6.2349    0.1435    0.0471 C   0  0  0  0  0  0  0  0  0  0  0  0
   -7.4441    0.1804    0.7238 C   0  0  0  0  0  0  0  0  0  0  0  0
   -7.5069    0.0291    2.1029 C   0  0  0  0  0  0  0  0  0  0  0  0
   -9.0383    0.0764    2.9811 Cl  0  0  0  0  0  0  0  0  0  0  0  0
   -6.3118   -0.1609    2.7795 C   0  0  0  0  0  0  0  0  0  0  0  0
   -5.1142   -0.1958    2.0977 C   0  0  0  0  0  0  0  0  0  0  0  0
   -5.0548   -0.0436    0.7182 C   0  0  0  0  0  0  0  0  0  0  0  0
   -3.6816   -0.1037    0.1993 C   0  0  0  0  0  0  0  0  0  0  0  0
   -2.8118   -0.3362    1.2019 N   0  0  0  0  0  0  0  0  0  0  0  0
    1.5575   -0.4032    3.0852 C   0  0  0  0  0  0  0  0  0  0  0  0
    2.9178   -0.4126    3.0553 C   0  0  0  0  0  0  0  0  0  0  0  0
    3.6199   -0.7563    1.8826 C   0  0  0  0  0  0  0  0  0  0  0  0
    4.9630   -0.7952    1.9243 F   0  0  0  0  0  0  0  0  0  0  0  0
    6.2632    2.8512   -1.3239 H   0  0  0  0  0  0  0  0  0  0  0  0
    6.0951    2.5218    0.4276 H   0  0  0  0  0  0  0  0  0  0  0  0
    7.6280    2.0266   -0.5017 H   0  0  0  0  0  0  0  0  0  0  0  0
    7.4385   -0.4670   -0.4922 H   0  0  0  0  0  0  0  0  0  0  0  0
    6.3228   -0.9866   -1.7727 H   0  0  0  0  0  0  0  0  0  0  0  0
    7.4852    0.3292   -2.0833 H   0  0  0  0  0  0  0  0  0  0  0  0
    4.4202    1.7045   -1.9413 H   0  0  0  0  0  0  0  0  0  0  0  0
    4.0474    1.4290   -0.2251 H   0  0  0  0  0  0  0  0  0  0  0  0
    4.0132   -0.6042   -2.5332 H   0  0  0  0  0  0  0  0  0  0  0  0
    2.7128    0.1583   -1.6514 H   0  0  0  0  0  0  0  0  0  0  0  0
    3.0307   -2.1689   -1.1204 H   0  0  0  0  0  0  0  0  0  0  0  0
    4.6021   -1.8420   -0.3538 H   0  0  0  0  0  0  0  0  0  0  0  0
    1.0371   -1.3561   -0.0885 H   0  0  0  0  0  0  0  0  0  0  0  0
   -1.0233   -0.7672    3.0227 H   0  0  0  0  0  0  0  0  0  0  0  0
   -1.5216    0.0932   -2.3525 H   0  0  0  0  0  0  0  0  0  0  0  0
   -3.6451    1.3085   -2.7291 H   0  0  0  0  0  0  0  0  0  0  0  0
   -3.5354   -0.4096   -3.1066 H   0  0  0  0  0  0  0  0  0  0  0  0
   -7.3896    0.5043   -1.6523 H   0  0  0  0  0  0  0  0  0  0  0  0
   -8.3624    0.3275    0.1792 H   0  0  0  0  0  0  0  0  0  0  0  0
   -6.2991   -0.2860    3.8539 H   0  0  0  0  0  0  0  0  0  0  0  0
   -4.1490   -0.3442    2.5834 H   0  0  0  0  0  0  0  0  0  0  0  0
    0.9944   -0.1367    3.9960 H   0  0  0  0  0  0  0  0  0  0  0  0
    3.5010   -0.1543    3.9436 H   0  0  0  0  0  0  0  0  0  0  0  0
  1  2  1  0
  2  3  1  0
  2  4  1  0
  4  5  1  0
  5  6  1  0
  6  7  1  0
  7  8  2  0
  8  9  1  0
  9 10  1  0
 10 11  1  0
 11 12  2  0
 12 13  1  0
 13 14  2  0
 14 15  1  0
 15 16  1  0
 16 17  2  0
 16 18  1  0
 18 19  1  0
 19 20  2  0
 20 21  1  0
 21 22  1  0
 21 23  2  0
 23 24  1  0
 24 25  2  0
 25 26  1  0
 26 27  2  0
  9 28  2  0
 28 29  1  0
 29 30  2  0
 30 31  1  0
 30  7  1  0
 27 11  1  0
 26 14  1  0
 25 19  1  0
  1 32  1  0
  1 33  1  0
  1 34  1  0
  3 35  1  0
  3 36  1  0
  3 37  1  0
  4 38  1  0
  4 39  1  0
  5 40  1  0
  5 41  1  0
  6 42  1  0
  6 43  1  0
  8 44  1  0
 10 45  1  0
 13 46  1  0
 15 47  1  0
 15 48  1  0
 18 49  1  0
 20 50  1  0
 23 51  1  0
 24 52  1  0
 28 53  1  0
 29 54  1  0
M  END
$$$$
[H]c1nc(N([H])c2c([H])c([H])c(S(=O)(=O)N([H])C([H])([H])[H])c([H])c2[H])nc2c1N(C([H])([H])[H])C(=O)[C@@]([H])(C([H])([H])C([H])([H])[H])N2C1([H])C([H])([H])C([H])([H])C([H])([H])C1([H])[H]
     RDKit          3D

 59 62  0  0  0  0  0  0  0  0999 V2000
   -4.7134    2.6481   -0.9960 C   0  0  0  0  0  0  0  0  0  0  0  0
   -3.6725    1.5325   -1.0412 C   0  0  0  0  0  0  0  0  0  0  0  0
   -3.8651    0.7344    0.2397 C   0  0  1  0  0  0  0  0  0  0  0  0
   -2.8966   -0.3353    0.2378 N   0  0  0  0  0  0  0  0  0  0  0  0
   -3.1621   -1.7149    0.0944 C   0  0  0  0  0  0  0  0  0  0  0  0
   -4.0692   -2.2389    1.2032 C   0  0  0  0  0  0  0  0  0  0  0  0
   -5.3106   -2.6371    0.4401 C   0  0  0  0  0  0  0  0  0  0  0  0
   -4.6852   -3.2860   -0.8028 C   0  0  0  0  0  0  0  0  0  0  0  0
   -3.7567   -2.1322   -1.2136 C   0  0  0  0  0  0  0  0  0  0  0  0
   -1.5293    0.0816    0.4021 C   0  0  0  0  0  0  0  0  0  0  0  0
   -0.5132   -0.6689   -0.0361 N   0  0  0  0  0  0  0  0  0  0  0  0
    0.8072   -0.3195    0.0943 C   0  0  0  0  0  0  0  0  0  0  0  0
    1.7603   -1.1784   -0.4247 N   0  0  0  0  0  0  0  0  0  0  0  0
    3.1591   -1.0305   -0.3900 C   0  0  0  0  0  0  0  0  0  0  0  0
    3.9379   -1.7062   -1.3529 C   0  0  0  0  0  0  0  0  0  0  0  0
    5.2935   -1.6100   -1.3406 C   0  0  0  0  0  0  0  0  0  0  0  0
    5.9901   -0.8611   -0.4061 C   0  0  0  0  0  0  0  0  0  0  0  0
    5.2349   -0.2037    0.5312 C   0  0  0  0  0  0  0  0  0  0  0  0
    3.8449   -0.2894    0.5363 C   0  0  0  0  0  0  0  0  0  0  0  0
    7.7333   -0.7465   -0.4031 S   0  0  0  0  0  0  0  0  0  0  0  0
    8.3499   -2.0201   -0.9024 O   0  0  0  0  0  0  0  0  0  0  0  0
    8.1795   -0.5483    1.0232 O   0  0  0  0  0  0  0  0  0  0  0  0
    8.2807    0.5747   -1.3656 N   0  0  0  0  0  0  0  0  0  0  0  0
    7.7806    1.8089   -0.8359 C   0  0  0  0  0  0  0  0  0  0  0  0
    1.0935    0.8238    0.6866 N   0  0  0  0  0  0  0  0  0  0  0  0
    0.1109    1.6172    1.1460 C   0  0  0  0  0  0  0  0  0  0  0  0
   -1.2209    1.2773    1.0211 C   0  0  0  0  0  0  0  0  0  0  0  0
   -2.2415    2.1272    1.5123 N   0  0  0  0  0  0  0  0  0  0  0  0
   -1.9511    3.3894    2.1673 C   0  0  0  0  0  0  0  0  0  0  0  0
   -3.5939    1.7158    1.3508 C   0  0  0  0  0  0  0  0  0  0  0  0
   -4.5103    2.1492    2.0961 O   0  0  0  0  0  0  0  0  0  0  0  0
   -4.3253    3.4229   -0.3254 H   0  0  0  0  0  0  0  0  0  0  0  0
   -4.9237    3.0225   -2.0223 H   0  0  0  0  0  0  0  0  0  0  0  0
   -5.6276    2.2053   -0.5517 H   0  0  0  0  0  0  0  0  0  0  0  0
   -2.6774    1.9879   -1.1064 H   0  0  0  0  0  0  0  0  0  0  0  0
   -3.8819    0.9227   -1.9374 H   0  0  0  0  0  0  0  0  0  0  0  0
   -4.9003    0.4300    0.3442 H   0  0  0  0  0  0  0  0  0  0  0  0
   -2.2174   -2.2923    0.2034 H   0  0  0  0  0  0  0  0  0  0  0  0
   -3.6702   -3.1605    1.6557 H   0  0  0  0  0  0  0  0  0  0  0  0
   -4.2769   -1.4479    1.9558 H   0  0  0  0  0  0  0  0  0  0  0  0
   -5.8602   -1.7522    0.1238 H   0  0  0  0  0  0  0  0  0  0  0  0
   -5.9250   -3.3733    0.9957 H   0  0  0  0  0  0  0  0  0  0  0  0
   -4.0952   -4.1807   -0.5175 H   0  0  0  0  0  0  0  0  0  0  0  0
   -5.4362   -3.5003   -1.5686 H   0  0  0  0  0  0  0  0  0  0  0  0
   -4.3907   -1.4028   -1.7027 H   0  0  0  0  0  0  0  0  0  0  0  0
   -3.0083   -2.4946   -1.9489 H   0  0  0  0  0  0  0  0  0  0  0  0
    1.4200   -2.0736   -0.9138 H   0  0  0  0  0  0  0  0  0  0  0  0
    3.4108   -2.3036   -2.1018 H   0  0  0  0  0  0  0  0  0  0  0  0
    5.9016   -2.1248   -2.0754 H   0  0  0  0  0  0  0  0  0  0  0  0
    5.7400    0.4044    1.2952 H   0  0  0  0  0  0  0  0  0  0  0  0
    3.3228    0.2561    1.3348 H   0  0  0  0  0  0  0  0  0  0  0  0
    7.9442    0.4408   -2.3452 H   0  0  0  0  0  0  0  0  0  0  0  0
    7.9872    1.8100    0.2676 H   0  0  0  0  0  0  0  0  0  0  0  0
    6.6847    1.9074   -0.9587 H   0  0  0  0  0  0  0  0  0  0  0  0
    8.2890    2.6836   -1.3053 H   0  0  0  0  0  0  0  0  0  0  0  0
    0.3974    2.5422    1.6229 H   0  0  0  0  0  0  0  0  0  0  0  0
   -2.8797    3.9806    2.2462 H   0  0  0  0  0  0  0  0  0  0  0  0
   -1.6557    3.1420    3.2173 H   0  0  0  0  0  0  0  0  0  0  0  0
   -1.2108    3.9952    1.6359 H   0  0  0  0  0  0  0  0  0  0  0  0
  1  2  1  0
  2  3  1  0
  3  4  1  0
  4  5  1  0
  5  6  1  0
  6  7  1  0
  7  8  1  0
  8  9  1  0
  4 10  1  0
 10 11  2  0
 11 12  1  0
 12 13  1  0
 13 14  1  0
 14 15  2  0
 15 16  1  0
 16 17  2  0
 17 18  1  0
 18 19  2  0
 17 20  1  0
 20 21  2  0
 20 22  2  0
 20 23  1  0
 23 24  1  0
 12 25  2  0
 25 26  1  0
 26 27  2  0
 27 28  1  0
 28 29  1  0
 28 30  1  0
 30 31  2  0
 30  3  1  0
  9  5  1  0
 27 10  1  0
 19 14  1  0
  1 32  1  0
  1 33  1  0
  1 34  1  0
  2 35  1  0
  2 36  1  0
  3 37  1  1
  5 38  1  0
  6 39  1  0
  6 40  1  0
  7 41  1  0
  7 42  1  0
  8 43  1  0
  8 44  1  0
  9 45  1  0
  9 46  1  0
 13 47  1  0
 15 48  1  0
 16 49  1  0
 18 50  1  0
 19 51  1  0
 23 52  1  0
 24 53  1  0
 24 54  1  0
 24 55  1  0
 26 56  1  0
 29 57  1  0
 29 58  1  0
 29 59  1  0
M  END
$$$$
[H]c1nc([H])c(C([H])([H])C([H])([H])C([H])([H])N(C([H])([H])[H])C([H])([H])[H])c([H])c1N([H])c1nc([H])c2c(n1)-c1c([H])c([H])c(Cl)c([H])c1N([H])C(=S)C2([H])[H]
     RDKit          3D

 53 56  0  0  0  0  0  0  0  0999 V2000
   -6.9085   -1.1770   -0.9853 C   0  0  0  0  0  0  0  0  0  0  0  0
   -6.3779   -0.3901    0.0900 N   0  0  0  0  0  0  0  0  0  0  0  0
   -7.3464    0.0028    1.0690 C   0  0  0  0  0  0  0  0  0  0  0  0
   -5.2173   -1.0176    0.6566 C   0  0  0  0  0  0  0  0  0  0  0  0
   -4.6278   -0.2345    1.7820 C   0  0  0  0  0  0  0  0  0  0  0  0
   -4.1587    1.1416    1.4351 C   0  0  0  0  0  0  0  0  0  0  0  0
   -3.0982    1.1951    0.4128 C   0  0  0  0  0  0  0  0  0  0  0  0
   -3.3753    1.3176   -0.9254 C   0  0  0  0  0  0  0  0  0  0  0  0
   -2.3973    1.3618   -1.8540 N   0  0  0  0  0  0  0  0  0  0  0  0
   -1.0757    1.2871   -1.5137 C   0  0  0  0  0  0  0  0  0  0  0  0
   -0.7391    1.1636   -0.1981 C   0  0  0  0  0  0  0  0  0  0  0  0
    0.5590    1.0470    0.2860 N   0  0  0  0  0  0  0  0  0  0  0  0
    1.6569    0.5418   -0.4428 C   0  0  0  0  0  0  0  0  0  0  0  0
    1.6094    0.0922   -1.6832 N   0  0  0  0  0  0  0  0  0  0  0  0
    2.6381   -0.3932   -2.3984 C   0  0  0  0  0  0  0  0  0  0  0  0
    3.9005   -0.4417   -1.8002 C   0  0  0  0  0  0  0  0  0  0  0  0
    4.8890   -1.0043   -2.7516 C   0  0  0  0  0  0  0  0  0  0  0  0
    5.9794   -1.7588   -2.1095 C   0  0  0  0  0  0  0  0  0  0  0  0
    6.4566   -3.0827   -2.9349 S   0  0  0  0  0  0  0  0  0  0  0  0
    6.6544   -1.4890   -0.8941 N   0  0  0  0  0  0  0  0  0  0  0  0
    6.3611   -0.5867    0.1705 C   0  0  0  0  0  0  0  0  0  0  0  0
    7.3887   -0.4143    1.0632 C   0  0  0  0  0  0  0  0  0  0  0  0
    7.1975    0.4374    2.1221 C   0  0  0  0  0  0  0  0  0  0  0  0
    8.5076    0.6671    3.2737 Cl  0  0  0  0  0  0  0  0  0  0  0  0
    6.0101    1.1304    2.3274 C   0  0  0  0  0  0  0  0  0  0  0  0
    5.0041    0.9261    1.4043 C   0  0  0  0  0  0  0  0  0  0  0  0
    5.1606    0.0772    0.3273 C   0  0  0  0  0  0  0  0  0  0  0  0
    3.9612    0.0243   -0.5081 C   0  0  0  0  0  0  0  0  0  0  0  0
    2.8944    0.4976    0.1527 N   0  0  0  0  0  0  0  0  0  0  0  0
   -1.7755    1.1191    0.7637 C   0  0  0  0  0  0  0  0  0  0  0  0
   -6.4369   -2.1763   -0.9837 H   0  0  0  0  0  0  0  0  0  0  0  0
   -8.0057   -1.3271   -0.7747 H   0  0  0  0  0  0  0  0  0  0  0  0
   -6.7633   -0.7104   -1.9804 H   0  0  0  0  0  0  0  0  0  0  0  0
   -7.3946    1.1036    1.2149 H   0  0  0  0  0  0  0  0  0  0  0  0
   -7.2490   -0.5602    1.9989 H   0  0  0  0  0  0  0  0  0  0  0  0
   -8.3577   -0.2712    0.6473 H   0  0  0  0  0  0  0  0  0  0  0  0
   -4.4746   -1.3042   -0.0980 H   0  0  0  0  0  0  0  0  0  0  0  0
   -5.5751   -1.9905    1.1055 H   0  0  0  0  0  0  0  0  0  0  0  0
   -3.7565   -0.7733    2.2365 H   0  0  0  0  0  0  0  0  0  0  0  0
   -5.3551   -0.1331    2.6250 H   0  0  0  0  0  0  0  0  0  0  0  0
   -5.0189    1.8195    1.1514 H   0  0  0  0  0  0  0  0  0  0  0  0
   -3.8038    1.5932    2.4096 H   0  0  0  0  0  0  0  0  0  0  0  0
   -4.3725    1.3875   -1.2980 H   0  0  0  0  0  0  0  0  0  0  0  0
   -0.3351    1.3459   -2.2970 H   0  0  0  0  0  0  0  0  0  0  0  0
    0.7310    1.3729    1.2884 H   0  0  0  0  0  0  0  0  0  0  0  0
    2.5293   -0.7443   -3.4086 H   0  0  0  0  0  0  0  0  0  0  0  0
    5.2807   -0.2245   -3.4443 H   0  0  0  0  0  0  0  0  0  0  0  0
    4.3235   -1.7102   -3.4040 H   0  0  0  0  0  0  0  0  0  0  0  0
    7.5220   -2.0406   -0.7359 H   0  0  0  0  0  0  0  0  0  0  0  0
    8.3030   -0.9588    0.8900 H   0  0  0  0  0  0  0  0  0  0  0  0
    5.9060    1.7917    3.1777 H   0  0  0  0  0  0  0  0  0  0  0  0
    4.0820    1.4482    1.5415 H   0  0  0  0  0  0  0  0  0  0  0  0
   -1.5096    1.0218    1.8006 H   0  0  0  0  0  0  0  0  0  0  0  0
  1  2  1  0
  2  3  1  0
  2  4  1  0
  4  5  1  0
  5  6  1  0
  6  7  1  0
  7  8  2  0
  8  9  1  0
  9 10  2  0
 10 11  1  0
 11 12  1  0
 12 13  1  0
 13 14  2  0
 14 15  1  0
 15 16  2  0
 16 17  1  0
 17 18  1  0
 18 19  2  0
 18 20  1  0
 20 21  1  0
 21 22  2  0
 22 23  1  0
 23 24  1  0
 23 25  2  0
 25 26  1  0
 26 27  2  0
 27 28  1  0
 28 29  2  0
 11 30  2  0
 30  7  1  0
 29 13  1  0
 28 16  1  0
 27 21  1  0
  1 31  1  0
  1 32  1  0
  1 33  1  0
  3 34  1  0
  3 35  1  0
  3 36  1  0
  4 37  1  0
  4 38  1  0
  5 39  1  0
  5 40  1  0
  6 41  1  0
  6 42  1  0
  8 43  1  0
 10 44  1  0
 12 45  1  0
 15 46  1  0
 17 47  1  0
 17 48  1  0
 20 49  1  0
 22 50  1  0
 25 51  1  0
 26 52  1  0
 30 53  1  0
M  END
$$$$
[H]c1nc(N([H])c2c([H])c([H])c([H])c([H])c2OC([H])([H])[H])nc2c1C([H])([H])C([H])([H])c1c(C(=O)N([H])[H])nn(C([H])([H])[H])c1-2
     RDKit          3D

 44 47  0  0  0  0  0  0  0  0999 V2000
    6.4423   -1.0434    1.2081 C   0  0  0  0  0  0  0  0  0  0  0  0
    5.1234   -0.6296    1.0159 O   0  0  0  0  0  0  0  0  0  0  0  0
    4.4286   -0.8650   -0.1828 C   0  0  0  0  0  0  0  0  0  0  0  0
    5.0527   -1.5209   -1.2048 C   0  0  0  0  0  0  0  0  0  0  0  0
    4.3890   -1.7700   -2.4077 C   0  0  0  0  0  0  0  0  0  0  0  0
    3.0944   -1.3598   -2.5883 C   0  0  0  0  0  0  0  0  0  0  0  0
    2.4610   -0.6884   -1.5391 C   0  0  0  0  0  0  0  0  0  0  0  0
    3.1018   -0.4376   -0.3492 C   0  0  0  0  0  0  0  0  0  0  0  0
    2.5534    0.2709    0.7463 N   0  0  0  0  0  0  0  0  0  0  0  0
    1.2100    0.5916    0.9781 C   0  0  0  0  0  0  0  0  0  0  0  0
    0.9803    1.3432    2.1166 N   0  0  0  0  0  0  0  0  0  0  0  0
   -0.1989    1.7235    2.5456 C   0  0  0  0  0  0  0  0  0  0  0  0
   -1.3324    1.3384    1.7905 C   0  0  0  0  0  0  0  0  0  0  0  0
   -2.6495    1.7320    2.2733 C   0  0  0  0  0  0  0  0  0  0  0  0
   -3.8204    1.4580    1.4297 C   0  0  0  0  0  0  0  0  0  0  0  0
   -3.5427    0.6089    0.2528 C   0  0  0  0  0  0  0  0  0  0  0  0
   -4.4699    0.0813   -0.6656 C   0  0  0  0  0  0  0  0  0  0  0  0
   -3.7398   -0.5918   -1.5452 N   0  0  0  0  0  0  0  0  0  0  0  0
   -2.4376   -0.5260   -1.2489 N   0  0  0  0  0  0  0  0  0  0  0  0
   -1.3725   -1.1627   -1.9980 C   0  0  0  0  0  0  0  0  0  0  0  0
   -2.2907    0.2028   -0.1534 C   0  0  0  0  0  0  0  0  0  0  0  0
   -1.1206    0.5987    0.6679 C   0  0  0  0  0  0  0  0  0  0  0  0
    0.1276    0.2420    0.2841 N   0  0  0  0  0  0  0  0  0  0  0  0
   -5.8865    0.2723   -0.6075 C   0  0  0  0  0  0  0  0  0  0  0  0
   -6.5570    1.0280    0.3770 N   0  0  0  0  0  0  0  0  0  0  0  0
   -6.5879   -0.2839   -1.5149 O   0  0  0  0  0  0  0  0  0  0  0  0
    6.6373   -2.0812    0.8759 H   0  0  0  0  0  0  0  0  0  0  0  0
    7.1953   -0.3671    0.7187 H   0  0  0  0  0  0  0  0  0  0  0  0
    6.6556   -0.9472    2.3089 H   0  0  0  0  0  0  0  0  0  0  0  0
    6.0940   -1.8577   -1.0776 H   0  0  0  0  0  0  0  0  0  0  0  0
    4.9024   -2.2898   -3.1992 H   0  0  0  0  0  0  0  0  0  0  0  0
    2.5594   -1.5391   -3.5059 H   0  0  0  0  0  0  0  0  0  0  0  0
    1.4534   -0.3378   -1.6860 H   0  0  0  0  0  0  0  0  0  0  0  0
    3.2381    0.6189    1.5011 H   0  0  0  0  0  0  0  0  0  0  0  0
   -0.3871    2.3118    3.4347 H   0  0  0  0  0  0  0  0  0  0  0  0
   -2.8195    1.1783    3.2649 H   0  0  0  0  0  0  0  0  0  0  0  0
   -2.6253    2.8240    2.5960 H   0  0  0  0  0  0  0  0  0  0  0  0
   -4.6149    0.9370    2.0601 H   0  0  0  0  0  0  0  0  0  0  0  0
   -4.2981    2.4304    1.1114 H   0  0  0  0  0  0  0  0  0  0  0  0
   -0.9192   -0.4474   -2.7402 H   0  0  0  0  0  0  0  0  0  0  0  0
   -0.6145   -1.6388   -1.3568 H   0  0  0  0  0  0  0  0  0  0  0  0
   -1.7957   -1.9899   -2.6366 H   0  0  0  0  0  0  0  0  0  0  0  0
   -6.7470    2.0301    0.2650 H   0  0  0  0  0  0  0  0  0  0  0  0
   -6.8723    0.5530    1.2517 H   0  0  0  0  0  0  0  0  0  0  0  0
  1  2  1  0
  2  3  1  0
  3  4  2  0
  4  5  1  0
  5  6  2  0
  6  7  1  0
  7  8  2  0
  8  9  1  0
  9 10  1  0
 10 11  2  0
 11 12  1  0
 12 13  2  0
 13 14  1  0
 14 15  1  0
 15 16  1  0
 16 17  1  0
 17 18  2  0
 18 19  1  0
 19 20  1  0
 19 21  1  0
 21 22  1  0
 22 23  2  0
 17 24  1  0
 24 25  1  0
 24 26  2  0
  8  3  1  0
 23 10  1  0
 22 13  1  0
 21 16  2  0
  1 27  1  0
  1 28  1  0
  1 29  1  0
  4 30  1  0
  5 31  1  0
  6 32  1  0
  7 33  1  0
  9 34  1  0
 12 35  1  0
 14 36  1  0
 14 37  1  0
 15 38  1  0
 15 39  1  0
 20 40  1  0
 20 41  1  0
 20 42  1  0
 25 43  1  0
 25 44  1  0
M  END
$$$$
[H]c1nc([H])c(-c2c([H])c([H])c3c(nc([H])n3-c3sc(C(=O)N([H])[H])c(O[C@@]([H])(c4c([H])c([H])c([H])c([H])c4C(F)(F)F)C([H])([H])[H])c3[H])c2[H])c([H])c1[H]
     RDKit          3D

 55 59  0  0  0  0  0  0  0  0999 V2000
   -3.4352   -1.7036   -1.6933 C   0  0  0  0  0  0  0  0  0  0  0  0
   -3.6749   -0.7312   -0.4951 C   0  0  1  0  0  0  0  0  0  0  0  0
   -3.1072    0.4938   -0.7784 O   0  0  0  0  0  0  0  0  0  0  0  0
   -1.7660    0.8735   -0.5022 C   0  0  0  0  0  0  0  0  0  0  0  0
   -0.8664    0.0544    0.0730 C   0  0  0  0  0  0  0  0  0  0  0  0
    0.3965    0.5552    0.2820 C   0  0  0  0  0  0  0  0  0  0  0  0
    0.2802    2.1440   -0.3300 S   0  0  0  0  0  0  0  0  0  0  0  0
   -1.3425    2.1340   -0.8283 C   0  0  0  0  0  0  0  0  0  0  0  0
   -2.1302    3.2171   -1.4665 C   0  0  0  0  0  0  0  0  0  0  0  0
   -3.4757    3.0124   -1.8088 N   0  0  0  0  0  0  0  0  0  0  0  0
   -1.5246    4.3015   -1.6735 O   0  0  0  0  0  0  0  0  0  0  0  0
    1.5212   -0.1128    0.8736 N   0  0  0  0  0  0  0  0  0  0  0  0
    1.5109   -0.9540    1.8822 C   0  0  0  0  0  0  0  0  0  0  0  0
    2.7780   -1.3838    2.1635 N   0  0  0  0  0  0  0  0  0  0  0  0
    3.6070   -0.7794    1.2872 C   0  0  0  0  0  0  0  0  0  0  0  0
    4.9662   -0.8026    1.0658 C   0  0  0  0  0  0  0  0  0  0  0  0
    5.5568   -0.0495    0.0565 C   0  0  0  0  0  0  0  0  0  0  0  0
    4.7242    0.7167   -0.7080 C   0  0  0  0  0  0  0  0  0  0  0  0
    3.3530    0.7879   -0.5418 C   0  0  0  0  0  0  0  0  0  0  0  0
    2.7909    0.0228    0.4771 C   0  0  0  0  0  0  0  0  0  0  0  0
    6.9984   -0.0971   -0.1479 C   0  0  0  0  0  0  0  0  0  0  0  0
    7.5209    0.0698   -1.4125 C   0  0  0  0  0  0  0  0  0  0  0  0
    8.8990    0.0137   -1.5394 C   0  0  0  0  0  0  0  0  0  0  0  0
    9.6477   -0.2026   -0.4076 C   0  0  0  0  0  0  0  0  0  0  0  0
    9.1065   -0.3632    0.8233 N   0  0  0  0  0  0  0  0  0  0  0  0
    7.7822   -0.3113    0.9591 C   0  0  0  0  0  0  0  0  0  0  0  0
   -5.0535   -0.8097   -0.0480 C   0  0  0  0  0  0  0  0  0  0  0  0
   -5.9549   -1.5136   -0.8449 C   0  0  0  0  0  0  0  0  0  0  0  0
   -7.2765   -1.6963   -0.5483 C   0  0  0  0  0  0  0  0  0  0  0  0
   -7.7684   -1.1532    0.6159 C   0  0  0  0  0  0  0  0  0  0  0  0
   -6.8865   -0.4590    1.4030 C   0  0  0  0  0  0  0  0  0  0  0  0
   -5.5495   -0.2680    1.1128 C   0  0  0  0  0  0  0  0  0  0  0  0
   -4.7244    0.5133    2.0054 C   0  0  0  0  0  0  0  0  0  0  0  0
   -5.5154    0.8278    3.1417 F   0  0  0  0  0  0  0  0  0  0  0  0
   -3.6300   -0.1198    2.5441 F   0  0  0  0  0  0  0  0  0  0  0  0
   -4.4642    1.8067    1.5699 F   0  0  0  0  0  0  0  0  0  0  0  0
   -2.3150   -1.8120   -1.8103 H   0  0  0  0  0  0  0  0  0  0  0  0
   -3.8010   -2.7013   -1.5025 H   0  0  0  0  0  0  0  0  0  0  0  0
   -3.9043   -1.3016   -2.6039 H   0  0  0  0  0  0  0  0  0  0  0  0
   -3.0270   -1.2058    0.2802 H   0  0  0  0  0  0  0  0  0  0  0  0
   -1.0667   -0.9965    0.3892 H   0  0  0  0  0  0  0  0  0  0  0  0
   -4.2323    3.6340   -1.4715 H   0  0  0  0  0  0  0  0  0  0  0  0
   -3.7481    2.2087   -2.4250 H   0  0  0  0  0  0  0  0  0  0  0  0
    0.6306   -1.2709    2.4234 H   0  0  0  0  0  0  0  0  0  0  0  0
    5.5842   -1.4264    1.6964 H   0  0  0  0  0  0  0  0  0  0  0  0
    5.1603    1.3057   -1.4935 H   0  0  0  0  0  0  0  0  0  0  0  0
    2.7442    1.4038   -1.1694 H   0  0  0  0  0  0  0  0  0  0  0  0
    6.8955    0.2378   -2.2799 H   0  0  0  0  0  0  0  0  0  0  0  0
    9.3927    0.1351   -2.4989 H   0  0  0  0  0  0  0  0  0  0  0  0
   10.7208   -0.2520   -0.4729 H   0  0  0  0  0  0  0  0  0  0  0  0
    7.3402   -0.4362    1.9375 H   0  0  0  0  0  0  0  0  0  0  0  0
   -5.6216   -1.9629   -1.7861 H   0  0  0  0  0  0  0  0  0  0  0  0
   -7.9193   -2.2566   -1.2164 H   0  0  0  0  0  0  0  0  0  0  0  0
   -8.8109   -1.3011    0.8428 H   0  0  0  0  0  0  0  0  0  0  0  0
   -7.3156   -0.0356    2.3318 H   0  0  0  0  0  0  0  0  0  0  0  0
  1  2  1  0
  2  3  1  0
  3  4  1  0
  4  5  1  0
  5  6  2  0
  6  7  1  0
  7  8  1  0
  8  9  1  0
  9 10  1  0
  9 11  2  0
  6 12  1  0
 12 13  1  0
 13 14  2  0
 14 15  1  0
 15 16  2  0
 16 17  1  0
 17 18  2  0
 18 19  1  0
 19 20  2  0
 17 21  1  0
 21 22  2  0
 22 23  1  0
 23 24  2  0
 24 25  1  0
 25 26  2  0
  2 27  1  0
 27 28  2  0
 28 29  1  0
 29 30  2  0
 30 31  1  0
 31 32  2  0
 32 33  1  0
 33 34  1  0
 33 35  1  0
 33 36  1  0
  8  4  2  0
 20 12  1  0
 26 21  1  0
 32 27  1  0
 20 15  1  0
  1 37  1  0
  1 38  1  0
  1 39  1  0
  2 40  1  1
  5 41  1  0
 10 42  1  0
 10 43  1  0
 13 44  1  0
 16 45  1  0
 18 46  1  0
 19 47  1  0
 22 48  1  0
 23 49  1  0
 24 50  1  0
 26 51  1  0
 28 52  1  0
 29 53  1  0
 30 54  1  0
 31 55  1  0
M  END
$$$$
[H]c1nc(N([H])c2c([H])c(C([H])([H])C([H])([H])C([H])([H])N(C([H])([H])[H])C([H])([H])[H])c([H])c([H])c2Cl)nc2c1C([H])([H])C(=S)N([H])c1c([H])c(Cl)c([H])c([H])c1-2
     RDKit          3D

 54 57  0  0  0  0  0  0  0  0999 V2000
    4.9031    1.1126   -0.7344 C   0  0  0  0  0  0  0  0  0  0  0  0
    3.8455    0.2020   -0.3884 N   0  0  0  0  0  0  0  0  0  0  0  0
    3.1476   -0.2746   -1.5948 C   0  0  0  0  0  0  0  0  0  0  0  0
    4.2941   -0.9965    0.2874 C   0  0  0  0  0  0  0  0  0  0  0  0
    4.8292   -0.7990    1.6537 C   0  0  0  0  0  0  0  0  0  0  0  0
    3.8866   -0.2253    2.6465 C   0  0  0  0  0  0  0  0  0  0  0  0
    2.6692   -1.0251    2.9002 C   0  0  0  0  0  0  0  0  0  0  0  0
    2.6750   -2.0250    3.8425 C   0  0  0  0  0  0  0  0  0  0  0  0
    1.5416   -2.7699    4.0914 C   0  0  0  0  0  0  0  0  0  0  0  0
    0.3898   -2.5179    3.3962 C   0  0  0  0  0  0  0  0  0  0  0  0
   -1.0638   -3.4819    3.7237 Cl  0  0  0  0  0  0  0  0  0  0  0  0
    0.3244   -1.5035    2.4170 C   0  0  0  0  0  0  0  0  0  0  0  0
   -0.9004   -1.3085    1.7445 N   0  0  0  0  0  0  0  0  0  0  0  0
   -1.1841   -0.3492    0.7471 C   0  0  0  0  0  0  0  0  0  0  0  0
   -0.3504    0.5568    0.2501 N   0  0  0  0  0  0  0  0  0  0  0  0
   -0.5846    1.4733   -0.6870 C   0  0  0  0  0  0  0  0  0  0  0  0
   -1.8748    1.5010   -1.2327 C   0  0  0  0  0  0  0  0  0  0  0  0
   -1.9591    2.5522   -2.2326 C   0  0  0  0  0  0  0  0  0  0  0  0
   -3.2852    3.1283   -2.4373 C   0  0  0  0  0  0  0  0  0  0  0  0
   -3.2677    4.6858   -2.9558 S   0  0  0  0  0  0  0  0  0  0  0  0
   -4.6063    2.6262   -2.2832 N   0  0  0  0  0  0  0  0  0  0  0  0
   -4.9735    1.3198   -1.8469 C   0  0  0  0  0  0  0  0  0  0  0  0
   -6.2800    0.9910   -2.1665 C   0  0  0  0  0  0  0  0  0  0  0  0
   -6.7724   -0.2437   -1.8057 C   0  0  0  0  0  0  0  0  0  0  0  0
   -8.4474   -0.6704   -2.2123 Cl  0  0  0  0  0  0  0  0  0  0  0  0
   -5.9790   -1.1446   -1.1349 C   0  0  0  0  0  0  0  0  0  0  0  0
   -4.6854   -0.8168   -0.8195 C   0  0  0  0  0  0  0  0  0  0  0  0
   -4.1643    0.4330   -1.1765 C   0  0  0  0  0  0  0  0  0  0  0  0
   -2.7692    0.5785   -0.7453 C   0  0  0  0  0  0  0  0  0  0  0  0
   -2.4477   -0.3065    0.1981 N   0  0  0  0  0  0  0  0  0  0  0  0
    1.4653   -0.8066    2.2162 C   0  0  0  0  0  0  0  0  0  0  0  0
    4.4392    2.0496   -1.1067 H   0  0  0  0  0  0  0  0  0  0  0  0
    5.4444    0.6857   -1.6237 H   0  0  0  0  0  0  0  0  0  0  0  0
    5.5924    1.3089    0.1033 H   0  0  0  0  0  0  0  0  0  0  0  0
    3.7583   -1.0610   -2.0850 H   0  0  0  0  0  0  0  0  0  0  0  0
    2.1237   -0.6176   -1.3383 H   0  0  0  0  0  0  0  0  0  0  0  0
    3.0800    0.5858   -2.2900 H   0  0  0  0  0  0  0  0  0  0  0  0
    3.4065   -1.6960    0.2734 H   0  0  0  0  0  0  0  0  0  0  0  0
    5.1186   -1.4349   -0.3353 H   0  0  0  0  0  0  0  0  0  0  0  0
    5.2982   -1.7534    1.9814 H   0  0  0  0  0  0  0  0  0  0  0  0
    5.6883   -0.0799    1.5785 H   0  0  0  0  0  0  0  0  0  0  0  0
    4.4182   -0.0659    3.6133 H   0  0  0  0  0  0  0  0  0  0  0  0
    3.6140    0.7987    2.2979 H   0  0  0  0  0  0  0  0  0  0  0  0
    3.5866   -2.2456    4.4128 H   0  0  0  0  0  0  0  0  0  0  0  0
    1.5527   -3.5745    4.8517 H   0  0  0  0  0  0  0  0  0  0  0  0
   -1.7323   -1.9337    1.9846 H   0  0  0  0  0  0  0  0  0  0  0  0
    0.1599    2.1813   -1.0370 H   0  0  0  0  0  0  0  0  0  0  0  0
   -1.2815    3.3904   -1.8937 H   0  0  0  0  0  0  0  0  0  0  0  0
   -1.5097    2.2124   -3.1981 H   0  0  0  0  0  0  0  0  0  0  0  0
   -5.4102    3.2389   -2.4988 H   0  0  0  0  0  0  0  0  0  0  0  0
   -6.8664    1.7261   -2.6922 H   0  0  0  0  0  0  0  0  0  0  0  0
   -6.3606   -2.1090   -0.8526 H   0  0  0  0  0  0  0  0  0  0  0  0
   -4.0242   -1.4928   -0.2923 H   0  0  0  0  0  0  0  0  0  0  0  0
    1.5279   -0.0087    1.5007 H   0  0  0  0  0  0  0  0  0  0  0  0
  1  2  1  0
  2  3  1  0
  2  4  1  0
  4  5  1  0
  5  6  1  0
  6  7  1  0
  7  8  2  0
  8  9  1  0
  9 10  2  0
 10 11  1  0
 10 12  1  0
 12 13  1  0
 13 14  1  0
 14 15  2  0
 15 16  1  0
 16 17  2  0
 17 18  1  0
 18 19  1  0
 19 20  2  0
 19 21  1  0
 21 22  1  0
 22 23  2  0
 23 24  1  0
 24 25  1  0
 24 26  2  0
 26 27  1  0
 27 28  2  0
 28 29  1  0
 29 30  2  0
 12 31  2  0
 31  7  1  0
 30 14  1  0
 29 17  1  0
 28 22  1  0
  1 32  1  0
  1 33  1  0
  1 34  1  0
  3 35  1  0
  3 36  1  0
  3 37  1  0
  4 38  1  0
  4 39  1  0
  5 40  1  0
  5 41  1  0
  6 42  1  0
  6 43  1  0
  8 44  1  0
  9 45  1  0
 13 46  1  0
 16 47  1  0
 18 48  1  0
 18 49  1  0
 21 50  1  0
 23 51  1  0
 26 52  1  0
 27 53  1  0
 31 54  1  0
M  END
$$$$
[H]c1nc([H])c(-c2c([H])c([H])c3nc([H])n(-c4sc(C(=O)N([H])[H])c(O[C@@]([H])(c5c([H])c([H])c([H])c([H])c5C(F)(F)F)C([H])([H])[H])c4[H])c3c2[H])c([H])c1[H]
     RDKit          3D

 55 59  0  0  0  0  0  0  0  0999 V2000
   -3.8531   -1.1977   -1.9489 C   0  0  0  0  0  0  0  0  0  0  0  0
   -3.4104   -0.5172   -0.6149 C   0  0  1  0  0  0  0  0  0  0  0  0
   -2.7262    0.6488   -0.9153 O   0  0  0  0  0  0  0  0  0  0  0  0
   -1.3450    0.6779   -1.2787 C   0  0  0  0  0  0  0  0  0  0  0  0
   -0.5733   -0.4184   -1.3824 C   0  0  0  0  0  0  0  0  0  0  0  0
    0.7377   -0.2455   -1.7395 C   0  0  0  0  0  0  0  0  0  0  0  0
    0.8621    1.4406   -1.9219 S   0  0  0  0  0  0  0  0  0  0  0  0
   -0.7362    1.8838   -1.5447 C   0  0  0  0  0  0  0  0  0  0  0  0
   -1.3575    3.2277   -1.5021 C   0  0  0  0  0  0  0  0  0  0  0  0
   -2.7098    3.3506   -1.1604 N   0  0  0  0  0  0  0  0  0  0  0  0
   -0.6829    4.2371   -1.7677 O   0  0  0  0  0  0  0  0  0  0  0  0
    1.7414   -1.2776   -1.9101 N   0  0  0  0  0  0  0  0  0  0  0  0
    1.6634   -2.4046   -2.6393 C   0  0  0  0  0  0  0  0  0  0  0  0
    2.8165   -3.0904   -2.5282 N   0  0  0  0  0  0  0  0  0  0  0  0
    3.6289   -2.3863   -1.7196 C   0  0  0  0  0  0  0  0  0  0  0  0
    4.9106   -2.5850   -1.2494 C   0  0  0  0  0  0  0  0  0  0  0  0
    5.4582   -1.6356   -0.4124 C   0  0  0  0  0  0  0  0  0  0  0  0
    4.8141   -0.4939   -0.0077 C   0  0  0  0  0  0  0  0  0  0  0  0
    3.5182   -0.3062   -0.4912 C   0  0  0  0  0  0  0  0  0  0  0  0
    2.9378   -1.2358   -1.3313 C   0  0  0  0  0  0  0  0  0  0  0  0
    5.4207    0.4926    0.8792 C   0  0  0  0  0  0  0  0  0  0  0  0
    6.7854    0.6999    0.8373 C   0  0  0  0  0  0  0  0  0  0  0  0
    7.4044    1.6231    1.6590 C   0  0  0  0  0  0  0  0  0  0  0  0
    6.6535    2.3725    2.5574 C   0  0  0  0  0  0  0  0  0  0  0  0
    5.3260    2.1630    2.5902 N   0  0  0  0  0  0  0  0  0  0  0  0
    4.7085    1.2538    1.7825 C   0  0  0  0  0  0  0  0  0  0  0  0
   -4.5064   -0.4972    0.3310 C   0  0  0  0  0  0  0  0  0  0  0  0
   -5.7736   -0.8368   -0.1562 C   0  0  0  0  0  0  0  0  0  0  0  0
   -6.9065   -0.8831    0.6204 C   0  0  0  0  0  0  0  0  0  0  0  0
   -6.8163   -0.5848    1.9460 C   0  0  0  0  0  0  0  0  0  0  0  0
   -5.5782   -0.2505    2.4308 C   0  0  0  0  0  0  0  0  0  0  0  0
   -4.4306   -0.1985    1.6653 C   0  0  0  0  0  0  0  0  0  0  0  0
   -3.1942    0.2000    2.3011 C   0  0  0  0  0  0  0  0  0  0  0  0
   -2.6249    1.3801    1.9036 F   0  0  0  0  0  0  0  0  0  0  0  0
   -3.4102    0.3757    3.6601 F   0  0  0  0  0  0  0  0  0  0  0  0
   -2.2357   -0.8404    2.2893 F   0  0  0  0  0  0  0  0  0  0  0  0
   -2.9174   -1.4226   -2.5424 H   0  0  0  0  0  0  0  0  0  0  0  0
   -4.3386   -2.1509   -1.7876 H   0  0  0  0  0  0  0  0  0  0  0  0
   -4.5220   -0.5343   -2.5179 H   0  0  0  0  0  0  0  0  0  0  0  0
   -2.6368   -1.2366   -0.2706 H   0  0  0  0  0  0  0  0  0  0  0  0
   -0.9349   -1.4525   -1.1998 H   0  0  0  0  0  0  0  0  0  0  0  0
   -3.4923    2.9390   -1.7434 H   0  0  0  0  0  0  0  0  0  0  0  0
   -2.9499    3.8739   -0.2889 H   0  0  0  0  0  0  0  0  0  0  0  0
    0.7706   -2.6800   -3.2213 H   0  0  0  0  0  0  0  0  0  0  0  0
    5.4468   -3.4819   -1.5533 H   0  0  0  0  0  0  0  0  0  0  0  0
    6.4669   -1.8219   -0.0610 H   0  0  0  0  0  0  0  0  0  0  0  0
    2.9710    0.5745   -0.2023 H   0  0  0  0  0  0  0  0  0  0  0  0
    7.3718    0.1033    0.1240 H   0  0  0  0  0  0  0  0  0  0  0  0
    8.4819    1.7919    1.6311 H   0  0  0  0  0  0  0  0  0  0  0  0
    7.1525    3.0924    3.1955 H   0  0  0  0  0  0  0  0  0  0  0  0
    3.6505    1.1291    1.8515 H   0  0  0  0  0  0  0  0  0  0  0  0
   -5.9191   -1.0820   -1.1979 H   0  0  0  0  0  0  0  0  0  0  0  0
   -7.8773   -1.1482    0.2219 H   0  0  0  0  0  0  0  0  0  0  0  0
   -7.7015   -0.6199    2.5595 H   0  0  0  0  0  0  0  0  0  0  0  0
   -5.5387   -0.0151    3.5041 H   0  0  0  0  0  0  0  0  0  0  0  0
  1  2  1  0
  2  3  1  0
  3  4  1  0
  4  5  1  0
  5  6  2  0
  6  7  1  0
  7  8  1  0
  8  9  1  0
  9 10  1  0
  9 11  2  0
  6 12  1  0
 12 13  1  0
 13 14  2  0
 14 15  1  0
 15 16  2  0
 16 17  1  0
 17 18  2  0
 18 19  1  0
 19 20  2  0
 18 21  1  0
 21 22  2  0
 22 23  1  0
 23 24  2  0
 24 25  1  0
 25 26  2  0
  2 27  1  0
 27 28  2  0
 28 29  1  0
 29 30  2  0
 30 31  1  0
 31 32  2  0
 32 33  1  0
 33 34  1  0
 33 35  1  0
 33 36  1  0
  8  4  2  0
 20 12  1  0
 26 21  1  0
 32 27  1  0
 20 15  1  0
  1 37  1  0
  1 38  1  0
  1 39  1  0
  2 40  1  1
  5 41  1  0
 10 42  1  0
 10 43  1  0
 13 44  1  0
 16 45  1  0
 17 46  1  0
 19 47  1  0
 22 48  1  0
 23 49  1  0
 24 50  1  0
 26 51  1  0
 28 52  1  0
 29 53  1  0
 30 54  1  0
 31 55  1  0
M  END
$$$$
[H]c1nn(C([H])([H])[H])c([H])c1-c1c([H])c([H])c2nc([H])n(-c3sc(C(=O)N([H])[H])c(O[C@@]([H])(c4c([H])c([H])c([H])c([H])c4Cl)C([H])([H])[H])c3[H])c2c1[H]
     RDKit          3D

 53 57  0  0  0  0  0  0  0  0999 V2000
   -2.7580   -1.9702    1.5801 C   0  0  0  0  0  0  0  0  0  0  0  0
   -3.1073   -0.5591    1.0610 C   0  0  1  0  0  0  0  0  0  0  0  0
   -2.8496   -0.5704   -0.3116 O   0  0  0  0  0  0  0  0  0  0  0  0
   -1.8382    0.1449   -0.9789 C   0  0  0  0  0  0  0  0  0  0  0  0
   -0.9423    0.9525   -0.3955 C   0  0  0  0  0  0  0  0  0  0  0  0
   -0.0235    1.5769   -1.1942 C   0  0  0  0  0  0  0  0  0  0  0  0
   -0.4372    1.0140   -2.7519 S   0  0  0  0  0  0  0  0  0  0  0  0
   -1.7536    0.0119   -2.3504 C   0  0  0  0  0  0  0  0  0  0  0  0
   -2.5885   -0.7859   -3.2583 C   0  0  0  0  0  0  0  0  0  0  0  0
   -2.2840   -0.7890   -4.6379 N   0  0  0  0  0  0  0  0  0  0  0  0
   -3.5367   -1.4348   -2.7846 O   0  0  0  0  0  0  0  0  0  0  0  0
    1.0256    2.4990   -0.8184 N   0  0  0  0  0  0  0  0  0  0  0  0
    0.9118    3.8565   -0.8476 C   0  0  0  0  0  0  0  0  0  0  0  0
    2.0806    4.3871   -0.4541 N   0  0  0  0  0  0  0  0  0  0  0  0
    2.9144    3.3805   -0.1819 C   0  0  0  0  0  0  0  0  0  0  0  0
    4.2282    3.3166    0.2517 C   0  0  0  0  0  0  0  0  0  0  0  0
    4.8165    2.0867    0.4377 C   0  0  0  0  0  0  0  0  0  0  0  0
    4.1473    0.8914    0.2081 C   0  0  0  0  0  0  0  0  0  0  0  0
    2.8551    0.9527   -0.2189 C   0  0  0  0  0  0  0  0  0  0  0  0
    2.2447    2.1936   -0.4126 C   0  0  0  0  0  0  0  0  0  0  0  0
    4.8084   -0.3938    0.4131 C   0  0  0  0  0  0  0  0  0  0  0  0
    4.1682   -1.5403    0.8160 C   0  0  0  0  0  0  0  0  0  0  0  0
    5.0891   -2.5420    0.8968 N   0  0  0  0  0  0  0  0  0  0  0  0
    6.2838   -2.0641    0.5588 N   0  0  0  0  0  0  0  0  0  0  0  0
    7.5096   -2.8368    0.5250 C   0  0  0  0  0  0  0  0  0  0  0  0
    6.1309   -0.7445    0.2579 C   0  0  0  0  0  0  0  0  0  0  0  0
   -4.5706   -0.3939    1.2379 C   0  0  0  0  0  0  0  0  0  0  0  0
   -5.3825   -1.5071    1.4503 C   0  0  0  0  0  0  0  0  0  0  0  0
   -6.7582   -1.4099    1.5841 C   0  0  0  0  0  0  0  0  0  0  0  0
   -7.3806   -0.1936    1.5113 C   0  0  0  0  0  0  0  0  0  0  0  0
   -6.6107    0.9220    1.3033 C   0  0  0  0  0  0  0  0  0  0  0  0
   -5.2173    0.8145    1.1691 C   0  0  0  0  0  0  0  0  0  0  0  0
   -4.2770    2.2726    0.9227 Cl  0  0  0  0  0  0  0  0  0  0  0  0
   -3.2283   -2.1736    2.5609 H   0  0  0  0  0  0  0  0  0  0  0  0
   -1.6499   -1.9169    1.7934 H   0  0  0  0  0  0  0  0  0  0  0  0
   -3.0144   -2.7476    0.8632 H   0  0  0  0  0  0  0  0  0  0  0  0
   -2.5337    0.1955    1.6074 H   0  0  0  0  0  0  0  0  0  0  0  0
   -0.9388    1.1181    0.7120 H   0  0  0  0  0  0  0  0  0  0  0  0
   -2.9845   -0.7091   -5.4036 H   0  0  0  0  0  0  0  0  0  0  0  0
   -1.2801   -0.8737   -4.9842 H   0  0  0  0  0  0  0  0  0  0  0  0
    0.0082    4.3812   -1.1454 H   0  0  0  0  0  0  0  0  0  0  0  0
    4.7304    4.2657    0.4232 H   0  0  0  0  0  0  0  0  0  0  0  0
    5.8391    2.0377    0.7760 H   0  0  0  0  0  0  0  0  0  0  0  0
    2.2912    0.0545   -0.4119 H   0  0  0  0  0  0  0  0  0  0  0  0
    3.1280   -1.6838    1.0420 H   0  0  0  0  0  0  0  0  0  0  0  0
    7.5976   -3.4153   -0.4293 H   0  0  0  0  0  0  0  0  0  0  0  0
    8.3994   -2.1777    0.5771 H   0  0  0  0  0  0  0  0  0  0  0  0
    7.5912   -3.5410    1.3873 H   0  0  0  0  0  0  0  0  0  0  0  0
    6.9246   -0.0921   -0.0508 H   0  0  0  0  0  0  0  0  0  0  0  0
   -4.9119   -2.4727    1.5070 H   0  0  0  0  0  0  0  0  0  0  0  0
   -7.3681   -2.3046    1.7489 H   0  0  0  0  0  0  0  0  0  0  0  0
   -8.4578   -0.0830    1.6086 H   0  0  0  0  0  0  0  0  0  0  0  0
   -7.0401    1.9265    1.2301 H   0  0  0  0  0  0  0  0  0  0  0  0
  1  2  1  0
  2  3  1  0
  3  4  1  0
  4  5  1  0
  5  6  2  0
  6  7  1  0
  7  8  1  0
  8  9  1  0
  9 10  1  0
  9 11  2  0
  6 12  1  0
 12 13  1  0
 13 14  2  0
 14 15  1  0
 15 16  2  0
 16 17  1  0
 17 18  2  0
 18 19  1  0
 19 20  2  0
 18 21  1  0
 21 22  1  0
 22 23  2  0
 23 24  1  0
 24 25  1  0
 24 26  1  0
  2 27  1  0
 27 28  2  0
 28 29  1  0
 29 30  2  0
 30 31  1  0
 31 32  2  0
 32 33  1  0
  8  4  2  0
 20 12  1  0
 26 21  2  0
 32 27  1  0
 20 15  1  0
  1 34  1  0
  1 35  1  0
  1 36  1  0
  2 37  1  1
  5 38  1  0
 10 39  1  0
 10 40  1  0
 13 41  1  0
 16 42  1  0
 17 43  1  0
 19 44  1  0
 22 45  1  0
 25 46  1  0
 25 47  1  0
 25 48  1  0
 26 49  1  0
 28 50  1  0
 29 51  1  0
 30 52  1  0
 31 53  1  0
M  END
$$$$
[H]c1nc(N([H])c2c([H])c([H])c([H])c([H])c2C([H])([H])[H])nc2c1C([H])([H])C([H])([H])c1c(C(=O)N([H])[H])nn(C([H])([H])[H])c1-2
     RDKit          3D

 43 46  0  0  0  0  0  0  0  0999 V2000
   -4.2889   -0.4999    2.2307 C   0  0  0  0  0  0  0  0  0  0  0  0
   -4.7196   -0.3271    0.8339 C   0  0  0  0  0  0  0  0  0  0  0  0
   -6.0618   -0.3492    0.5309 C   0  0  0  0  0  0  0  0  0  0  0  0
   -6.4509   -0.1868   -0.7771 C   0  0  0  0  0  0  0  0  0  0  0  0
   -5.5063   -0.0064   -1.7559 C   0  0  0  0  0  0  0  0  0  0  0  0
   -4.1525    0.0127   -1.4278 C   0  0  0  0  0  0  0  0  0  0  0  0
   -3.7259   -0.1452   -0.1385 C   0  0  0  0  0  0  0  0  0  0  0  0
   -2.3906   -0.1357    0.2544 N   0  0  0  0  0  0  0  0  0  0  0  0
   -1.2389    0.0292   -0.5449 C   0  0  0  0  0  0  0  0  0  0  0  0
   -1.1794    0.2112   -1.8480 N   0  0  0  0  0  0  0  0  0  0  0  0
   -0.0735    0.3659   -2.5847 C   0  0  0  0  0  0  0  0  0  0  0  0
    1.1522    0.3334   -1.9177 C   0  0  0  0  0  0  0  0  0  0  0  0
    2.4044    0.5331   -2.6489 C   0  0  0  0  0  0  0  0  0  0  0  0
    3.6429    0.2891   -1.8826 C   0  0  0  0  0  0  0  0  0  0  0  0
    3.5571    0.1544   -0.4229 C   0  0  0  0  0  0  0  0  0  0  0  0
    4.5697    0.0703    0.5449 C   0  0  0  0  0  0  0  0  0  0  0  0
    3.9384   -0.0776    1.7167 N   0  0  0  0  0  0  0  0  0  0  0  0
    2.6290   -0.0893    1.5365 N   0  0  0  0  0  0  0  0  0  0  0  0
    1.5749   -0.2285    2.5360 C   0  0  0  0  0  0  0  0  0  0  0  0
    2.3698    0.0539    0.2189 C   0  0  0  0  0  0  0  0  0  0  0  0
    1.1296    0.1449   -0.5654 C   0  0  0  0  0  0  0  0  0  0  0  0
   -0.0131   -0.0002    0.0933 N   0  0  0  0  0  0  0  0  0  0  0  0
    6.0116    0.1357    0.2831 C   0  0  0  0  0  0  0  0  0  0  0  0
    6.9655    0.0438    1.3081 N   0  0  0  0  0  0  0  0  0  0  0  0
    6.4090    0.2790   -0.8997 O   0  0  0  0  0  0  0  0  0  0  0  0
   -5.1350   -0.7175    2.9132 H   0  0  0  0  0  0  0  0  0  0  0  0
   -3.5883   -1.3713    2.3501 H   0  0  0  0  0  0  0  0  0  0  0  0
   -3.6960    0.3873    2.5553 H   0  0  0  0  0  0  0  0  0  0  0  0
   -6.8300   -0.4894    1.2800 H   0  0  0  0  0  0  0  0  0  0  0  0
   -7.5053   -0.1982   -1.0586 H   0  0  0  0  0  0  0  0  0  0  0  0
   -5.8031    0.1251   -2.8093 H   0  0  0  0  0  0  0  0  0  0  0  0
   -3.4948    0.1586   -2.2556 H   0  0  0  0  0  0  0  0  0  0  0  0
   -2.2210   -0.2727    1.3096 H   0  0  0  0  0  0  0  0  0  0  0  0
   -0.1769    0.5068   -3.6455 H   0  0  0  0  0  0  0  0  0  0  0  0
    2.4331    1.6297   -3.0105 H   0  0  0  0  0  0  0  0  0  0  0  0
    2.4418   -0.1037   -3.5826 H   0  0  0  0  0  0  0  0  0  0  0  0
    4.4144    1.0924   -2.1054 H   0  0  0  0  0  0  0  0  0  0  0  0
    4.1349   -0.6415   -2.3205 H   0  0  0  0  0  0  0  0  0  0  0  0
    1.0155   -1.1836    2.3732 H   0  0  0  0  0  0  0  0  0  0  0  0
    0.8486    0.6320    2.4550 H   0  0  0  0  0  0  0  0  0  0  0  0
    1.9817   -0.1573    3.5650 H   0  0  0  0  0  0  0  0  0  0  0  0
    7.5998   -0.8014    1.3147 H   0  0  0  0  0  0  0  0  0  0  0  0
    7.0282    0.7939    2.0260 H   0  0  0  0  0  0  0  0  0  0  0  0
  1  2  1  0
  2  3  2  0
  3  4  1  0
  4  5  2  0
  5  6  1  0
  6  7  2  0
  7  8  1  0
  8  9  1  0
  9 10  2  0
 10 11  1  0
 11 12  2  0
 12 13  1  0
 13 14  1  0
 14 15  1  0
 15 16  1  0
 16 17  2  0
 17 18  1  0
 18 19  1  0
 18 20  1  0
 20 21  1  0
 21 22  2  0
 16 23  1  0
 23 24  1  0
 23 25  2  0
  7  2  1  0
 22  9  1  0
 21 12  1  0
 20 15  2  0
  1 26  1  0
  1 27  1  0
  1 28  1  0
  3 29  1  0
  4 30  1  0
  5 31  1  0
  6 32  1  0
  8 33  1  0
 11 34  1  0
 13 35  1  0
 13 36  1  0
 14 37  1  0
 14 38  1  0
 19 39  1  0
 19 40  1  0
 19 41  1  0
 24 42  1  0
 24 43  1  0
M  END
$$$$
[H]c1nc(N([H])c2c(C([H])([H])[H])nc([H])c(C([H])([H])C([H])([H])C([H])([H])N(C([H])([H])[H])C([H])([H])[H])c2[H])nc2c1C([H])([H])C(=S)N([H])c1c([H])c(Cl)c([H])c([H])c1-2
     RDKit          3D

 56 59  0  0  0  0  0  0  0  0999 V2000
   -6.4573    2.0646   -1.4052 C   0  0  0  0  0  0  0  0  0  0  0  0
   -5.6515    1.8234   -0.2303 N   0  0  0  0  0  0  0  0  0  0  0  0
   -6.3870    2.0871    0.9791 C   0  0  0  0  0  0  0  0  0  0  0  0
   -5.1539    0.4497   -0.1994 C   0  0  0  0  0  0  0  0  0  0  0  0
   -4.3291    0.2310    1.0194 C   0  0  0  0  0  0  0  0  0  0  0  0
   -3.8283   -1.1606    1.0970 C   0  0  0  0  0  0  0  0  0  0  0  0
   -2.9802   -1.5142   -0.0604 C   0  0  0  0  0  0  0  0  0  0  0  0
   -3.5032   -2.1223   -1.1701 C   0  0  0  0  0  0  0  0  0  0  0  0
   -2.6603   -2.4058   -2.1707 N   0  0  0  0  0  0  0  0  0  0  0  0
   -1.3454   -2.1234   -2.1318 C   0  0  0  0  0  0  0  0  0  0  0  0
   -0.4999   -2.4857   -3.3073 C   0  0  0  0  0  0  0  0  0  0  0  0
   -0.7393   -1.5047   -1.0357 C   0  0  0  0  0  0  0  0  0  0  0  0
    0.6249   -1.2485   -1.0763 N   0  0  0  0  0  0  0  0  0  0  0  0
    1.4578   -0.6452   -0.1148 C   0  0  0  0  0  0  0  0  0  0  0  0
    1.0833   -0.1884    1.0604 N   0  0  0  0  0  0  0  0  0  0  0  0
    1.9335    0.3776    1.9323 C   0  0  0  0  0  0  0  0  0  0  0  0
    3.2748    0.5240    1.6597 C   0  0  0  0  0  0  0  0  0  0  0  0
    4.0374    1.1621    2.7465 C   0  0  0  0  0  0  0  0  0  0  0  0
    5.1941    1.9466    2.3426 C   0  0  0  0  0  0  0  0  0  0  0  0
    5.3043    3.4349    3.0528 S   0  0  0  0  0  0  0  0  0  0  0  0
    6.2301    1.6085    1.4376 N   0  0  0  0  0  0  0  0  0  0  0  0
    6.1331    0.7497    0.3102 C   0  0  0  0  0  0  0  0  0  0  0  0
    7.3465    0.6422   -0.3672 C   0  0  0  0  0  0  0  0  0  0  0  0
    7.4380   -0.1401   -1.4782 C   0  0  0  0  0  0  0  0  0  0  0  0
    8.9534   -0.3109   -2.3740 Cl  0  0  0  0  0  0  0  0  0  0  0  0
    6.3557   -0.8295   -1.9491 C   0  0  0  0  0  0  0  0  0  0  0  0
    5.1514   -0.7180   -1.2703 C   0  0  0  0  0  0  0  0  0  0  0  0
    5.0243    0.0601   -0.1492 C   0  0  0  0  0  0  0  0  0  0  0  0
    3.6810    0.0410    0.4120 C   0  0  0  0  0  0  0  0  0  0  0  0
    2.7775   -0.5127   -0.4089 N   0  0  0  0  0  0  0  0  0  0  0  0
   -1.6043   -1.2124   -0.0060 C   0  0  0  0  0  0  0  0  0  0  0  0
   -5.8789    2.4786   -2.2485 H   0  0  0  0  0  0  0  0  0  0  0  0
   -6.9695    1.1351   -1.7405 H   0  0  0  0  0  0  0  0  0  0  0  0
   -7.2605    2.7821   -1.1269 H   0  0  0  0  0  0  0  0  0  0  0  0
   -7.1228    2.8977    0.7491 H   0  0  0  0  0  0  0  0  0  0  0  0
   -6.9312    1.1415    1.2384 H   0  0  0  0  0  0  0  0  0  0  0  0
   -5.7217    2.3262    1.8071 H   0  0  0  0  0  0  0  0  0  0  0  0
   -4.5501    0.2480   -1.1137 H   0  0  0  0  0  0  0  0  0  0  0  0
   -6.0413   -0.2083   -0.1598 H   0  0  0  0  0  0  0  0  0  0  0  0
   -5.0008    0.3932    1.9141 H   0  0  0  0  0  0  0  0  0  0  0  0
   -3.4503    0.9136    1.0851 H   0  0  0  0  0  0  0  0  0  0  0  0
   -3.2185   -1.2367    2.0510 H   0  0  0  0  0  0  0  0  0  0  0  0
   -4.6445   -1.9100    1.2484 H   0  0  0  0  0  0  0  0  0  0  0  0
   -4.5641   -2.3729   -1.2517 H   0  0  0  0  0  0  0  0  0  0  0  0
   -1.0874   -2.9733   -4.0832 H   0  0  0  0  0  0  0  0  0  0  0  0
    0.3079   -3.1937   -2.9655 H   0  0  0  0  0  0  0  0  0  0  0  0
   -0.0240   -1.5473   -3.6945 H   0  0  0  0  0  0  0  0  0  0  0  0
    1.1190   -1.5617   -1.9877 H   0  0  0  0  0  0  0  0  0  0  0  0
    1.6039    0.7524    2.9064 H   0  0  0  0  0  0  0  0  0  0  0  0
    4.3686    0.3214    3.4210 H   0  0  0  0  0  0  0  0  0  0  0  0
    3.3128    1.7736    3.3656 H   0  0  0  0  0  0  0  0  0  0  0  0
    7.1701    2.0412    1.6191 H   0  0  0  0  0  0  0  0  0  0  0  0
    8.1951    1.1801   -0.0015 H   0  0  0  0  0  0  0  0  0  0  0  0
    6.4471   -1.4557   -2.8464 H   0  0  0  0  0  0  0  0  0  0  0  0
    4.3079   -1.2655   -1.6534 H   0  0  0  0  0  0  0  0  0  0  0  0
   -1.2281   -0.7397    0.8703 H   0  0  0  0  0  0  0  0  0  0  0  0
  1  2  1  0
  2  3  1  0
  2  4  1  0
  4  5  1  0
  5  6  1  0
  6  7  1  0
  7  8  2  0
  8  9  1  0
  9 10  2  0
 10 11  1  0
 10 12  1  0
 12 13  1  0
 13 14  1  0
 14 15  2  0
 15 16  1  0
 16 17  2  0
 17 18  1  0
 18 19  1  0
 19 20  2  0
 19 21  1  0
 21 22  1  0
 22 23  2  0
 23 24  1  0
 24 25  1  0
 24 26  2  0
 26 27  1  0
 27 28  2  0
 28 29  1  0
 29 30  2  0
 12 31  2  0
 31  7  1  0
 30 14  1  0
 29 17  1  0
 28 22  1  0
  1 32  1  0
  1 33  1  0
  1 34  1  0
  3 35  1  0
  3 36  1  0
  3 37  1  0
  4 38  1  0
  4 39  1  0
  5 40  1  0
  5 41  1  0
  6 42  1  0
  6 43  1  0
  8 44  1  0
 11 45  1  0
 11 46  1  0
 11 47  1  0
 13 48  1  0
 16 49  1  0
 18 50  1  0
 18 51  1  0
 21 52  1  0
 23 53  1  0
 26 54  1  0
 27 55  1  0
 31 56  1  0
M  END
$$$$
[H]c1c([H])c([H])c([C@@]([H])(Oc2c(C(=O)N([H])[H])sc(-n3c([H])nc4c([H])c(OC([H])([H])[H])c(OC([H])([H])[H])c([H])c43)c2[H])C([H])([H])[H])c(Cl)c1[H]
     RDKit          3D

 51 54  0  0  0  0  0  0  0  0999 V2000
   -6.6759   -0.0916   -3.9330 C   0  0  0  0  0  0  0  0  0  0  0  0
   -6.0138   -0.9131   -2.9901 O   0  0  0  0  0  0  0  0  0  0  0  0
   -4.9392   -0.3832   -2.2491 C   0  0  0  0  0  0  0  0  0  0  0  0
   -4.5203    0.9145   -2.4209 C   0  0  0  0  0  0  0  0  0  0  0  0
   -3.4649    1.4272   -1.6900 C   0  0  0  0  0  0  0  0  0  0  0  0
   -2.8530    2.6474   -1.6545 N   0  0  0  0  0  0  0  0  0  0  0  0
   -1.8507    2.6132   -0.7390 C   0  0  0  0  0  0  0  0  0  0  0  0
   -1.8084    1.3894   -0.1845 N   0  0  0  0  0  0  0  0  0  0  0  0
   -0.9077    0.9182    0.8395 C   0  0  0  0  0  0  0  0  0  0  0  0
    0.3685    0.5669    0.6941 C   0  0  0  0  0  0  0  0  0  0  0  0
    1.0755    0.1355    1.8157 C   0  0  0  0  0  0  0  0  0  0  0  0
    2.3570   -0.2340    1.7494 O   0  0  0  0  0  0  0  0  0  0  0  0
    3.5832   -0.5878    1.6873 C   0  0  1  0  0  0  0  0  0  0  0  0
    3.8000   -1.9599    0.9828 C   0  0  0  0  0  0  0  0  0  0  0  0
    4.4436    0.3693    0.8881 C   0  0  0  0  0  0  0  0  0  0  0  0
    5.2339   -0.0228   -0.1508 C   0  0  0  0  0  0  0  0  0  0  0  0
    6.0084    0.8942   -0.8742 C   0  0  0  0  0  0  0  0  0  0  0  0
    5.9727    2.2265   -0.5275 C   0  0  0  0  0  0  0  0  0  0  0  0
    5.1868    2.6223    0.5082 C   0  0  0  0  0  0  0  0  0  0  0  0
    4.4265    1.7005    1.2122 C   0  0  0  0  0  0  0  0  0  0  0  0
    3.4610    2.3420    2.5265 Cl  0  0  0  0  0  0  0  0  0  0  0  0
    0.3155    0.1296    2.9855 C   0  0  0  0  0  0  0  0  0  0  0  0
   -1.2128    0.6849    2.4803 S   0  0  0  0  0  0  0  0  0  0  0  0
    0.7192   -0.2818    4.3517 C   0  0  0  0  0  0  0  0  0  0  0  0
    1.9919   -0.7882    4.5971 N   0  0  0  0  0  0  0  0  0  0  0  0
   -0.1127   -0.1605    5.2631 O   0  0  0  0  0  0  0  0  0  0  0  0
   -2.7843    0.6692   -0.7587 C   0  0  0  0  0  0  0  0  0  0  0  0
   -3.2199   -0.6330   -0.6003 C   0  0  0  0  0  0  0  0  0  0  0  0
   -4.2703   -1.1541   -1.3237 C   0  0  0  0  0  0  0  0  0  0  0  0
   -4.6655   -2.4870   -1.1191 O   0  0  0  0  0  0  0  0  0  0  0  0
   -3.9737   -3.2542   -0.1845 C   0  0  0  0  0  0  0  0  0  0  0  0
   -7.1506    0.8022   -3.5033 H   0  0  0  0  0  0  0  0  0  0  0  0
   -7.5104   -0.7171   -4.3643 H   0  0  0  0  0  0  0  0  0  0  0  0
   -6.0235    0.1199   -4.8149 H   0  0  0  0  0  0  0  0  0  0  0  0
   -5.0366    1.5476   -3.1528 H   0  0  0  0  0  0  0  0  0  0  0  0
   -1.1881    3.4280   -0.4834 H   0  0  0  0  0  0  0  0  0  0  0  0
    0.8812    0.6075   -0.2978 H   0  0  0  0  0  0  0  0  0  0  0  0
    4.1758   -0.6639    2.6695 H   0  0  0  0  0  0  0  0  0  0  0  0
    3.1602   -2.6638    1.5790 H   0  0  0  0  0  0  0  0  0  0  0  0
    4.8509   -2.2175    1.1556 H   0  0  0  0  0  0  0  0  0  0  0  0
    3.5442   -1.9306   -0.0664 H   0  0  0  0  0  0  0  0  0  0  0  0
    5.2837   -1.0572   -0.4367 H   0  0  0  0  0  0  0  0  0  0  0  0
    6.6110    0.5074   -1.6889 H   0  0  0  0  0  0  0  0  0  0  0  0
    6.5777    2.9429   -1.0941 H   0  0  0  0  0  0  0  0  0  0  0  0
    5.1616    3.6762    0.7803 H   0  0  0  0  0  0  0  0  0  0  0  0
    2.2247   -1.8129    4.4567 H   0  0  0  0  0  0  0  0  0  0  0  0
    2.7786   -0.1918    4.9319 H   0  0  0  0  0  0  0  0  0  0  0  0
   -2.6740   -1.2183    0.1376 H   0  0  0  0  0  0  0  0  0  0  0  0
   -2.9023   -3.4267   -0.4866 H   0  0  0  0  0  0  0  0  0  0  0  0
   -4.4756   -4.2482   -0.0409 H   0  0  0  0  0  0  0  0  0  0  0  0
   -3.9591   -2.7831    0.8232 H   0  0  0  0  0  0  0  0  0  0  0  0
  1  2  1  0
  2  3  1  0
  3  4  2  0
  4  5  1  0
  5  6  1  0
  6  7  2  0
  7  8  1  0
  8  9  1  0
  9 10  2  0
 10 11  1  0
 11 12  1  0
 12 13  1  0
 13 14  1  0
 13 15  1  0
 15 16  2  0
 16 17  1  0
 17 18  2  0
 18 19  1  0
 19 20  2  0
 20 21  1  0
 11 22  2  0
 22 23  1  0
 22 24  1  0
 24 25  1  0
 24 26  2  0
  8 27  1  0
 27 28  1  0
 28 29  2  0
 29 30  1  0
 30 31  1  0
 29  3  1  0
 27  5  2  0
 23  9  1  0
 20 15  1  0
  1 32  1  0
  1 33  1  0
  1 34  1  0
  4 35  1  0
  7 36  1  0
 10 37  1  0
 13 38  1  1
 14 39  1  0
 14 40  1  0
 14 41  1  0
 16 42  1  0
 17 43  1  0
 18 44  1  0
 19 45  1  0
 25 46  1  0
 25 47  1  0
 28 48  1  0
 31 49  1  0
 31 50  1  0
 31 51  1  0
M  END
$$$$
[H]c1nc(-c2c([H])c([H])c3c(nc([H])n3-c3sc(C(=O)N([H])[H])c(O[C@@]([H])(c4c([H])c([H])c([H])c([H])c4C(F)(F)F)C([H])([H])[H])c3[H])c2[H])c([H])c([H])c1[H]
     RDKit          3D

 55 59  0  0  0  0  0  0  0  0999 V2000
   -3.5098   -1.8889   -1.6644 C   0  0  0  0  0  0  0  0  0  0  0  0
   -3.7324   -0.9033   -0.4773 C   0  0  1  0  0  0  0  0  0  0  0  0
   -3.2071    0.3320   -0.7976 O   0  0  0  0  0  0  0  0  0  0  0  0
   -1.8755    0.7633   -0.5626 C   0  0  0  0  0  0  0  0  0  0  0  0
   -0.9399   -0.0167    0.0015 C   0  0  0  0  0  0  0  0  0  0  0  0
    0.3143    0.5190    0.1762 C   0  0  0  0  0  0  0  0  0  0  0  0
    0.1331    2.1000   -0.4594 S   0  0  0  0  0  0  0  0  0  0  0  0
   -1.4975    2.0331   -0.9180 C   0  0  0  0  0  0  0  0  0  0  0  0
   -2.3018    3.0963   -1.5501 C   0  0  0  0  0  0  0  0  0  0  0  0
   -3.6508    2.9141   -1.8897 N   0  0  0  0  0  0  0  0  0  0  0  0
   -1.7299    4.1935   -1.7799 O   0  0  0  0  0  0  0  0  0  0  0  0
    1.4681   -0.1037    0.7490 N   0  0  0  0  0  0  0  0  0  0  0  0
    1.5001   -0.9791    1.7340 C   0  0  0  0  0  0  0  0  0  0  0  0
    2.7881   -1.3445    1.9993 N   0  0  0  0  0  0  0  0  0  0  0  0
    3.5900   -0.6702    1.1461 C   0  0  0  0  0  0  0  0  0  0  0  0
    4.9592   -0.6600    0.9788 C   0  0  0  0  0  0  0  0  0  0  0  0
    5.5270    0.1413    0.0096 C   0  0  0  0  0  0  0  0  0  0  0  0
    4.6827    0.9055   -0.7571 C   0  0  0  0  0  0  0  0  0  0  0  0
    3.3092    0.9011   -0.5958 C   0  0  0  0  0  0  0  0  0  0  0  0
    2.7291    0.1120    0.3612 C   0  0  0  0  0  0  0  0  0  0  0  0
    6.9743    0.1508   -0.1666 C   0  0  0  0  0  0  0  0  0  0  0  0
    7.6157    0.9152   -1.0955 C   0  0  0  0  0  0  0  0  0  0  0  0
    9.0041    0.8532   -1.1837 C   0  0  0  0  0  0  0  0  0  0  0  0
    9.7149    0.0237   -0.3351 C   0  0  0  0  0  0  0  0  0  0  0  0
    9.0532   -0.7376    0.5928 C   0  0  0  0  0  0  0  0  0  0  0  0
    7.7183   -0.6418    0.6369 N   0  0  0  0  0  0  0  0  0  0  0  0
   -5.0995   -0.9913    0.0091 C   0  0  0  0  0  0  0  0  0  0  0  0
   -6.0073   -1.7098   -0.7471 C   0  0  0  0  0  0  0  0  0  0  0  0
   -7.3307   -1.8801   -0.4071 C   0  0  0  0  0  0  0  0  0  0  0  0
   -7.8070   -1.3093    0.7548 C   0  0  0  0  0  0  0  0  0  0  0  0
   -6.8991   -0.6002    1.4951 C   0  0  0  0  0  0  0  0  0  0  0  0
   -5.5713   -0.4207    1.1678 C   0  0  0  0  0  0  0  0  0  0  0  0
   -4.7169    0.3636    2.0295 C   0  0  0  0  0  0  0  0  0  0  0  0
   -3.5857   -0.3223    2.5004 F   0  0  0  0  0  0  0  0  0  0  0  0
   -5.4256    0.5097    3.2608 F   0  0  0  0  0  0  0  0  0  0  0  0
   -4.4953    1.6578    1.7084 F   0  0  0  0  0  0  0  0  0  0  0  0
   -4.0292   -1.5088   -2.5578 H   0  0  0  0  0  0  0  0  0  0  0  0
   -3.8444   -2.8925   -1.4479 H   0  0  0  0  0  0  0  0  0  0  0  0
   -2.3950   -1.9623   -1.8400 H   0  0  0  0  0  0  0  0  0  0  0  0
   -3.0628   -1.3481    0.2900 H   0  0  0  0  0  0  0  0  0  0  0  0
   -1.1009   -1.0686    0.3382 H   0  0  0  0  0  0  0  0  0  0  0  0
   -4.3537    3.6541   -1.6687 H   0  0  0  0  0  0  0  0  0  0  0  0
   -3.9894    2.0660   -2.3576 H   0  0  0  0  0  0  0  0  0  0  0  0
    0.6590   -1.3853    2.2891 H   0  0  0  0  0  0  0  0  0  0  0  0
    5.6023   -1.2665    1.5895 H   0  0  0  0  0  0  0  0  0  0  0  0
    5.0542    1.5527   -1.5298 H   0  0  0  0  0  0  0  0  0  0  0  0
    2.6623    1.5145   -1.2158 H   0  0  0  0  0  0  0  0  0  0  0  0
    7.0465    1.5628   -1.7556 H   0  0  0  0  0  0  0  0  0  0  0  0
    9.5080    1.4607   -1.9212 H   0  0  0  0  0  0  0  0  0  0  0  0
   10.7864   -0.0379   -0.3875 H   0  0  0  0  0  0  0  0  0  0  0  0
    9.5835   -1.4044    1.2803 H   0  0  0  0  0  0  0  0  0  0  0  0
   -5.6966   -2.1776   -1.6679 H   0  0  0  0  0  0  0  0  0  0  0  0
   -7.9830   -2.4627   -1.0603 H   0  0  0  0  0  0  0  0  0  0  0  0
   -8.8376   -1.4461    1.0136 H   0  0  0  0  0  0  0  0  0  0  0  0
   -7.3077   -0.1554    2.4176 H   0  0  0  0  0  0  0  0  0  0  0  0
  1  2  1  0
  2  3  1  0
  3  4  1  0
  4  5  1  0
  5  6  2  0
  6  7  1  0
  7  8  1  0
  8  9  1  0
  9 10  1  0
  9 11  2  0
  6 12  1  0
 12 13  1  0
 13 14  2  0
 14 15  1  0
 15 16  2  0
 16 17  1  0
 17 18  2  0
 18 19  1  0
 19 20  2  0
 17 21  1  0
 21 22  2  0
 22 23  1  0
 23 24  2  0
 24 25  1  0
 25 26  2  0
  2 27  1  0
 27 28  2  0
 28 29  1  0
 29 30  2  0
 30 31  1  0
 31 32  2  0
 32 33  1  0
 33 34  1  0
 33 35  1  0
 33 36  1  0
  8  4  2  0
 20 12  1  0
 26 21  1  0
 32 27  1  0
 20 15  1  0
  1 37  1  0
  1 38  1  0
  1 39  1  0
  2 40  1  1
  5 41  1  0
 10 42  1  0
 10 43  1  0
 13 44  1  0
 16 45  1  0
 18 46  1  0
 19 47  1  0
 22 48  1  0
 23 49  1  0
 24 50  1  0
 25 51  1  0
 28 52  1  0
 29 53  1  0
 30 54  1  0
 31 55  1  0
M  END
$$$$
[H]OC([H])([H])[C@@]1([H])C(=O)N([H])[C@@]([H])([C@]([H])(OP(=O)(O[H])O[H])C([H])([H])[H])C(=O)N([H])C([H])([H])C([H])([H])C([H])([H])C([H])([H])C([H])([H])C([H])([H])[n+]2c([H])c(n(C([H])([H])C([H])([H])C([H])([H])C([H])([H])C([H])([H])C([H])([H])C([H])([H])C([H])([H])c3c([H])c([H])c([H])c([H])c3[H])c2[H])C([H])([H])[C@]([H])(N([H])C(=O)[C@@]([H])(N([H])C(=O)[C@@]2([H])N(C(=O)C([H])([H])[H])C([H])([H])C([H])([H])C2([H])[H])C([H])([H])C([H])(C([H])([H])[H])C([H])([H])[H])C(=O)N1[H]
     RDKit          3D

140143  0  0  0  0  0  0  0  0999 V2000
   -7.1604   -2.9905   -0.0373 C   0  0  0  0  0  0  0  0  0  0  0  0
   -6.3815   -1.8248   -0.5825 C   0  0  0  0  0  0  0  0  0  0  0  0
   -6.3794   -1.8916   -2.1034 C   0  0  0  0  0  0  0  0  0  0  0  0
   -5.0489   -1.5824   -0.0099 C   0  0  0  0  0  0  0  0  0  0  0  0
   -4.0165   -2.6075   -0.1045 C   0  0  2  0  0  0  0  0  0  0  0  0
   -4.3381   -3.8375    0.5502 N   0  0  0  0  0  0  0  0  0  0  0  0
   -3.8306   -5.1102    0.1358 C   0  0  0  0  0  0  0  0  0  0  0  0
   -3.0635   -5.2363   -0.8526 O   0  0  0  0  0  0  0  0  0  0  0  0
   -4.1785   -6.3446    0.8645 C   0  0  2  0  0  0  0  0  0  0  0  0
   -4.0828   -7.6087    0.0932 C   0  0  0  0  0  0  0  0  0  0  0  0
   -5.5272   -8.0814   -0.0586 C   0  0  0  0  0  0  0  0  0  0  0  0
   -6.3530   -6.8811    0.4021 C   0  0  0  0  0  0  0  0  0  0  0  0
   -5.4938   -6.3542    1.4535 N   0  0  0  0  0  0  0  0  0  0  0  0
   -5.8794   -5.9742    2.7456 C   0  0  0  0  0  0  0  0  0  0  0  0
   -7.2983   -6.0254    3.1512 C   0  0  0  0  0  0  0  0  0  0  0  0
   -5.0557   -5.5744    3.6199 O   0  0  0  0  0  0  0  0  0  0  0  0
   -2.6787   -2.1830    0.4123 C   0  0  0  0  0  0  0  0  0  0  0  0
   -2.0664   -2.9406    1.2500 O   0  0  0  0  0  0  0  0  0  0  0  0
   -1.9847   -1.0032    0.0672 N   0  0  0  0  0  0  0  0  0  0  0  0
   -0.6608   -0.6985    0.5993 C   0  0  1  0  0  0  0  0  0  0  0  0
    0.3865   -0.9485   -0.4475 C   0  0  0  0  0  0  0  0  0  0  0  0
    1.3438    0.1682   -0.7070 C   0  0  0  0  0  0  0  0  0  0  0  0
    1.1346    1.3971   -1.2877 C   0  0  0  0  0  0  0  0  0  0  0  0
    2.3284    2.0076   -1.3344 N   0  0  0  0  0  0  0  0  0  0  0  0
    2.7095    3.3140   -1.8876 C   0  0  0  0  0  0  0  0  0  0  0  0
    2.1099    4.5183   -1.2666 C   0  0  0  0  0  0  0  0  0  0  0  0
    1.9306    5.6541   -2.2535 C   0  0  0  0  0  0  0  0  0  0  0  0
    1.9458    6.9989   -1.5735 C   0  0  0  0  0  0  0  0  0  0  0  0
    0.6043    7.3095   -0.9321 C   0  0  0  0  0  0  0  0  0  0  0  0
   -0.4359    7.6731   -1.9295 C   0  0  0  0  0  0  0  0  0  0  0  0
   -1.4068    6.6681   -2.2282 N   0  0  0  0  0  0  0  0  0  0  0  0
   -1.8867    5.5659   -1.5342 C   0  0  0  0  0  0  0  0  0  0  0  0
   -1.5332    4.3848   -2.0363 O   0  0  0  0  0  0  0  0  0  0  0  0
   -2.7244    5.4324   -0.3376 C   0  0  1  0  0  0  0  0  0  0  0  0
   -2.0463    4.9101    0.8344 N   0  0  0  0  0  0  0  0  0  0  0  0
   -2.2960    3.7467    1.5510 C   0  0  0  0  0  0  0  0  0  0  0  0
   -2.4952    3.8490    2.8203 O   0  0  0  0  0  0  0  0  0  0  0  0
   -2.3743    2.3278    1.0621 C   0  0  2  0  0  0  0  0  0  0  0  0
   -3.7902    1.8891    1.4969 C   0  0  0  0  0  0  0  0  0  0  0  0
   -4.7885    2.5712    0.8734 O   0  0  0  0  0  0  0  0  0  0  0  0
   -1.3944    1.5238    1.7621 N   0  0  0  0  0  0  0  0  0  0  0  0
   -0.5421    0.5197    1.3879 C   0  0  0  0  0  0  0  0  0  0  0  0
    0.6935    0.6814    1.8478 O   0  0  0  0  0  0  0  0  0  0  0  0
   -3.5105    6.6696   -0.0171 C   0  0  1  0  0  0  0  0  0  0  0  0
   -4.4899    6.3379    1.1652 C   0  0  0  0  0  0  0  0  0  0  0  0
   -2.7509    7.7039    0.5058 O   0  0  0  0  0  0  0  0  0  0  0  0
   -3.4204    9.2296    0.2171 P   0  0  0  0  0  0  0  0  0  0  0  0
   -4.1835    9.3568   -1.2622 O   0  0  0  0  0  0  0  0  0  0  0  0
   -2.1376   10.3555    0.3268 O   0  0  0  0  0  0  0  0  0  0  0  0
   -4.3353    9.5737    1.3905 O   0  0  0  0  0  0  0  0  0  0  0  0
    3.2836    1.1766   -0.7859 C   0  0  0  0  0  0  0  0  0  0  0  0
    2.6881    0.0497   -0.4001 N   0  0  0  0  0  0  0  0  0  0  0  0
    3.3637   -1.1027    0.2231 C   0  0  0  0  0  0  0  0  0  0  0  0
    3.8782   -2.0658   -0.8041 C   0  0  0  0  0  0  0  0  0  0  0  0
    4.5255   -3.2106   -0.0812 C   0  0  0  0  0  0  0  0  0  0  0  0
    5.6637   -2.8523    0.8033 C   0  0  0  0  0  0  0  0  0  0  0  0
    6.8366   -2.2014    0.1435 C   0  0  0  0  0  0  0  0  0  0  0  0
    7.4660   -3.0712   -0.9205 C   0  0  0  0  0  0  0  0  0  0  0  0
    7.9510   -4.3742   -0.3948 C   0  0  0  0  0  0  0  0  0  0  0  0
    9.0257   -4.3134    0.6377 C   0  0  0  0  0  0  0  0  0  0  0  0
   10.2945   -3.7255    0.2080 C   0  0  0  0  0  0  0  0  0  0  0  0
   10.6008   -2.4042    0.3054 C   0  0  0  0  0  0  0  0  0  0  0  0
   11.8260   -1.8812   -0.1041 C   0  0  0  0  0  0  0  0  0  0  0  0
   12.7807   -2.7114   -0.6313 C   0  0  0  0  0  0  0  0  0  0  0  0
   12.5019   -4.0601   -0.7447 C   0  0  0  0  0  0  0  0  0  0  0  0
   11.2819   -4.5493   -0.3320 C   0  0  0  0  0  0  0  0  0  0  0  0
   -7.1201   -2.9934    1.0547 H   0  0  0  0  0  0  0  0  0  0  0  0
   -8.2258   -2.9444   -0.3944 H   0  0  0  0  0  0  0  0  0  0  0  0
   -6.7550   -3.9165   -0.4482 H   0  0  0  0  0  0  0  0  0  0  0  0
   -7.0391   -0.9207   -0.3578 H   0  0  0  0  0  0  0  0  0  0  0  0
   -5.9067   -0.9577   -2.4535 H   0  0  0  0  0  0  0  0  0  0  0  0
   -7.4440   -1.8304   -2.4113 H   0  0  0  0  0  0  0  0  0  0  0  0
   -5.9584   -2.8167   -2.4883 H   0  0  0  0  0  0  0  0  0  0  0  0
   -5.2319   -1.2411    1.0688 H   0  0  0  0  0  0  0  0  0  0  0  0
   -4.6594   -0.6182   -0.4655 H   0  0  0  0  0  0  0  0  0  0  0  0
   -3.7852   -2.8656   -1.1801 H   0  0  0  0  0  0  0  0  0  0  0  0
   -4.9659   -3.8205    1.3744 H   0  0  0  0  0  0  0  0  0  0  0  0
   -3.4766   -6.4211    1.7826 H   0  0  0  0  0  0  0  0  0  0  0  0
   -3.6448   -7.4333   -0.8909 H   0  0  0  0  0  0  0  0  0  0  0  0
   -3.5078   -8.3665    0.6882 H   0  0  0  0  0  0  0  0  0  0  0  0
   -5.7661   -8.3481   -1.0867 H   0  0  0  0  0  0  0  0  0  0  0  0
   -5.7256   -8.9461    0.5944 H   0  0  0  0  0  0  0  0  0  0  0  0
   -6.3837   -6.1975   -0.4674 H   0  0  0  0  0  0  0  0  0  0  0  0
   -7.3127   -7.2265    0.7579 H   0  0  0  0  0  0  0  0  0  0  0  0
   -8.0032   -6.2314    2.3458 H   0  0  0  0  0  0  0  0  0  0  0  0
   -7.4734   -6.7799    3.9495 H   0  0  0  0  0  0  0  0  0  0  0  0
   -7.5690   -5.0086    3.5461 H   0  0  0  0  0  0  0  0  0  0  0  0
   -2.4227   -0.3259   -0.5816 H   0  0  0  0  0  0  0  0  0  0  0  0
   -0.5077   -1.6102    1.3193 H   0  0  0  0  0  0  0  0  0  0  0  0
   -0.0763   -1.3677   -1.3986 H   0  0  0  0  0  0  0  0  0  0  0  0
    0.9277   -1.8818   -0.1063 H   0  0  0  0  0  0  0  0  0  0  0  0
    0.1275    1.8257   -1.6539 H   0  0  0  0  0  0  0  0  0  0  0  0
    2.5749    3.3952   -2.9927 H   0  0  0  0  0  0  0  0  0  0  0  0
    3.8422    3.4713   -1.8196 H   0  0  0  0  0  0  0  0  0  0  0  0
    2.7174    4.8664   -0.3797 H   0  0  0  0  0  0  0  0  0  0  0  0
    1.1116    4.2655   -0.8623 H   0  0  0  0  0  0  0  0  0  0  0  0
    2.7433    5.6489   -3.0111 H   0  0  0  0  0  0  0  0  0  0  0  0
    0.9825    5.5741   -2.8181 H   0  0  0  0  0  0  0  0  0  0  0  0
    2.1774    7.7709   -2.3359 H   0  0  0  0  0  0  0  0  0  0  0  0
    2.7472    6.9793   -0.8024 H   0  0  0  0  0  0  0  0  0  0  0  0
    0.2533    6.5120   -0.2910 H   0  0  0  0  0  0  0  0  0  0  0  0
    0.7902    8.1986   -0.2695 H   0  0  0  0  0  0  0  0  0  0  0  0
    0.1225    7.9522   -2.9013 H   0  0  0  0  0  0  0  0  0  0  0  0
   -0.8838    8.6491   -1.6467 H   0  0  0  0  0  0  0  0  0  0  0  0
   -1.8437    6.7922   -3.2205 H   0  0  0  0  0  0  0  0  0  0  0  0
   -3.5671    4.6711   -0.6157 H   0  0  0  0  0  0  0  0  0  0  0  0
   -1.2533    5.5528    1.1689 H   0  0  0  0  0  0  0  0  0  0  0  0
   -2.3610    2.2398   -0.0274 H   0  0  0  0  0  0  0  0  0  0  0  0
   -3.9388    0.8247    1.4783 H   0  0  0  0  0  0  0  0  0  0  0  0
   -3.8096    2.1756    2.5912 H   0  0  0  0  0  0  0  0  0  0  0  0
   -5.5533    2.0008    0.6832 H   0  0  0  0  0  0  0  0  0  0  0  0
   -1.3412    1.7960    2.8183 H   0  0  0  0  0  0  0  0  0  0  0  0
   -4.2288    6.9847   -0.8031 H   0  0  0  0  0  0  0  0  0  0  0  0
   -5.1051    7.2585    1.2651 H   0  0  0  0  0  0  0  0  0  0  0  0
   -5.0736    5.4561    0.9051 H   0  0  0  0  0  0  0  0  0  0  0  0
   -3.8914    6.2676    2.0800 H   0  0  0  0  0  0  0  0  0  0  0  0
   -3.4782    9.5303   -1.9564 H   0  0  0  0  0  0  0  0  0  0  0  0
   -1.9770   10.8353   -0.5022 H   0  0  0  0  0  0  0  0  0  0  0  0
    4.3650    1.3831   -0.6710 H   0  0  0  0  0  0  0  0  0  0  0  0
    2.6414   -1.5452    0.9211 H   0  0  0  0  0  0  0  0  0  0  0  0
    4.1807   -0.6491    0.8358 H   0  0  0  0  0  0  0  0  0  0  0  0
    2.9717   -2.5016   -1.3146 H   0  0  0  0  0  0  0  0  0  0  0  0
    4.4828   -1.6154   -1.5833 H   0  0  0  0  0  0  0  0  0  0  0  0
    3.7291   -3.6447    0.5922 H   0  0  0  0  0  0  0  0  0  0  0  0
    4.7639   -4.0609   -0.7766 H   0  0  0  0  0  0  0  0  0  0  0  0
    5.9899   -3.7764    1.3234 H   0  0  0  0  0  0  0  0  0  0  0  0
    5.2968   -2.1723    1.5977 H   0  0  0  0  0  0  0  0  0  0  0  0
    7.5667   -1.9662    0.9140 H   0  0  0  0  0  0  0  0  0  0  0  0
    6.4987   -1.2394   -0.2869 H   0  0  0  0  0  0  0  0  0  0  0  0
    6.8478   -3.2149   -1.8020 H   0  0  0  0  0  0  0  0  0  0  0  0
    8.3773   -2.4971   -1.2729 H   0  0  0  0  0  0  0  0  0  0  0  0
    8.3418   -4.9484   -1.2870 H   0  0  0  0  0  0  0  0  0  0  0  0
    7.0861   -5.0108   -0.0551 H   0  0  0  0  0  0  0  0  0  0  0  0
    8.6737   -3.7937    1.5659 H   0  0  0  0  0  0  0  0  0  0  0  0
    9.1837   -5.3787    0.9934 H   0  0  0  0  0  0  0  0  0  0  0  0
    9.8925   -1.6963    0.7140 H   0  0  0  0  0  0  0  0  0  0  0  0
   12.0094   -0.8305   -0.0049 H   0  0  0  0  0  0  0  0  0  0  0  0
   13.7477   -2.3142   -0.9564 H   0  0  0  0  0  0  0  0  0  0  0  0
   13.2782   -4.6808   -1.1657 H   0  0  0  0  0  0  0  0  0  0  0  0
   11.0901   -5.6140   -0.4314 H   0  0  0  0  0  0  0  0  0  0  0  0
  1  2  1  0
  2  3  1  0
  2  4  1  0
  4  5  1  0
  5  6  1  0
  6  7  1  0
  7  8  2  0
  7  9  1  0
  9 10  1  0
 10 11  1  0
 11 12  1  0
 12 13  1  0
 13 14  1  0
 14 15  1  0
 14 16  2  0
  5 17  1  0
 17 18  2  0
 17 19  1  0
 19 20  1  0
 20 21  1  0
 21 22  1  0
 22 23  2  0
 23 24  1  0
 24 25  1  0
 25 26  1  0
 26 27  1  0
 27 28  1  0
 28 29  1  0
 29 30  1  0
 30 31  1  0
 31 32  1  0
 32 33  2  0
 32 34  1  0
 34 35  1  0
 35 36  1  0
 36 37  2  0
 36 38  1  0
 38 39  1  0
 39 40  1  0
 38 41  1  0
 41 42  1  0
 42 43  2  0
 34 44  1  0
 44 45  1  0
 44 46  1  0
 46 47  1  0
 47 48  1  0
 47 49  1  0
 47 50  2  0
 24 51  2  0
 51 52  1  0
 52 53  1  0
 53 54  1  0
 54 55  1  0
 55 56  1  0
 56 57  1  0
 57 58  1  0
 58 59  1  0
 59 60  1  0
 60 61  1  0
 61 62  2  0
 62 63  1  0
 63 64  2  0
 64 65  1  0
 65 66  2  0
 13  9  1  0
 42 20  1  0
 66 61  1  0
 52 22  1  0
  1 67  1  0
  1 68  1  0
  1 69  1  0
  2 70  1  0
  3 71  1  0
  3 72  1  0
  3 73  1  0
  4 74  1  0
  4 75  1  0
  5 76  1  6
  6 77  1  0
  9 78  1  1
 10 79  1  0
 10 80  1  0
 11 81  1  0
 11 82  1  0
 12 83  1  0
 12 84  1  0
 15 85  1  0
 15 86  1  0
 15 87  1  0
 19 88  1  0
 20 89  1  1
 21 90  1  0
 21 91  1  0
 23 92  1  0
 25 93  1  0
 25 94  1  0
 26 95  1  0
 26 96  1  0
 27 97  1  0
 27 98  1  0
 28 99  1  0
 28100  1  0
 29101  1  0
 29102  1  0
 30103  1  0
 30104  1  0
 31105  1  0
 34106  1  6
 35107  1  0
 38108  1  6
 39109  1  0
 39110  1  0
 40111  1  0
 41112  1  0
 44113  1  6
 45114  1  0
 45115  1  0
 45116  1  0
 48117  1  0
 49118  1  0
 51119  1  0
 53120  1  0
 53121  1  0
 54122  1  0
 54123  1  0
 55124  1  0
 55125  1  0
 56126  1  0
 56127  1  0
 57128  1  0
 57129  1  0
 58130  1  0
 58131  1  0
 59132  1  0
 59133  1  0
 60134  1  0
 60135  1  0
 62136  1  0
 63137  1  0
 64138  1  0
 65139  1  0
 66140  1  0
M  CHG  1  24   1
M  END
$$$$
[H]c1c([H])c([H])c([C@]([H])(Oc2c(C(=O)N([H])[H])sc(-n3c([H])nc4c([H])c(OC([H])([H])[H])c(OC([H])([H])[H])c([H])c43)c2[H])C([H])([H])[H])c(Cl)c1[H]
     RDKit          3D

 51 54  0  0  0  0  0  0  0  0999 V2000
   -7.2561    0.7546    1.4169 C   0  0  0  0  0  0  0  0  0  0  0  0
   -6.1240   -0.0956    1.4598 O   0  0  0  0  0  0  0  0  0  0  0  0
   -4.9987    0.2638    0.6992 C   0  0  0  0  0  0  0  0  0  0  0  0
   -4.9872    1.4058   -0.0685 C   0  0  0  0  0  0  0  0  0  0  0  0
   -3.8514    1.6997   -0.7902 C   0  0  0  0  0  0  0  0  0  0  0  0
   -3.5359    2.7334   -1.6264 N   0  0  0  0  0  0  0  0  0  0  0  0
   -2.2675    2.5488   -2.0903 C   0  0  0  0  0  0  0  0  0  0  0  0
   -1.7777    1.4287   -1.5692 N   0  0  0  0  0  0  0  0  0  0  0  0
   -0.4732    0.8356   -1.7778 C   0  0  0  0  0  0  0  0  0  0  0  0
    0.3942    0.3848   -0.8479 C   0  0  0  0  0  0  0  0  0  0  0  0
    1.5854   -0.1459   -1.2525 C   0  0  0  0  0  0  0  0  0  0  0  0
    2.5204   -0.6223   -0.4366 O   0  0  0  0  0  0  0  0  0  0  0  0
    3.4261   -1.0830    0.3412 C   0  0  2  0  0  0  0  0  0  0  0  0
    2.9126   -2.3656    1.0517 C   0  0  0  0  0  0  0  0  0  0  0  0
    3.9594   -0.1490    1.4043 C   0  0  0  0  0  0  0  0  0  0  0  0
    3.9026   -0.4991    2.7212 C   0  0  0  0  0  0  0  0  0  0  0  0
    4.3879    0.3471    3.7297 C   0  0  0  0  0  0  0  0  0  0  0  0
    4.9395    1.5660    3.4067 C   0  0  0  0  0  0  0  0  0  0  0  0
    4.9966    1.9184    2.0796 C   0  0  0  0  0  0  0  0  0  0  0  0
    4.5142    1.0737    1.0966 C   0  0  0  0  0  0  0  0  0  0  0  0
    4.6121    1.5747   -0.5881 Cl  0  0  0  0  0  0  0  0  0  0  0  0
    1.7623   -0.1548   -2.6436 C   0  0  0  0  0  0  0  0  0  0  0  0
    0.3478    0.5322   -3.2426 S   0  0  0  0  0  0  0  0  0  0  0  0
    2.8907   -0.6372   -3.4289 C   0  0  0  0  0  0  0  0  0  0  0  0
    2.8582   -0.5420   -4.8550 N   0  0  0  0  0  0  0  0  0  0  0  0
    3.9295   -1.1489   -2.9463 O   0  0  0  0  0  0  0  0  0  0  0  0
   -2.7136    0.8955   -0.7799 C   0  0  0  0  0  0  0  0  0  0  0  0
   -2.7563   -0.2436    0.0003 C   0  0  0  0  0  0  0  0  0  0  0  0
   -3.8838   -0.5495    0.7262 C   0  0  0  0  0  0  0  0  0  0  0  0
   -3.9220   -1.7089    1.5179 O   0  0  0  0  0  0  0  0  0  0  0  0
   -2.8071   -2.5705    1.5802 C   0  0  0  0  0  0  0  0  0  0  0  0
   -7.0712    1.7282    1.9143 H   0  0  0  0  0  0  0  0  0  0  0  0
   -8.1222    0.2093    1.8667 H   0  0  0  0  0  0  0  0  0  0  0  0
   -7.5175    0.9494    0.3522 H   0  0  0  0  0  0  0  0  0  0  0  0
   -5.8526    2.0430   -0.0931 H   0  0  0  0  0  0  0  0  0  0  0  0
   -1.7228    3.1951   -2.7740 H   0  0  0  0  0  0  0  0  0  0  0  0
    0.1274    0.4513    0.2315 H   0  0  0  0  0  0  0  0  0  0  0  0
    4.3985   -1.4651   -0.1317 H   0  0  0  0  0  0  0  0  0  0  0  0
    2.4926   -3.0406    0.2710 H   0  0  0  0  0  0  0  0  0  0  0  0
    3.7394   -2.8330    1.5939 H   0  0  0  0  0  0  0  0  0  0  0  0
    2.0964   -2.1408    1.7401 H   0  0  0  0  0  0  0  0  0  0  0  0
    3.4784   -1.4434    3.0133 H   0  0  0  0  0  0  0  0  0  0  0  0
    4.3205    0.0256    4.7623 H   0  0  0  0  0  0  0  0  0  0  0  0
    5.3228    2.2362    4.1937 H   0  0  0  0  0  0  0  0  0  0  0  0
    5.4227    2.8634    1.8088 H   0  0  0  0  0  0  0  0  0  0  0  0
    1.9796   -0.8324   -5.3424 H   0  0  0  0  0  0  0  0  0  0  0  0
    3.6823   -0.1947   -5.3924 H   0  0  0  0  0  0  0  0  0  0  0  0
   -1.8928   -0.8828    0.0276 H   0  0  0  0  0  0  0  0  0  0  0  0
   -2.6607   -3.1715    0.6799 H   0  0  0  0  0  0  0  0  0  0  0  0
   -2.8933   -3.2199    2.4945 H   0  0  0  0  0  0  0  0  0  0  0  0
   -1.9124   -1.9239    1.7813 H   0  0  0  0  0  0  0  0  0  0  0  0
  1  2  1  0
  2  3  1  0
  3  4  2  0
  4  5  1  0
  5  6  1  0
  6  7  2  0
  7  8  1  0
  8  9  1  0
  9 10  2  0
 10 11  1  0
 11 12  1  0
 12 13  1  0
 13 14  1  0
 13 15  1  0
 15 16  2  0
 16 17  1  0
 17 18  2  0
 18 19  1  0
 19 20  2  0
 20 21  1  0
 11 22  2  0
 22 23  1  0
 22 24  1  0
 24 25  1  0
 24 26  2  0
  8 27  1  0
 27 28  1  0
 28 29  2  0
 29 30  1  0
 30 31  1  0
 29  3  1  0
 27  5  2  0
 23  9  1  0
 20 15  1  0
  1 32  1  0
  1 33  1  0
  1 34  1  0
  4 35  1  0
  7 36  1  0
 10 37  1  0
 13 38  1  6
 14 39  1  0
 14 40  1  0
 14 41  1  0
 16 42  1  0
 17 43  1  0
 18 44  1  0
 19 45  1  0
 25 46  1  0
 25 47  1  0
 28 48  1  0
 31 49  1  0
 31 50  1  0
 31 51  1  0
M  END
$$$$
[H]c1nc(N([H])c2c([H])c([H])c(S(=O)(=O)N([H])[H])c([H])c2[H])nc2c1N(C([H])([H])[H])C(=O)[C@@]([H])(C([H])([H])C([H])([H])[H])N2C1([H])C([H])([H])C([H])([H])C([H])([H])C1([H])[H]
     RDKit          3D

 56 59  0  0  0  0  0  0  0  0999 V2000
   -2.5569   -3.3082   -0.0761 C   0  0  0  0  0  0  0  0  0  0  0  0
   -3.8053   -2.5076    0.0965 C   0  0  0  0  0  0  0  0  0  0  0  0
   -3.7859   -1.1253   -0.4327 C   0  0  1  0  0  0  0  0  0  0  0  0
   -2.7514   -0.2719    0.1754 N   0  0  0  0  0  0  0  0  0  0  0  0
   -3.0394    0.5317    1.3377 C   0  0  0  0  0  0  0  0  0  0  0  0
   -4.4116    1.1978    1.0903 C   0  0  0  0  0  0  0  0  0  0  0  0
   -4.3607    2.2393    2.2198 C   0  0  0  0  0  0  0  0  0  0  0  0
   -3.0238    2.8826    1.9925 C   0  0  0  0  0  0  0  0  0  0  0  0
   -2.1588    1.7640    1.4638 C   0  0  0  0  0  0  0  0  0  0  0  0
   -1.4169   -0.2354   -0.3513 C   0  0  0  0  0  0  0  0  0  0  0  0
   -0.3636    0.1170    0.3965 N   0  0  0  0  0  0  0  0  0  0  0  0
    0.9073    0.1341   -0.1058 C   0  0  0  0  0  0  0  0  0  0  0  0
    1.9693    0.5083    0.7592 N   0  0  0  0  0  0  0  0  0  0  0  0
    3.3306    0.6021    0.4588 C   0  0  0  0  0  0  0  0  0  0  0  0
    3.8911    0.6290   -0.7969 C   0  0  0  0  0  0  0  0  0  0  0  0
    5.2641    0.7023   -0.9934 C   0  0  0  0  0  0  0  0  0  0  0  0
    6.1387    0.7525    0.0632 C   0  0  0  0  0  0  0  0  0  0  0  0
    5.6103    0.7279    1.3277 C   0  0  0  0  0  0  0  0  0  0  0  0
    4.2553    0.6553    1.5106 C   0  0  0  0  0  0  0  0  0  0  0  0
    7.8692    0.8443   -0.2106 S   0  0  0  0  0  0  0  0  0  0  0  0
    8.5605   -0.7348   -0.3010 N   0  0  0  0  0  0  0  0  0  0  0  0
    8.1095    1.5496   -1.5037 O   0  0  0  0  0  0  0  0  0  0  0  0
    8.5363    1.5818    0.9181 O   0  0  0  0  0  0  0  0  0  0  0  0
    1.0233   -0.2228   -1.3853 N   0  0  0  0  0  0  0  0  0  0  0  0
    0.0269   -0.5877   -2.1988 C   0  0  0  0  0  0  0  0  0  0  0  0
   -1.2452   -0.6036   -1.6889 C   0  0  0  0  0  0  0  0  0  0  0  0
   -2.3292   -1.0041   -2.5062 N   0  0  0  0  0  0  0  0  0  0  0  0
   -2.0629   -1.3617   -3.8769 C   0  0  0  0  0  0  0  0  0  0  0  0
   -3.6518   -1.0336   -1.9261 C   0  0  0  0  0  0  0  0  0  0  0  0
   -4.6394   -0.9829   -2.6733 O   0  0  0  0  0  0  0  0  0  0  0  0
   -1.7144   -2.8256    0.4635 H   0  0  0  0  0  0  0  0  0  0  0  0
   -2.6641   -4.3327    0.3959 H   0  0  0  0  0  0  0  0  0  0  0  0
   -2.2763   -3.5007   -1.1058 H   0  0  0  0  0  0  0  0  0  0  0  0
   -4.6292   -3.1091   -0.3804 H   0  0  0  0  0  0  0  0  0  0  0  0
   -4.1235   -2.4437    1.1707 H   0  0  0  0  0  0  0  0  0  0  0  0
   -4.8011   -0.6897   -0.2322 H   0  0  0  0  0  0  0  0  0  0  0  0
   -3.1296   -0.0201    2.2759 H   0  0  0  0  0  0  0  0  0  0  0  0
   -4.4154    1.7588    0.1519 H   0  0  0  0  0  0  0  0  0  0  0  0
   -5.2430    0.5057    1.2574 H   0  0  0  0  0  0  0  0  0  0  0  0
   -5.2082    2.9532    2.1308 H   0  0  0  0  0  0  0  0  0  0  0  0
   -4.3481    1.7255    3.1994 H   0  0  0  0  0  0  0  0  0  0  0  0
   -2.6043    3.3245    2.9264 H   0  0  0  0  0  0  0  0  0  0  0  0
   -3.1349    3.6657    1.2045 H   0  0  0  0  0  0  0  0  0  0  0  0
   -1.3608    1.6071    2.2119 H   0  0  0  0  0  0  0  0  0  0  0  0
   -1.7928    2.1195    0.4732 H   0  0  0  0  0  0  0  0  0  0  0  0
    1.6865    0.7560    1.7678 H   0  0  0  0  0  0  0  0  0  0  0  0
    3.2791    0.6043   -1.6731 H   0  0  0  0  0  0  0  0  0  0  0  0
    5.6487    0.7199   -2.0209 H   0  0  0  0  0  0  0  0  0  0  0  0
    6.2951    0.7675    2.1666 H   0  0  0  0  0  0  0  0  0  0  0  0
    3.8247    0.6335    2.5248 H   0  0  0  0  0  0  0  0  0  0  0  0
    8.7460   -1.0169   -1.2894 H   0  0  0  0  0  0  0  0  0  0  0  0
    7.9574   -1.4249    0.2015 H   0  0  0  0  0  0  0  0  0  0  0  0
    0.1588   -0.8705   -3.2304 H   0  0  0  0  0  0  0  0  0  0  0  0
   -1.7051   -0.4614   -4.4511 H   0  0  0  0  0  0  0  0  0  0  0  0
   -1.3455   -2.2032   -3.9701 H   0  0  0  0  0  0  0  0  0  0  0  0
   -2.9893   -1.6825   -4.4047 H   0  0  0  0  0  0  0  0  0  0  0  0
  1  2  1  0
  2  3  1  0
  3  4  1  0
  4  5  1  0
  5  6  1  0
  6  7  1  0
  7  8  1  0
  8  9  1  0
  4 10  1  0
 10 11  2  0
 11 12  1  0
 12 13  1  0
 13 14  1  0
 14 15  2  0
 15 16  1  0
 16 17  2  0
 17 18  1  0
 18 19  2  0
 17 20  1  0
 20 21  1  0
 20 22  2  0
 20 23  2  0
 12 24  2  0
 24 25  1  0
 25 26  2  0
 26 27  1  0
 27 28  1  0
 27 29  1  0
 29 30  2  0
 29  3  1  0
  9  5  1  0
 26 10  1  0
 19 14  1  0
  1 31  1  0
  1 32  1  0
  1 33  1  0
  2 34  1  0
  2 35  1  0
  3 36  1  6
  5 37  1  0
  6 38  1  0
  6 39  1  0
  7 40  1  0
  7 41  1  0
  8 42  1  0
  8 43  1  0
  9 44  1  0
  9 45  1  0
 13 46  1  0
 15 47  1  0
 16 48  1  0
 18 49  1  0
 19 50  1  0
 21 51  1  0
 21 52  1  0
 25 53  1  0
 28 54  1  0
 28 55  1  0
 28 56  1  0
M  END
$$$$
[H]c1c([H])c([H])c([C@]([H])(Oc2c(C(=O)N([H])[H])sc(-n3c([H])nc4c([H])c([H])c(OC([H])([H])[H])c([H])c43)c2[H])C([H])([H])[H])c(Cl)c1[H]
     RDKit          3D

 47 50  0  0  0  0  0  0  0  0999 V2000
    5.2799   -3.7057   -0.9807 C   0  0  0  0  0  0  0  0  0  0  0  0
    4.3340   -2.7084   -0.7486 O   0  0  0  0  0  0  0  0  0  0  0  0
    4.5525   -1.4450   -0.2787 C   0  0  0  0  0  0  0  0  0  0  0  0
    5.7914   -0.9512    0.0298 C   0  0  0  0  0  0  0  0  0  0  0  0
    5.9555    0.3226    0.5072 C   0  0  0  0  0  0  0  0  0  0  0  0
    4.8607    1.1539    0.6931 C   0  0  0  0  0  0  0  0  0  0  0  0
    4.7627    2.3987    1.1387 N   0  0  0  0  0  0  0  0  0  0  0  0
    3.4864    2.7088    1.1138 C   0  0  0  0  0  0  0  0  0  0  0  0
    2.7328    1.6861    0.6591 N   0  0  0  0  0  0  0  0  0  0  0  0
    1.3121    1.7190    0.4453 C   0  0  0  0  0  0  0  0  0  0  0  0
    0.3316    0.9019    0.0017 C   0  0  0  0  0  0  0  0  0  0  0  0
   -0.9359    1.3567   -0.1101 C   0  0  0  0  0  0  0  0  0  0  0  0
   -1.9997    0.6431   -0.5661 O   0  0  0  0  0  0  0  0  0  0  0  0
   -2.5485   -0.4390   -1.1213 C   0  0  2  0  0  0  0  0  0  0  0  0
   -3.3903    0.0912   -2.3558 C   0  0  0  0  0  0  0  0  0  0  0  0
   -3.6219   -1.0708   -0.3196 C   0  0  0  0  0  0  0  0  0  0  0  0
   -4.6144   -0.3681    0.3140 C   0  0  0  0  0  0  0  0  0  0  0  0
   -5.5496   -0.9717    1.1578 C   0  0  0  0  0  0  0  0  0  0  0  0
   -5.5023   -2.3215    1.3796 C   0  0  0  0  0  0  0  0  0  0  0  0
   -4.5296   -3.0610    0.7628 C   0  0  0  0  0  0  0  0  0  0  0  0
   -3.6060   -2.4550   -0.0667 C   0  0  0  0  0  0  0  0  0  0  0  0
   -2.3910   -3.3865   -0.8860 Cl  0  0  0  0  0  0  0  0  0  0  0  0
   -1.1334    2.6993    0.2698 C   0  0  0  0  0  0  0  0  0  0  0  0
    0.4179    3.1630    0.7203 S   0  0  0  0  0  0  0  0  0  0  0  0
   -2.3699    3.5057    0.2122 C   0  0  0  0  0  0  0  0  0  0  0  0
   -2.3717    4.8019    0.7502 N   0  0  0  0  0  0  0  0  0  0  0  0
   -3.3854    3.0266   -0.3030 O   0  0  0  0  0  0  0  0  0  0  0  0
    3.5967    0.6717    0.3857 C   0  0  0  0  0  0  0  0  0  0  0  0
    3.4380   -0.6022   -0.0927 C   0  0  0  0  0  0  0  0  0  0  0  0
    6.3280   -3.4316   -0.7767 H   0  0  0  0  0  0  0  0  0  0  0  0
    5.1856   -4.1941   -1.9861 H   0  0  0  0  0  0  0  0  0  0  0  0
    5.0976   -4.5785   -0.2614 H   0  0  0  0  0  0  0  0  0  0  0  0
    6.6634   -1.5837   -0.1159 H   0  0  0  0  0  0  0  0  0  0  0  0
    6.9581    0.7223    0.7781 H   0  0  0  0  0  0  0  0  0  0  0  0
    2.9961    3.6657    1.3991 H   0  0  0  0  0  0  0  0  0  0  0  0
    0.5662   -0.1544   -0.2547 H   0  0  0  0  0  0  0  0  0  0  0  0
   -1.9067   -1.2139   -1.5233 H   0  0  0  0  0  0  0  0  0  0  0  0
   -3.8160   -0.8820   -2.7460 H   0  0  0  0  0  0  0  0  0  0  0  0
   -2.7487    0.6020   -3.0588 H   0  0  0  0  0  0  0  0  0  0  0  0
   -4.1721    0.6773   -1.9204 H   0  0  0  0  0  0  0  0  0  0  0  0
   -4.7378    0.6963    0.2278 H   0  0  0  0  0  0  0  0  0  0  0  0
   -6.3135   -0.3908    1.6900 H   0  0  0  0  0  0  0  0  0  0  0  0
   -6.2204   -2.8118    2.0445 H   0  0  0  0  0  0  0  0  0  0  0  0
   -4.5396   -4.1536    0.9285 H   0  0  0  0  0  0  0  0  0  0  0  0
   -2.6823    5.0567    1.7422 H   0  0  0  0  0  0  0  0  0  0  0  0
   -2.0560    5.5945    0.1749 H   0  0  0  0  0  0  0  0  0  0  0  0
    2.4957   -0.9844   -0.3276 H   0  0  0  0  0  0  0  0  0  0  0  0
  1  2  1  0
  2  3  1  0
  3  4  2  0
  4  5  1  0
  5  6  2  0
  6  7  1  0
  7  8  2  0
  8  9  1  0
  9 10  1  0
 10 11  2  0
 11 12  1  0
 12 13  1  0
 13 14  1  0
 14 15  1  0
 14 16  1  0
 16 17  2  0
 17 18  1  0
 18 19  2  0
 19 20  1  0
 20 21  2  0
 21 22  1  0
 12 23  2  0
 23 24  1  0
 23 25  1  0
 25 26  1  0
 25 27  2  0
  9 28  1  0
 28 29  2  0
 29  3  1  0
 28  6  1  0
 24 10  1  0
 21 16  1  0
  1 30  1  0
  1 31  1  0
  1 32  1  0
  4 33  1  0
  5 34  1  0
  8 35  1  0
 11 36  1  0
 14 37  1  6
 15 38  1  0
 15 39  1  0
 15 40  1  0
 17 41  1  0
 18 42  1  0
 19 43  1  0
 20 44  1  0
 26 45  1  0
 26 46  1  0
 29 47  1  0
M  END
$$$$
[H]c1nc(N([H])c2c([H])c([H])c([H])c([H])c2F)nc2c1C([H])([H])C([H])([H])c1c(C(=O)N([H])[H])nn(C([H])([H])[H])c1-2
     RDKit          3D

 40 43  0  0  0  0  0  0  0  0999 V2000
   -1.7564    2.6535   -0.3765 C   0  0  0  0  0  0  0  0  0  0  0  0
   -2.5779    1.4795   -0.1450 N   0  0  0  0  0  0  0  0  0  0  0  0
   -3.8994    1.4353   -0.1331 N   0  0  0  0  0  0  0  0  0  0  0  0
   -4.3573    0.2062    0.1083 C   0  0  0  0  0  0  0  0  0  0  0  0
   -5.7423   -0.2619    0.2033 C   0  0  0  0  0  0  0  0  0  0  0  0
   -6.7646    0.7101    0.0158 N   0  0  0  0  0  0  0  0  0  0  0  0
   -6.0562   -1.4343    0.4333 O   0  0  0  0  0  0  0  0  0  0  0  0
   -3.2009   -0.5865    0.2605 C   0  0  0  0  0  0  0  0  0  0  0  0
   -3.0938   -2.0097    0.5351 C   0  0  0  0  0  0  0  0  0  0  0  0
   -1.7564   -2.6178    0.6702 C   0  0  0  0  0  0  0  0  0  0  0  0
   -0.6218   -1.6926    0.4780 C   0  0  0  0  0  0  0  0  0  0  0  0
    0.6727   -2.1929    0.5721 C   0  0  0  0  0  0  0  0  0  0  0  0
    1.6888   -1.3469    0.4001 N   0  0  0  0  0  0  0  0  0  0  0  0
    1.5857   -0.0530    0.1437 C   0  0  0  0  0  0  0  0  0  0  0  0
    2.6254    0.8797   -0.0455 N   0  0  0  0  0  0  0  0  0  0  0  0
    4.0104    0.6636   -0.0081 C   0  0  0  0  0  0  0  0  0  0  0  0
    4.6476   -0.5268    0.2257 C   0  0  0  0  0  0  0  0  0  0  0  0
    6.0479   -0.6299    0.2406 C   0  0  0  0  0  0  0  0  0  0  0  0
    6.8485    0.4505    0.0229 C   0  0  0  0  0  0  0  0  0  0  0  0
    6.2256    1.6543   -0.2136 C   0  0  0  0  0  0  0  0  0  0  0  0
    4.8589    1.7567   -0.2285 C   0  0  0  0  0  0  0  0  0  0  0  0
    4.3071    2.9859   -0.4703 F   0  0  0  0  0  0  0  0  0  0  0  0
    0.3031    0.4230    0.0543 N   0  0  0  0  0  0  0  0  0  0  0  0
   -0.7795   -0.3436    0.2107 C   0  0  0  0  0  0  0  0  0  0  0  0
   -2.1174    0.2231    0.0997 C   0  0  0  0  0  0  0  0  0  0  0  0
   -2.3874    3.3907   -0.9151 H   0  0  0  0  0  0  0  0  0  0  0  0
   -0.9096    2.4259   -1.0564 H   0  0  0  0  0  0  0  0  0  0  0  0
   -1.3768    3.0830    0.5944 H   0  0  0  0  0  0  0  0  0  0  0  0
   -7.6493    0.7381    0.5630 H   0  0  0  0  0  0  0  0  0  0  0  0
   -6.6113    1.4370   -0.7172 H   0  0  0  0  0  0  0  0  0  0  0  0
   -3.6366   -2.5344   -0.3250 H   0  0  0  0  0  0  0  0  0  0  0  0
   -3.7411   -2.2996    1.4167 H   0  0  0  0  0  0  0  0  0  0  0  0
   -1.6678   -3.4648   -0.0692 H   0  0  0  0  0  0  0  0  0  0  0  0
   -1.6747   -3.1472    1.6648 H   0  0  0  0  0  0  0  0  0  0  0  0
    0.8802   -3.2239    0.7759 H   0  0  0  0  0  0  0  0  0  0  0  0
    2.3162    1.8856   -0.2439 H   0  0  0  0  0  0  0  0  0  0  0  0
    4.0783   -1.4154    0.4044 H   0  0  0  0  0  0  0  0  0  0  0  0
    6.4828   -1.5968    0.4309 H   0  0  0  0  0  0  0  0  0  0  0  0
    7.9322    0.3725    0.0341 H   0  0  0  0  0  0  0  0  0  0  0  0
    6.8669    2.5236   -0.3887 H   0  0  0  0  0  0  0  0  0  0  0  0
  1  2  1  0
  2  3  1  0
  3  4  2  0
  4  5  1  0
  5  6  1  0
  5  7  2  0
  4  8  1  0
  8  9  1  0
  9 10  1  0
 10 11  1  0
 11 12  2  0
 12 13  1  0
 13 14  2  0
 14 15  1  0
 15 16  1  0
 16 17  2  0
 17 18  1  0
 18 19  2  0
 19 20  1  0
 20 21  2  0
 21 22  1  0
 14 23  1  0
 23 24  2  0
 24 25  1  0
 25  2  1  0
 25  8  2  0
 24 11  1  0
 21 16  1  0
  1 26  1  0
  1 27  1  0
  1 28  1  0
  6 29  1  0
  6 30  1  0
  9 31  1  0
  9 32  1  0
 10 33  1  0
 10 34  1  0
 12 35  1  0
 15 36  1  0
 17 37  1  0
 18 38  1  0
 19 39  1  0
 20 40  1  0
M  END
$$$$
[H]c1c([H])c([H])c([C@]([H])(Oc2c(C(=O)N([H])[H])sc(-n3c([H])nc4c([H])c([H])c(OC([H])([H])[H])c([H])c43)c2[H])C([H])([H])[H])c(C(F)(F)F)c1[H]
     RDKit          3D

 50 53  0  0  0  0  0  0  0  0999 V2000
    7.3936    1.8877   -1.5516 C   0  0  0  0  0  0  0  0  0  0  0  0
    6.0677    1.3791   -1.6712 O   0  0  0  0  0  0  0  0  0  0  0  0
    5.5618    0.6089   -0.6112 C   0  0  0  0  0  0  0  0  0  0  0  0
    6.3426    0.3688    0.4862 C   0  0  0  0  0  0  0  0  0  0  0  0
    5.9147   -0.3757    1.5555 C   0  0  0  0  0  0  0  0  0  0  0  0
    4.6517   -0.8962    1.5149 C   0  0  0  0  0  0  0  0  0  0  0  0
    3.9365   -1.6535    2.3851 N   0  0  0  0  0  0  0  0  0  0  0  0
    2.7378   -1.8921    1.8675 C   0  0  0  0  0  0  0  0  0  0  0  0
    2.6581   -1.2780    0.6202 N   0  0  0  0  0  0  0  0  0  0  0  0
    1.4598   -1.4392   -0.1186 C   0  0  0  0  0  0  0  0  0  0  0  0
    0.2716   -0.7096    0.0342 C   0  0  0  0  0  0  0  0  0  0  0  0
   -0.8304   -1.1417   -0.6068 C   0  0  0  0  0  0  0  0  0  0  0  0
   -2.1346   -0.5564   -0.5707 O   0  0  0  0  0  0  0  0  0  0  0  0
   -2.4619    0.6071   -0.0098 C   0  0  2  0  0  0  0  0  0  0  0  0
   -1.8714    0.9796    1.3840 C   0  0  0  0  0  0  0  0  0  0  0  0
   -3.7501    1.2847   -0.1034 C   0  0  0  0  0  0  0  0  0  0  0  0
   -3.7582    2.7111   -0.2550 C   0  0  0  0  0  0  0  0  0  0  0  0
   -4.9295    3.4168   -0.3210 C   0  0  0  0  0  0  0  0  0  0  0  0
   -6.1112    2.7295   -0.2384 C   0  0  0  0  0  0  0  0  0  0  0  0
   -6.1254    1.3696   -0.0961 C   0  0  0  0  0  0  0  0  0  0  0  0
   -4.9319    0.6250   -0.0282 C   0  0  0  0  0  0  0  0  0  0  0  0
   -5.0099   -0.8394    0.0812 C   0  0  0  0  0  0  0  0  0  0  0  0
   -4.2662   -1.4380    1.0527 F   0  0  0  0  0  0  0  0  0  0  0  0
   -6.3266   -1.0176    0.7169 F   0  0  0  0  0  0  0  0  0  0  0  0
   -5.2399   -1.4976   -1.0853 F   0  0  0  0  0  0  0  0  0  0  0  0
   -0.6837   -2.2703   -1.3752 C   0  0  0  0  0  0  0  0  0  0  0  0
    0.9879   -2.6816   -1.1713 S   0  0  0  0  0  0  0  0  0  0  0  0
   -1.6265   -3.0893   -2.1523 C   0  0  0  0  0  0  0  0  0  0  0  0
   -2.5949   -3.8239   -1.4597 N   0  0  0  0  0  0  0  0  0  0  0  0
   -1.5129   -3.0921   -3.4046 O   0  0  0  0  0  0  0  0  0  0  0  0
    3.8041   -0.6860    0.4221 C   0  0  0  0  0  0  0  0  0  0  0  0
    4.2924    0.0810   -0.6422 C   0  0  0  0  0  0  0  0  0  0  0  0
    7.4148    2.5277   -0.6469 H   0  0  0  0  0  0  0  0  0  0  0  0
    8.1021    1.0513   -1.3684 H   0  0  0  0  0  0  0  0  0  0  0  0
    7.6838    2.3798   -2.4890 H   0  0  0  0  0  0  0  0  0  0  0  0
    7.3628    0.7706    0.5554 H   0  0  0  0  0  0  0  0  0  0  0  0
    6.5243   -0.5806    2.4422 H   0  0  0  0  0  0  0  0  0  0  0  0
    1.9527   -2.4617    2.3435 H   0  0  0  0  0  0  0  0  0  0  0  0
    0.3356    0.2190    0.6521 H   0  0  0  0  0  0  0  0  0  0  0  0
   -1.7322    1.3369   -0.6272 H   0  0  0  0  0  0  0  0  0  0  0  0
   -1.4864    0.0916    1.8940 H   0  0  0  0  0  0  0  0  0  0  0  0
   -1.1887    1.7937    1.3877 H   0  0  0  0  0  0  0  0  0  0  0  0
   -2.7704    1.3485    2.0135 H   0  0  0  0  0  0  0  0  0  0  0  0
   -2.7967    3.2073   -0.3303 H   0  0  0  0  0  0  0  0  0  0  0  0
   -4.8992    4.5179   -0.4457 H   0  0  0  0  0  0  0  0  0  0  0  0
   -7.0290    3.3173   -0.2862 H   0  0  0  0  0  0  0  0  0  0  0  0
   -7.0813    0.8541   -0.0303 H   0  0  0  0  0  0  0  0  0  0  0  0
   -2.5882   -4.8921   -1.4569 H   0  0  0  0  0  0  0  0  0  0  0  0
   -3.3357   -3.3802   -0.9249 H   0  0  0  0  0  0  0  0  0  0  0  0
    3.6163    0.2286   -1.4661 H   0  0  0  0  0  0  0  0  0  0  0  0
  1  2  1  0
  2  3  1  0
  3  4  2  0
  4  5  1  0
  5  6  2  0
  6  7  1  0
  7  8  2  0
  8  9  1  0
  9 10  1  0
 10 11  2  0
 11 12  1  0
 12 13  1  0
 13 14  1  0
 14 15  1  0
 14 16  1  0
 16 17  2  0
 17 18  1  0
 18 19  2  0
 19 20  1  0
 20 21  2  0
 21 22  1  0
 22 23  1  0
 22 24  1  0
 22 25  1  0
 12 26  2  0
 26 27  1  0
 26 28  1  0
 28 29  1  0
 28 30  2  0
  9 31  1  0
 31 32  2  0
 32  3  1  0
 31  6  1  0
 27 10  1  0
 21 16  1  0
  1 33  1  0
  1 34  1  0
  1 35  1  0
  4 36  1  0
  5 37  1  0
  8 38  1  0
 11 39  1  0
 14 40  1  6
 15 41  1  0
 15 42  1  0
 15 43  1  0
 17 44  1  0
 18 45  1  0
 19 46  1  0
 20 47  1  0
 29 48  1  0
 29 49  1  0
 32 50  1  0
M  END
$$$$
[H]c1nc(N([H])c2c([H])c([H])c([H])c([H])c2OC(F)(F)F)nc2c1C([H])([H])C([H])([H])c1c(C(=O)N([H])[H])nn(C([H])([H])[H])c1-2
     RDKit          3D

 44 47  0  0  0  0  0  0  0  0999 V2000
    1.5639   -0.1295   -2.8088 C   0  0  0  0  0  0  0  0  0  0  0  0
    2.6399    0.0616   -1.8583 N   0  0  0  0  0  0  0  0  0  0  0  0
    3.9298    0.2091   -2.1259 N   0  0  0  0  0  0  0  0  0  0  0  0
    4.6282    0.3636   -0.9837 C   0  0  0  0  0  0  0  0  0  0  0  0
    6.0648    0.5525   -0.8622 C   0  0  0  0  0  0  0  0  0  0  0  0
    6.6642    0.7041    0.4133 N   0  0  0  0  0  0  0  0  0  0  0  0
    6.7663    0.5800   -1.8912 O   0  0  0  0  0  0  0  0  0  0  0  0
    3.7181    0.3085    0.0501 C   0  0  0  0  0  0  0  0  0  0  0  0
    3.9568    0.4208    1.4928 C   0  0  0  0  0  0  0  0  0  0  0  0
    2.7635    0.3279    2.3621 C   0  0  0  0  0  0  0  0  0  0  0  0
    1.4762    0.1226    1.6685 C   0  0  0  0  0  0  0  0  0  0  0  0
    0.3202    0.0222    2.4474 C   0  0  0  0  0  0  0  0  0  0  0  0
   -0.8553   -0.1629    1.8359 N   0  0  0  0  0  0  0  0  0  0  0  0
   -1.0512   -0.2653    0.5256 C   0  0  0  0  0  0  0  0  0  0  0  0
   -2.2774   -0.4574   -0.1122 N   0  0  0  0  0  0  0  0  0  0  0  0
   -3.5651   -0.5932    0.4083 C   0  0  0  0  0  0  0  0  0  0  0  0
   -3.8550   -0.7141    1.7398 C   0  0  0  0  0  0  0  0  0  0  0  0
   -5.1721   -0.8965    2.1947 C   0  0  0  0  0  0  0  0  0  0  0  0
   -6.2030   -0.9568    1.2878 C   0  0  0  0  0  0  0  0  0  0  0  0
   -5.9261   -0.8362   -0.0539 C   0  0  0  0  0  0  0  0  0  0  0  0
   -4.6392   -0.6570   -0.5002 C   0  0  0  0  0  0  0  0  0  0  0  0
   -4.4681   -0.5403   -1.8672 O   0  0  0  0  0  0  0  0  0  0  0  0
   -4.5655    0.6753   -2.5790 C   0  0  0  0  0  0  0  0  0  0  0  0
   -4.3166    0.4158   -3.9243 F   0  0  0  0  0  0  0  0  0  0  0  0
   -3.7935    1.6573   -2.0508 F   0  0  0  0  0  0  0  0  0  0  0  0
   -5.9187    1.0801   -2.5704 F   0  0  0  0  0  0  0  0  0  0  0  0
    0.0956   -0.1646   -0.2281 N   0  0  0  0  0  0  0  0  0  0  0  0
    1.3055    0.0209    0.3162 C   0  0  0  0  0  0  0  0  0  0  0  0
    2.4953    0.1207   -0.5257 C   0  0  0  0  0  0  0  0  0  0  0  0
    0.9954    0.8196   -2.8870 H   0  0  0  0  0  0  0  0  0  0  0  0
    1.9698   -0.3326   -3.8217 H   0  0  0  0  0  0  0  0  0  0  0  0
    0.9098   -0.9809   -2.5527 H   0  0  0  0  0  0  0  0  0  0  0  0
    6.7166    1.6661    0.8484 H   0  0  0  0  0  0  0  0  0  0  0  0
    7.0683   -0.0843    0.9691 H   0  0  0  0  0  0  0  0  0  0  0  0
    4.7222   -0.3442    1.7669 H   0  0  0  0  0  0  0  0  0  0  0  0
    4.4731    1.4079    1.6606 H   0  0  0  0  0  0  0  0  0  0  0  0
    2.6776    1.2064    3.0625 H   0  0  0  0  0  0  0  0  0  0  0  0
    2.8805   -0.5520    3.0637 H   0  0  0  0  0  0  0  0  0  0  0  0
    0.4281    0.0987    3.5105 H   0  0  0  0  0  0  0  0  0  0  0  0
   -2.1949   -0.5280   -1.1965 H   0  0  0  0  0  0  0  0  0  0  0  0
   -3.0774   -0.6762    2.4728 H   0  0  0  0  0  0  0  0  0  0  0  0
   -5.3597   -0.9880    3.2625 H   0  0  0  0  0  0  0  0  0  0  0  0
   -7.2308   -1.0958    1.5819 H   0  0  0  0  0  0  0  0  0  0  0  0
   -6.7603   -0.8861   -0.7720 H   0  0  0  0  0  0  0  0  0  0  0  0
  1  2  1  0
  2  3  1  0
  3  4  2  0
  4  5  1  0
  5  6  1  0
  5  7  2  0
  4  8  1  0
  8  9  1  0
  9 10  1  0
 10 11  1  0
 11 12  2  0
 12 13  1  0
 13 14  2  0
 14 15  1  0
 15 16  1  0
 16 17  2  0
 17 18  1  0
 18 19  2  0
 19 20  1  0
 20 21  2  0
 21 22  1  0
 22 23  1  0
 23 24  1  0
 23 25  1  0
 23 26  1  0
 14 27  1  0
 27 28  2  0
 28 29  1  0
 29  2  1  0
 29  8  2  0
 28 11  1  0
 21 16  1  0
  1 30  1  0
  1 31  1  0
  1 32  1  0
  6 33  1  0
  6 34  1  0
  9 35  1  0
  9 36  1  0
 10 37  1  0
 10 38  1  0
 12 39  1  0
 15 40  1  0
 17 41  1  0
 18 42  1  0
 19 43  1  0
 20 44  1  0
M  END
$$$$
[H]c1nc(N([H])c2c([H])c(N3C([H])([H])C([H])([H])N(C(=O)N4C([H])([H])C([H])([H])N([H])C([H])([H])C4([H])[H])C([H])([H])C3([H])[H])c([H])c([H])c2OC(F)(F)F)nc2c1C([H])([H])C([H])([H])c1c(C(=O)N([H])[H])nn(C([H])([H])[H])c1-2
     RDKit          3D

 74 79  0  0  0  0  0  0  0  0999 V2000
    6.9180   -1.6648   -1.2110 C   0  0  0  0  0  0  0  0  0  0  0  0
    7.2723   -0.3598   -0.7110 N   0  0  0  0  0  0  0  0  0  0  0  0
    8.4835    0.1650   -0.6763 N   0  0  0  0  0  0  0  0  0  0  0  0
    8.4258    1.3977   -0.1416 C   0  0  0  0  0  0  0  0  0  0  0  0
    9.5405    2.3329    0.0960 C   0  0  0  0  0  0  0  0  0  0  0  0
   10.8398    1.8737   -0.2234 N   0  0  0  0  0  0  0  0  0  0  0  0
    9.3438    3.4815    0.5621 O   0  0  0  0  0  0  0  0  0  0  0  0
    7.0867    1.6487    0.1739 C   0  0  0  0  0  0  0  0  0  0  0  0
    6.4791    2.8283    0.7891 C   0  0  0  0  0  0  0  0  0  0  0  0
    5.0032    2.8305    0.9024 C   0  0  0  0  0  0  0  0  0  0  0  0
    4.3172    1.5822    0.5550 C   0  0  0  0  0  0  0  0  0  0  0  0
    2.9339    1.5250    0.7761 C   0  0  0  0  0  0  0  0  0  0  0  0
    2.3353    0.3788    0.4192 N   0  0  0  0  0  0  0  0  0  0  0  0
    2.9091   -0.6844   -0.1100 C   0  0  0  0  0  0  0  0  0  0  0  0
    2.2092   -1.8560   -0.4436 N   0  0  0  0  0  0  0  0  0  0  0  0
    0.8520   -2.1757   -0.3154 C   0  0  0  0  0  0  0  0  0  0  0  0
   -0.0596   -1.4071    0.3632 C   0  0  0  0  0  0  0  0  0  0  0  0
   -1.4043   -1.7929    0.5359 C   0  0  0  0  0  0  0  0  0  0  0  0
   -1.8517   -2.9873    0.0132 C   0  0  0  0  0  0  0  0  0  0  0  0
   -0.9386   -3.7406   -0.6598 C   0  0  0  0  0  0  0  0  0  0  0  0
    0.3690   -3.3934   -0.8460 C   0  0  0  0  0  0  0  0  0  0  0  0
    1.2717   -4.1730   -1.5458 O   0  0  0  0  0  0  0  0  0  0  0  0
    1.4218   -4.0869   -2.9534 C   0  0  0  0  0  0  0  0  0  0  0  0
    2.4208   -4.9694   -3.3187 F   0  0  0  0  0  0  0  0  0  0  0  0
    0.2772   -4.5504   -3.5992 F   0  0  0  0  0  0  0  0  0  0  0  0
    1.6323   -2.8077   -3.3760 F   0  0  0  0  0  0  0  0  0  0  0  0
   -2.3143   -0.9400    1.2098 N   0  0  0  0  0  0  0  0  0  0  0  0
   -2.4197    0.4927    0.8535 C   0  0  0  0  0  0  0  0  0  0  0  0
   -3.8973    0.8101    0.5726 C   0  0  0  0  0  0  0  0  0  0  0  0
   -4.7341    0.2735    1.5979 N   0  0  0  0  0  0  0  0  0  0  0  0
   -4.0205   -0.2263    2.7946 C   0  0  0  0  0  0  0  0  0  0  0  0
   -3.1643   -1.3901    2.2747 C   0  0  0  0  0  0  0  0  0  0  0  0
   -6.1228    0.1826    1.5454 C   0  0  0  0  0  0  0  0  0  0  0  0
   -6.7117   -0.3028    2.6070 O   0  0  0  0  0  0  0  0  0  0  0  0
   -7.0166    0.5331    0.5214 N   0  0  0  0  0  0  0  0  0  0  0  0
   -6.6622    1.0643   -0.7666 C   0  0  0  0  0  0  0  0  0  0  0  0
   -7.9230    1.4373   -1.5376 C   0  0  0  0  0  0  0  0  0  0  0  0
   -8.8313    2.2701   -0.7952 N   0  0  0  0  0  0  0  0  0  0  0  0
   -9.1079    1.7422    0.5240 C   0  0  0  0  0  0  0  0  0  0  0  0
   -8.4744    0.3750    0.7217 C   0  0  0  0  0  0  0  0  0  0  0  0
    4.2729   -0.6324   -0.3306 N   0  0  0  0  0  0  0  0  0  0  0  0
    4.9337    0.4820    0.0026 C   0  0  0  0  0  0  0  0  0  0  0  0
    6.3884    0.5380   -0.1905 C   0  0  0  0  0  0  0  0  0  0  0  0
    6.3422   -1.6062   -2.1778 H   0  0  0  0  0  0  0  0  0  0  0  0
    7.8326   -2.2440   -1.4170 H   0  0  0  0  0  0  0  0  0  0  0  0
    6.3242   -2.1976   -0.4278 H   0  0  0  0  0  0  0  0  0  0  0  0
   11.4615    1.4856    0.5309 H   0  0  0  0  0  0  0  0  0  0  0  0
   11.2758    1.8771   -1.1662 H   0  0  0  0  0  0  0  0  0  0  0  0
    6.9195    3.0444    1.8129 H   0  0  0  0  0  0  0  0  0  0  0  0
    6.7774    3.7495    0.2045 H   0  0  0  0  0  0  0  0  0  0  0  0
    4.6829    3.1251    1.9436 H   0  0  0  0  0  0  0  0  0  0  0  0
    4.5252    3.6306    0.2514 H   0  0  0  0  0  0  0  0  0  0  0  0
    2.3910    2.3327    1.1966 H   0  0  0  0  0  0  0  0  0  0  0  0
    2.8374   -2.6551   -0.8465 H   0  0  0  0  0  0  0  0  0  0  0  0
    0.2220   -0.4685    0.8007 H   0  0  0  0  0  0  0  0  0  0  0  0
   -2.8868   -3.2640    0.1588 H   0  0  0  0  0  0  0  0  0  0  0  0
   -1.3214   -4.6864   -1.0660 H   0  0  0  0  0  0  0  0  0  0  0  0
   -1.7998    0.6896   -0.0163 H   0  0  0  0  0  0  0  0  0  0  0  0
   -2.1106    1.0573    1.7496 H   0  0  0  0  0  0  0  0  0  0  0  0
   -4.1033    0.3357   -0.4050 H   0  0  0  0  0  0  0  0  0  0  0  0
   -3.9253    1.9198    0.5057 H   0  0  0  0  0  0  0  0  0  0  0  0
   -4.7693   -0.6237    3.5044 H   0  0  0  0  0  0  0  0  0  0  0  0
   -3.4108    0.5514    3.2574 H   0  0  0  0  0  0  0  0  0  0  0  0
   -3.8802   -2.1478    1.9019 H   0  0  0  0  0  0  0  0  0  0  0  0
   -2.5723   -1.7261    3.1589 H   0  0  0  0  0  0  0  0  0  0  0  0
   -6.2148    0.2033   -1.3549 H   0  0  0  0  0  0  0  0  0  0  0  0
   -5.9284    1.8659   -0.7680 H   0  0  0  0  0  0  0  0  0  0  0  0
   -7.5954    1.9776   -2.4708 H   0  0  0  0  0  0  0  0  0  0  0  0
   -8.4531    0.5272   -1.8783 H   0  0  0  0  0  0  0  0  0  0  0  0
   -8.5628    3.2760   -0.7752 H   0  0  0  0  0  0  0  0  0  0  0  0
   -8.5918    2.4236    1.2336 H   0  0  0  0  0  0  0  0  0  0  0  0
  -10.1848    1.7832    0.7304 H   0  0  0  0  0  0  0  0  0  0  0  0
   -8.9135   -0.2969   -0.0386 H   0  0  0  0  0  0  0  0  0  0  0  0
   -8.6506   -0.0433    1.7088 H   0  0  0  0  0  0  0  0  0  0  0  0
  1  2  1  0
  2  3  1  0
  3  4  2  0
  4  5  1  0
  5  6  1  0
  5  7  2  0
  4  8  1  0
  8  9  1  0
  9 10  1  0
 10 11  1  0
 11 12  2  0
 12 13  1  0
 13 14  2  0
 14 15  1  0
 15 16  1  0
 16 17  2  0
 17 18  1  0
 18 19  2  0
 19 20  1  0
 20 21  2  0
 21 22  1  0
 22 23  1  0
 23 24  1  0
 23 25  1  0
 23 26  1  0
 18 27  1  0
 27 28  1  0
 28 29  1  0
 29 30  1  0
 30 31  1  0
 31 32  1  0
 30 33  1  0
 33 34  2  0
 33 35  1  0
 35 36  1  0
 36 37  1  0
 37 38  1  0
 38 39  1  0
 39 40  1  0
 14 41  1  0
 41 42  2  0
 42 43  1  0
 43  2  1  0
 43  8  2  0
 42 11  1  0
 21 16  1  0
 32 27  1  0
 40 35  1  0
  1 44  1  0
  1 45  1  0
  1 46  1  0
  6 47  1  0
  6 48  1  0
  9 49  1  0
  9 50  1  0
 10 51  1  0
 10 52  1  0
 12 53  1  0
 15 54  1  0
 17 55  1  0
 19 56  1  0
 20 57  1  0
 28 58  1  0
 28 59  1  0
 29 60  1  0
 29 61  1  0
 31 62  1  0
 31 63  1  0
 32 64  1  0
 32 65  1  0
 36 66  1  0
 36 67  1  0
 37 68  1  0
 37 69  1  0
 38 70  1  0
 39 71  1  0
 39 72  1  0
 40 73  1  0
 40 74  1  0
M  END
$$$$
[H]c1c([H])c(-c2nc(C([H])([H])[H])c3c([H])nc(N([H])c4c([H])c(OC([H])([H])[H])c(OC([H])([H])[H])c(OC([H])([H])[H])c4[H])nn23)c([H])c(C(F)(F)F)c1[H]
     RDKit          3D

 53 56  0  0  0  0  0  0  0  0999 V2000
   -4.4658   -2.3905    2.5452 C   0  0  0  0  0  0  0  0  0  0  0  0
   -5.1779   -1.6906    1.5368 O   0  0  0  0  0  0  0  0  0  0  0  0
   -4.4916   -1.1689    0.4308 C   0  0  0  0  0  0  0  0  0  0  0  0
   -3.1445   -1.3245    0.2794 C   0  0  0  0  0  0  0  0  0  0  0  0
   -2.4181   -0.8338   -0.7951 C   0  0  0  0  0  0  0  0  0  0  0  0
   -1.0247   -1.0462   -0.8631 N   0  0  0  0  0  0  0  0  0  0  0  0
   -0.0879   -0.0667   -0.3719 C   0  0  0  0  0  0  0  0  0  0  0  0
   -0.5592    1.0866    0.1514 N   0  0  0  0  0  0  0  0  0  0  0  0
    0.2218    2.0424    0.6456 C   0  0  0  0  0  0  0  0  0  0  0  0
    1.5905    1.7888    0.6009 C   0  0  0  0  0  0  0  0  0  0  0  0
    2.6723    2.4996    1.0265 C   0  0  0  0  0  0  0  0  0  0  0  0
    2.6250    3.8319    1.6573 C   0  0  0  0  0  0  0  0  0  0  0  0
    3.7518    1.7629    0.7600 N   0  0  0  0  0  0  0  0  0  0  0  0
    3.4137    0.6032    0.1720 C   0  0  0  0  0  0  0  0  0  0  0  0
    4.3658   -0.4095   -0.2946 C   0  0  0  0  0  0  0  0  0  0  0  0
    4.0259   -1.5775   -0.8953 C   0  0  0  0  0  0  0  0  0  0  0  0
    4.9417   -2.5138   -1.3126 C   0  0  0  0  0  0  0  0  0  0  0  0
    6.3260   -2.2275   -1.0872 C   0  0  0  0  0  0  0  0  0  0  0  0
    6.6842   -1.0607   -0.4937 C   0  0  0  0  0  0  0  0  0  0  0  0
    5.7205   -0.1798   -0.1014 C   0  0  0  0  0  0  0  0  0  0  0  0
    8.1106   -0.8010   -0.2274 C   0  0  0  0  0  0  0  0  0  0  0  0
    8.6292   -1.6009    0.7699 F   0  0  0  0  0  0  0  0  0  0  0  0
    8.3728    0.5062    0.0529 F   0  0  0  0  0  0  0  0  0  0  0  0
    8.9003   -1.0821   -1.3841 F   0  0  0  0  0  0  0  0  0  0  0  0
    2.0585    0.6376    0.0802 N   0  0  0  0  0  0  0  0  0  0  0  0
    1.2226   -0.2695   -0.3978 N   0  0  0  0  0  0  0  0  0  0  0  0
   -3.1557   -0.1490   -1.7448 C   0  0  0  0  0  0  0  0  0  0  0  0
   -4.4968    0.0402   -1.6613 C   0  0  0  0  0  0  0  0  0  0  0  0
   -5.2830    0.7084   -2.5746 O   0  0  0  0  0  0  0  0  0  0  0  0
   -4.7211    1.2365   -3.7494 C   0  0  0  0  0  0  0  0  0  0  0  0
   -5.1818   -0.4582   -0.5662 C   0  0  0  0  0  0  0  0  0  0  0  0
   -6.5363   -0.3298   -0.3556 O   0  0  0  0  0  0  0  0  0  0  0  0
   -7.1244    0.7210    0.4362 C   0  0  0  0  0  0  0  0  0  0  0  0
   -3.7331   -1.7660    3.0738 H   0  0  0  0  0  0  0  0  0  0  0  0
   -5.1380   -2.8269    3.2861 H   0  0  0  0  0  0  0  0  0  0  0  0
   -3.9198   -3.1943    2.0297 H   0  0  0  0  0  0  0  0  0  0  0  0
   -2.5854   -1.9016    1.0434 H   0  0  0  0  0  0  0  0  0  0  0  0
   -0.7140   -1.9502   -1.3005 H   0  0  0  0  0  0  0  0  0  0  0  0
   -0.1073    2.9672    1.0902 H   0  0  0  0  0  0  0  0  0  0  0  0
    3.3202    3.8414    2.5462 H   0  0  0  0  0  0  0  0  0  0  0  0
    1.5948    4.0428    2.1014 H   0  0  0  0  0  0  0  0  0  0  0  0
    2.9693    4.6407    0.9978 H   0  0  0  0  0  0  0  0  0  0  0  0
    2.9844   -1.8338   -1.0925 H   0  0  0  0  0  0  0  0  0  0  0  0
    4.7132   -3.4396   -1.7797 H   0  0  0  0  0  0  0  0  0  0  0  0
    7.0683   -2.9342   -1.4063 H   0  0  0  0  0  0  0  0  0  0  0  0
    5.9958    0.7409    0.3672 H   0  0  0  0  0  0  0  0  0  0  0  0
   -2.5718    0.2278   -2.5835 H   0  0  0  0  0  0  0  0  0  0  0  0
   -4.4607    2.3261   -3.5164 H   0  0  0  0  0  0  0  0  0  0  0  0
   -5.4480    1.2264   -4.6116 H   0  0  0  0  0  0  0  0  0  0  0  0
   -3.8922    0.6183   -4.0571 H   0  0  0  0  0  0  0  0  0  0  0  0
   -7.4360    0.2870    1.4050 H   0  0  0  0  0  0  0  0  0  0  0  0
   -6.3776    1.4680    0.6303 H   0  0  0  0  0  0  0  0  0  0  0  0
   -8.0265    1.1750   -0.0224 H   0  0  0  0  0  0  0  0  0  0  0  0
  1  2  1  0
  2  3  1  0
  3  4  2  0
  4  5  1  0
  5  6  1  0
  6  7  1  0
  7  8  1  0
  8  9  2  0
  9 10  1  0
 10 11  2  0
 11 12  1  0
 11 13  1  0
 13 14  2  0
 14 15  1  0
 15 16  2  0
 16 17  1  0
 17 18  2  0
 18 19  1  0
 19 20  2  0
 19 21  1  0
 21 22  1  0
 21 23  1  0
 21 24  1  0
 14 25  1  0
 25 26  1  0
  5 27  2  0
 27 28  1  0
 28 29  1  0
 29 30  1  0
 28 31  2  0
 31 32  1  0
 32 33  1  0
 31  3  1  0
 26  7  2  0
 25 10  1  0
 20 15  1  0
  1 34  1  0
  1 35  1  0
  1 36  1  0
  4 37  1  0
  6 38  1  0
  9 39  1  0
 12 40  1  0
 12 41  1  0
 12 42  1  0
 16 43  1  0
 17 44  1  0
 18 45  1  0
 20 46  1  0
 27 47  1  0
 30 48  1  0
 30 49  1  0
 30 50  1  0
 33 51  1  0
 33 52  1  0
 33 53  1  0
M  END
$$$$
[H]c1nc(N([H])c2c([H])c([H])c([H])c([H])c2N([H])[H])nc2c1C([H])([H])C([H])([H])c1c(C(=O)N([H])[H])nn(C([H])([H])[H])c1-2
     RDKit          3D

 42 45  0  0  0  0  0  0  0  0999 V2000
   -1.6637   -2.4754    0.2010 C   0  0  0  0  0  0  0  0  0  0  0  0
   -2.6425   -1.4103    0.1264 N   0  0  0  0  0  0  0  0  0  0  0  0
   -3.9455   -1.4608    0.1333 N   0  0  0  0  0  0  0  0  0  0  0  0
   -4.4883   -0.2381    0.0466 C   0  0  0  0  0  0  0  0  0  0  0  0
   -5.8829    0.1158    0.0242 C   0  0  0  0  0  0  0  0  0  0  0  0
   -6.8556   -0.9104    0.0997 N   0  0  0  0  0  0  0  0  0  0  0  0
   -6.2470    1.3190   -0.0613 O   0  0  0  0  0  0  0  0  0  0  0  0
   -3.4399    0.6859   -0.0220 C   0  0  0  0  0  0  0  0  0  0  0  0
   -3.3863    2.1364   -0.1012 C   0  0  0  0  0  0  0  0  0  0  0  0
   -2.0859    2.8022   -0.3128 C   0  0  0  0  0  0  0  0  0  0  0  0
   -0.9037    1.9453   -0.1794 C   0  0  0  0  0  0  0  0  0  0  0  0
    0.3920    2.4703   -0.2087 C   0  0  0  0  0  0  0  0  0  0  0  0
    1.4396    1.6379   -0.1127 N   0  0  0  0  0  0  0  0  0  0  0  0
    1.3518    0.3280    0.0107 C   0  0  0  0  0  0  0  0  0  0  0  0
    2.4019   -0.6081    0.1161 N   0  0  0  0  0  0  0  0  0  0  0  0
    3.7726   -0.4026    0.1177 C   0  0  0  0  0  0  0  0  0  0  0  0
    4.3716    0.8126    0.0114 C   0  0  0  0  0  0  0  0  0  0  0  0
    5.7686    0.9402    0.0209 C   0  0  0  0  0  0  0  0  0  0  0  0
    6.5854   -0.1523    0.1374 C   0  0  0  0  0  0  0  0  0  0  0  0
    6.0116   -1.3752    0.2447 C   0  0  0  0  0  0  0  0  0  0  0  0
    4.6442   -1.4917    0.2347 C   0  0  0  0  0  0  0  0  0  0  0  0
    4.0931   -2.7928    0.3498 N   0  0  0  0  0  0  0  0  0  0  0  0
    0.0701   -0.1626    0.0377 N   0  0  0  0  0  0  0  0  0  0  0  0
   -1.0210    0.5958   -0.0514 C   0  0  0  0  0  0  0  0  0  0  0  0
   -2.3132   -0.0859    0.0298 C   0  0  0  0  0  0  0  0  0  0  0  0
   -2.2010   -3.4430    0.3310 H   0  0  0  0  0  0  0  0  0  0  0  0
   -1.0064   -2.4923   -0.7007 H   0  0  0  0  0  0  0  0  0  0  0  0
   -1.0210   -2.3756    1.1109 H   0  0  0  0  0  0  0  0  0  0  0  0
   -7.3185   -1.2470   -0.7631 H   0  0  0  0  0  0  0  0  0  0  0  0
   -7.1079   -1.3275    1.0130 H   0  0  0  0  0  0  0  0  0  0  0  0
   -3.8350    2.5017    0.8915 H   0  0  0  0  0  0  0  0  0  0  0  0
   -4.1545    2.5422   -0.8401 H   0  0  0  0  0  0  0  0  0  0  0  0
   -2.1108    3.2635   -1.3549 H   0  0  0  0  0  0  0  0  0  0  0  0
   -2.0145    3.6938    0.4008 H   0  0  0  0  0  0  0  0  0  0  0  0
    0.5026    3.5320   -0.3081 H   0  0  0  0  0  0  0  0  0  0  0  0
    2.0968   -1.6451    0.2102 H   0  0  0  0  0  0  0  0  0  0  0  0
    3.8403    1.7110   -0.0821 H   0  0  0  0  0  0  0  0  0  0  0  0
    6.2304    1.9110   -0.0642 H   0  0  0  0  0  0  0  0  0  0  0  0
    7.6608   -0.0553    0.1448 H   0  0  0  0  0  0  0  0  0  0  0  0
    6.6433   -2.2556    0.3382 H   0  0  0  0  0  0  0  0  0  0  0  0
    3.7234   -3.0730    1.2842 H   0  0  0  0  0  0  0  0  0  0  0  0
    4.0449   -3.4638   -0.4457 H   0  0  0  0  0  0  0  0  0  0  0  0
  1  2  1  0
  2  3  1  0
  3  4  2  0
  4  5  1  0
  5  6  1  0
  5  7  2  0
  4  8  1  0
  8  9  1  0
  9 10  1  0
 10 11  1  0
 11 12  2  0
 12 13  1  0
 13 14  2  0
 14 15  1  0
 15 16  1  0
 16 17  2  0
 17 18  1  0
 18 19  2  0
 19 20  1  0
 20 21  2  0
 21 22  1  0
 14 23  1  0
 23 24  2  0
 24 25  1  0
 25  2  1  0
 25  8  2  0
 24 11  1  0
 21 16  1  0
  1 26  1  0
  1 27  1  0
  1 28  1  0
  6 29  1  0
  6 30  1  0
  9 31  1  0
  9 32  1  0
 10 33  1  0
 10 34  1  0
 12 35  1  0
 15 36  1  0
 17 37  1  0
 18 38  1  0
 19 39  1  0
 20 40  1  0
 22 41  1  0
 22 42  1  0
M  END
$$$$
[H]c1nc(N([H])[H])nc(-c2c([H])c([H])c3c(nc([H])n3-c3sc(C(=O)N([H])[H])c(O[C@@]([H])(c4c([H])c([H])c([H])c([H])c4C(F)(F)F)C([H])([H])[H])c3[H])c2[H])c1[H]
     RDKit          3D

 56 60  0  0  0  0  0  0  0  0999 V2000
   -3.5318    0.6704    2.3919 C   0  0  0  0  0  0  0  0  0  0  0  0
   -3.8307    0.6917    0.8565 C   0  0  1  0  0  0  0  0  0  0  0  0
   -3.3957   -0.5963    0.4701 O   0  0  0  0  0  0  0  0  0  0  0  0
   -2.1062   -0.8805   -0.0393 C   0  0  0  0  0  0  0  0  0  0  0  0
   -1.1454    0.0392   -0.2053 C   0  0  0  0  0  0  0  0  0  0  0  0
    0.0580   -0.3884   -0.7113 C   0  0  0  0  0  0  0  0  0  0  0  0
   -0.1937   -2.0569   -0.9374 S   0  0  0  0  0  0  0  0  0  0  0  0
   -1.8047   -2.1711   -0.3894 C   0  0  0  0  0  0  0  0  0  0  0  0
   -2.6756   -3.3711   -0.3071 C   0  0  0  0  0  0  0  0  0  0  0  0
   -2.1723   -4.6231   -0.7262 N   0  0  0  0  0  0  0  0  0  0  0  0
   -3.8266   -3.2463    0.1286 O   0  0  0  0  0  0  0  0  0  0  0  0
    1.2328    0.4154   -0.9720 N   0  0  0  0  0  0  0  0  0  0  0  0
    1.3389    1.5568   -1.6675 C   0  0  0  0  0  0  0  0  0  0  0  0
    2.6138    1.9823   -1.6684 N   0  0  0  0  0  0  0  0  0  0  0  0
    3.3434    1.1021   -0.9623 C   0  0  0  0  0  0  0  0  0  0  0  0
    4.6803    1.0001   -0.6183 C   0  0  0  0  0  0  0  0  0  0  0  0
    5.1899   -0.0426    0.1438 C   0  0  0  0  0  0  0  0  0  0  0  0
    4.2942   -0.9959    0.5555 C   0  0  0  0  0  0  0  0  0  0  0  0
    2.9405   -0.9304    0.2310 C   0  0  0  0  0  0  0  0  0  0  0  0
    2.4804    0.1200   -0.5254 C   0  0  0  0  0  0  0  0  0  0  0  0
    6.6149   -0.0801    0.4664 C   0  0  0  0  0  0  0  0  0  0  0  0
    7.1672   -1.0806    1.2123 C   0  0  0  0  0  0  0  0  0  0  0  0
    8.5412   -1.0170    1.4613 C   0  0  0  0  0  0  0  0  0  0  0  0
    9.2956   -0.0287    0.9979 N   0  0  0  0  0  0  0  0  0  0  0  0
    8.7475    0.9656    0.2568 C   0  0  0  0  0  0  0  0  0  0  0  0
    9.5844    2.0008   -0.2189 N   0  0  0  0  0  0  0  0  0  0  0  0
    7.4344    0.9035    0.0198 N   0  0  0  0  0  0  0  0  0  0  0  0
   -5.2743    0.8007    0.6412 C   0  0  0  0  0  0  0  0  0  0  0  0
   -6.1503    0.5780    1.7328 C   0  0  0  0  0  0  0  0  0  0  0  0
   -7.5150    0.6573    1.6096 C   0  0  0  0  0  0  0  0  0  0  0  0
   -8.0549    0.9629    0.3877 C   0  0  0  0  0  0  0  0  0  0  0  0
   -7.2158    1.1767   -0.6604 C   0  0  0  0  0  0  0  0  0  0  0  0
   -5.8130    1.1050   -0.5751 C   0  0  0  0  0  0  0  0  0  0  0  0
   -5.0076    1.3497   -1.7621 C   0  0  0  0  0  0  0  0  0  0  0  0
   -4.0878    2.4002   -1.6227 F   0  0  0  0  0  0  0  0  0  0  0  0
   -4.5065    0.2631   -2.4047 F   0  0  0  0  0  0  0  0  0  0  0  0
   -5.8869    1.9090   -2.7432 F   0  0  0  0  0  0  0  0  0  0  0  0
   -4.0812    1.4745    2.8974 H   0  0  0  0  0  0  0  0  0  0  0  0
   -2.4291    0.7238    2.5340 H   0  0  0  0  0  0  0  0  0  0  0  0
   -3.8356   -0.2922    2.8317 H   0  0  0  0  0  0  0  0  0  0  0  0
   -3.1836    1.4203    0.3921 H   0  0  0  0  0  0  0  0  0  0  0  0
   -1.2662    1.1206    0.0443 H   0  0  0  0  0  0  0  0  0  0  0  0
   -1.5476   -4.7431   -1.5723 H   0  0  0  0  0  0  0  0  0  0  0  0
   -2.4004   -5.4965   -0.2094 H   0  0  0  0  0  0  0  0  0  0  0  0
    0.4752    2.0248   -2.1429 H   0  0  0  0  0  0  0  0  0  0  0  0
    5.3689    1.7581   -0.9504 H   0  0  0  0  0  0  0  0  0  0  0  0
    4.6199   -1.8364    1.1526 H   0  0  0  0  0  0  0  0  0  0  0  0
    2.2375   -1.6759    0.5517 H   0  0  0  0  0  0  0  0  0  0  0  0
    6.5731   -1.8813    1.5913 H   0  0  0  0  0  0  0  0  0  0  0  0
    9.0098   -1.7901    2.0461 H   0  0  0  0  0  0  0  0  0  0  0  0
    9.7523    2.8279    0.3745 H   0  0  0  0  0  0  0  0  0  0  0  0
   10.0275    1.9385   -1.1483 H   0  0  0  0  0  0  0  0  0  0  0  0
   -5.7246    0.3357    2.6954 H   0  0  0  0  0  0  0  0  0  0  0  0
   -8.1757    0.4880    2.4387 H   0  0  0  0  0  0  0  0  0  0  0  0
   -9.1328    1.0421    0.2209 H   0  0  0  0  0  0  0  0  0  0  0  0
   -7.6505    1.4195   -1.6321 H   0  0  0  0  0  0  0  0  0  0  0  0
  1  2  1  0
  2  3  1  0
  3  4  1  0
  4  5  1  0
  5  6  2  0
  6  7  1  0
  7  8  1  0
  8  9  1  0
  9 10  1  0
  9 11  2  0
  6 12  1  0
 12 13  1  0
 13 14  2  0
 14 15  1  0
 15 16  2  0
 16 17  1  0
 17 18  2  0
 18 19  1  0
 19 20  2  0
 17 21  1  0
 21 22  2  0
 22 23  1  0
 23 24  2  0
 24 25  1  0
 25 26  1  0
 25 27  2  0
  2 28  1  0
 28 29  2  0
 29 30  1  0
 30 31  2  0
 31 32  1  0
 32 33  2  0
 33 34  1  0
 34 35  1  0
 34 36  1  0
 34 37  1  0
  8  4  2  0
 20 12  1  0
 27 21  1  0
 33 28  1  0
 20 15  1  0
  1 38  1  0
  1 39  1  0
  1 40  1  0
  2 41  1  6
  5 42  1  0
 10 43  1  0
 10 44  1  0
 13 45  1  0
 16 46  1  0
 18 47  1  0
 19 48  1  0
 22 49  1  0
 23 50  1  0
 26 51  1  0
 26 52  1  0
 29 53  1  0
 30 54  1  0
 31 55  1  0
 32 56  1  0
M  END
$$$$
[H]c1nc(N([H])c2c([H])c([H])c([H])c([H])c2C(F)(F)F)nc2c1C([H])([H])C([H])([H])c1c(C(=O)N([H])[H])nn(C([H])([H])[H])c1-2
     RDKit          3D

 43 46  0  0  0  0  0  0  0  0999 V2000
    1.7997    0.1040   -2.6161 C   0  0  0  0  0  0  0  0  0  0  0  0
    2.7333    0.2313   -1.4870 N   0  0  0  0  0  0  0  0  0  0  0  0
    4.0387    0.3631   -1.5397 N   0  0  0  0  0  0  0  0  0  0  0  0
    4.5572    0.4515   -0.2892 C   0  0  0  0  0  0  0  0  0  0  0  0
    5.9589    0.6042    0.0488 C   0  0  0  0  0  0  0  0  0  0  0  0
    6.9529    0.6773   -0.9567 N   0  0  0  0  0  0  0  0  0  0  0  0
    6.2916    0.6723    1.2508 O   0  0  0  0  0  0  0  0  0  0  0  0
    3.5005    0.3684    0.5904 C   0  0  0  0  0  0  0  0  0  0  0  0
    3.4953    0.4087    2.0571 C   0  0  0  0  0  0  0  0  0  0  0  0
    2.1869    0.2981    2.7144 C   0  0  0  0  0  0  0  0  0  0  0  0
    1.0234    0.1525    1.8505 C   0  0  0  0  0  0  0  0  0  0  0  0
   -0.2668    0.0353    2.3871 C   0  0  0  0  0  0  0  0  0  0  0  0
   -1.2820   -0.0935    1.5422 N   0  0  0  0  0  0  0  0  0  0  0  0
   -1.2468   -0.1279    0.2213 C   0  0  0  0  0  0  0  0  0  0  0  0
   -2.3369   -0.2652   -0.6771 N   0  0  0  0  0  0  0  0  0  0  0  0
   -3.6861   -0.3994   -0.3816 C   0  0  0  0  0  0  0  0  0  0  0  0
   -4.1495   -0.5187    0.9134 C   0  0  0  0  0  0  0  0  0  0  0  0
   -5.5017   -0.6747    1.1995 C   0  0  0  0  0  0  0  0  0  0  0  0
   -6.3941   -0.7112    0.1785 C   0  0  0  0  0  0  0  0  0  0  0  0
   -5.9336   -0.5933   -1.0967 C   0  0  0  0  0  0  0  0  0  0  0  0
   -4.6081   -0.4361   -1.4478 C   0  0  0  0  0  0  0  0  0  0  0  0
   -4.2043   -0.3027   -2.8600 C   0  0  0  0  0  0  0  0  0  0  0  0
   -3.5885    0.8752   -3.1786 F   0  0  0  0  0  0  0  0  0  0  0  0
   -5.3892   -0.2965   -3.6272 F   0  0  0  0  0  0  0  0  0  0  0  0
   -3.5024   -1.3984   -3.3443 F   0  0  0  0  0  0  0  0  0  0  0  0
    0.0214   -0.0129   -0.3093 N   0  0  0  0  0  0  0  0  0  0  0  0
    1.0949    0.1205    0.4869 C   0  0  0  0  0  0  0  0  0  0  0  0
    2.3913    0.2330   -0.1929 C   0  0  0  0  0  0  0  0  0  0  0  0
    1.2701   -0.8541   -2.4593 H   0  0  0  0  0  0  0  0  0  0  0  0
    1.1302    0.9665   -2.6931 H   0  0  0  0  0  0  0  0  0  0  0  0
    2.4071    0.0543   -3.5397 H   0  0  0  0  0  0  0  0  0  0  0  0
    6.7858    1.1982   -1.8325 H   0  0  0  0  0  0  0  0  0  0  0  0
    7.8712    0.2034   -0.8247 H   0  0  0  0  0  0  0  0  0  0  0  0
    3.9994    1.3660    2.4228 H   0  0  0  0  0  0  0  0  0  0  0  0
    4.1802   -0.4003    2.4541 H   0  0  0  0  0  0  0  0  0  0  0  0
    2.0423    1.2018    3.4021 H   0  0  0  0  0  0  0  0  0  0  0  0
    2.2314   -0.5574    3.4620 H   0  0  0  0  0  0  0  0  0  0  0  0
   -0.3494    0.0577    3.4573 H   0  0  0  0  0  0  0  0  0  0  0  0
   -2.0800   -0.2748   -1.7346 H   0  0  0  0  0  0  0  0  0  0  0  0
   -3.5185   -0.5063    1.7872 H   0  0  0  0  0  0  0  0  0  0  0  0
   -5.8176   -0.7647    2.2431 H   0  0  0  0  0  0  0  0  0  0  0  0
   -7.4583   -0.8326    0.3738 H   0  0  0  0  0  0  0  0  0  0  0  0
   -6.6502   -0.6224   -1.9279 H   0  0  0  0  0  0  0  0  0  0  0  0
  1  2  1  0
  2  3  1  0
  3  4  2  0
  4  5  1  0
  5  6  1  0
  5  7  2  0
  4  8  1  0
  8  9  1  0
  9 10  1  0
 10 11  1  0
 11 12  2  0
 12 13  1  0
 13 14  2  0
 14 15  1  0
 15 16  1  0
 16 17  2  0
 17 18  1  0
 18 19  2  0
 19 20  1  0
 20 21  2  0
 21 22  1  0
 22 23  1  0
 22 24  1  0
 22 25  1  0
 14 26  1  0
 26 27  2  0
 27 28  1  0
 28  2  1  0
 28  8  2  0
 27 11  1  0
 21 16  1  0
  1 29  1  0
  1 30  1  0
  1 31  1  0
  6 32  1  0
  6 33  1  0
  9 34  1  0
  9 35  1  0
 10 36  1  0
 10 37  1  0
 12 38  1  0
 15 39  1  0
 17 40  1  0
 18 41  1  0
 19 42  1  0
 20 43  1  0
M  END
$$$$
[H]c1c([H])c([H])c(C([H])([H])Oc2c(C(=O)N([H])[H])sc(-n3c([H])nc4c([H])c(OC([H])([H])[H])c(OC([H])([H])[H])c([H])c43)c2[H])c(Cl)c1[H]
     RDKit          3D

 48 51  0  0  0  0  0  0  0  0999 V2000
   -7.5950   -1.4741   -0.7365 C   0  0  0  0  0  0  0  0  0  0  0  0
   -6.7573   -0.6459    0.0242 O   0  0  0  0  0  0  0  0  0  0  0  0
   -5.4307   -0.4931   -0.2827 C   0  0  0  0  0  0  0  0  0  0  0  0
   -4.8946   -1.1665   -1.3656 C   0  0  0  0  0  0  0  0  0  0  0  0
   -3.5706   -1.0149   -1.6730 C   0  0  0  0  0  0  0  0  0  0  0  0
   -2.8249   -1.5562   -2.6636 N   0  0  0  0  0  0  0  0  0  0  0  0
   -1.5857   -1.0698   -2.5020 C   0  0  0  0  0  0  0  0  0  0  0  0
   -1.5342   -0.2424   -1.4424 N   0  0  0  0  0  0  0  0  0  0  0  0
   -0.3623    0.4664   -0.9650 C   0  0  0  0  0  0  0  0  0  0  0  0
    0.8870   -0.0598   -0.7521 C   0  0  0  0  0  0  0  0  0  0  0  0
    1.8436    0.7726   -0.3038 C   0  0  0  0  0  0  0  0  0  0  0  0
    3.1845    0.3826   -0.0350 O   0  0  0  0  0  0  0  0  0  0  0  0
    3.5786   -0.9533   -0.2380 C   0  0  0  0  0  0  0  0  0  0  0  0
    4.9873   -1.1707    0.0889 C   0  0  0  0  0  0  0  0  0  0  0  0
    5.8155   -0.1728    0.5411 C   0  0  0  0  0  0  0  0  0  0  0  0
    7.1517   -0.3710    0.8530 C   0  0  0  0  0  0  0  0  0  0  0  0
    7.7002   -1.6127    0.7131 C   0  0  0  0  0  0  0  0  0  0  0  0
    6.9058   -2.6398    0.2632 C   0  0  0  0  0  0  0  0  0  0  0  0
    5.5807   -2.4299   -0.0430 C   0  0  0  0  0  0  0  0  0  0  0  0
    4.6005   -3.7675   -0.6143 Cl  0  0  0  0  0  0  0  0  0  0  0  0
    1.4822    2.0771   -0.0993 C   0  0  0  0  0  0  0  0  0  0  0  0
   -0.1676    2.0988   -0.5359 S   0  0  0  0  0  0  0  0  0  0  0  0
    2.3054    3.2138    0.3835 C   0  0  0  0  0  0  0  0  0  0  0  0
    1.7280    4.4885    0.5233 N   0  0  0  0  0  0  0  0  0  0  0  0
    3.5047    2.9657    0.6472 O   0  0  0  0  0  0  0  0  0  0  0  0
   -2.7649   -0.1906   -0.9052 C   0  0  0  0  0  0  0  0  0  0  0  0
   -3.2823    0.4905    0.1806 C   0  0  0  0  0  0  0  0  0  0  0  0
   -4.6205    0.3340    0.4871 C   0  0  0  0  0  0  0  0  0  0  0  0
   -5.2242    0.9786    1.5582 O   0  0  0  0  0  0  0  0  0  0  0  0
   -4.5759    1.8433    2.4387 C   0  0  0  0  0  0  0  0  0  0  0  0
   -8.5613   -1.6672   -0.2416 H   0  0  0  0  0  0  0  0  0  0  0  0
   -7.1225   -2.4421   -0.9286 H   0  0  0  0  0  0  0  0  0  0  0  0
   -7.8052   -1.0116   -1.7240 H   0  0  0  0  0  0  0  0  0  0  0  0
   -5.4914   -1.8227   -1.9939 H   0  0  0  0  0  0  0  0  0  0  0  0
   -0.7493   -1.3137   -3.1392 H   0  0  0  0  0  0  0  0  0  0  0  0
    1.0870   -1.1413   -0.9483 H   0  0  0  0  0  0  0  0  0  0  0  0
    3.2997   -1.3235   -1.2532 H   0  0  0  0  0  0  0  0  0  0  0  0
    2.9552   -1.5747    0.4679 H   0  0  0  0  0  0  0  0  0  0  0  0
    5.4047    0.7990    0.6555 H   0  0  0  0  0  0  0  0  0  0  0  0
    7.7223    0.4789    1.2020 H   0  0  0  0  0  0  0  0  0  0  0  0
    8.7510   -1.7285    0.9676 H   0  0  0  0  0  0  0  0  0  0  0  0
    7.3487   -3.6158    0.1564 H   0  0  0  0  0  0  0  0  0  0  0  0
    0.8204    4.6085    1.0058 H   0  0  0  0  0  0  0  0  0  0  0  0
    2.2057    5.3249    0.1439 H   0  0  0  0  0  0  0  0  0  0  0  0
   -2.6565    1.1330    0.7799 H   0  0  0  0  0  0  0  0  0  0  0  0
   -3.7931    2.4095    1.8934 H   0  0  0  0  0  0  0  0  0  0  0  0
   -4.1554    1.2232    3.2685 H   0  0  0  0  0  0  0  0  0  0  0  0
   -5.3250    2.5830    2.8239 H   0  0  0  0  0  0  0  0  0  0  0  0
  1  2  1  0
  2  3  1  0
  3  4  2  0
  4  5  1  0
  5  6  1  0
  6  7  2  0
  7  8  1  0
  8  9  1  0
  9 10  2  0
 10 11  1  0
 11 12  1  0
 12 13  1  0
 13 14  1  0
 14 15  2  0
 15 16  1  0
 16 17  2  0
 17 18  1  0
 18 19  2  0
 19 20  1  0
 11 21  2  0
 21 22  1  0
 21 23  1  0
 23 24  1  0
 23 25  2  0
  8 26  1  0
 26 27  1  0
 27 28  2  0
 28 29  1  0
 29 30  1  0
 28  3  1  0
 26  5  2  0
 22  9  1  0
 19 14  1  0
  1 31  1  0
  1 32  1  0
  1 33  1  0
  4 34  1  0
  7 35  1  0
 10 36  1  0
 13 37  1  0
 13 38  1  0
 15 39  1  0
 16 40  1  0
 17 41  1  0
 18 42  1  0
 24 43  1  0
 24 44  1  0
 27 45  1  0
 30 46  1  0
 30 47  1  0
 30 48  1  0
M  END
$$$$
[H]c1nc(N([H])c2c([H])c([H])c([H])c([H])c2N([H])C([H])([H])[H])nc2c1C([H])([H])C([H])([H])c1c(C(=O)N([H])[H])nn(C([H])([H])[H])c1-2
     RDKit          3D

 45 48  0  0  0  0  0  0  0  0999 V2000
   -6.4856    1.0742   -1.2813 C   0  0  0  0  0  0  0  0  0  0  0  0
   -5.0709    0.7416   -1.2861 N   0  0  0  0  0  0  0  0  0  0  0  0
   -4.4094    0.4265   -0.0618 C   0  0  0  0  0  0  0  0  0  0  0  0
   -5.1863    0.5008    1.0952 C   0  0  0  0  0  0  0  0  0  0  0  0
   -4.6699    0.2361    2.3381 C   0  0  0  0  0  0  0  0  0  0  0  0
   -3.3606   -0.1083    2.4308 C   0  0  0  0  0  0  0  0  0  0  0  0
   -2.5850   -0.1818    1.2631 C   0  0  0  0  0  0  0  0  0  0  0  0
   -3.0642    0.0747    0.0154 C   0  0  0  0  0  0  0  0  0  0  0  0
   -2.2863   -0.0493   -1.1323 N   0  0  0  0  0  0  0  0  0  0  0  0
   -0.8914   -0.1713   -1.2980 C   0  0  0  0  0  0  0  0  0  0  0  0
   -0.4688   -0.3132   -2.6045 N   0  0  0  0  0  0  0  0  0  0  0  0
    0.7909   -0.4115   -2.9822 C   0  0  0  0  0  0  0  0  0  0  0  0
    1.7888   -0.3693   -1.9857 C   0  0  0  0  0  0  0  0  0  0  0  0
    3.1890   -0.4740   -2.4231 C   0  0  0  0  0  0  0  0  0  0  0  0
    4.2108   -0.4596   -1.3722 C   0  0  0  0  0  0  0  0  0  0  0  0
    3.7238   -0.2855    0.0121 C   0  0  0  0  0  0  0  0  0  0  0  0
    4.4791   -0.2018    1.1587 C   0  0  0  0  0  0  0  0  0  0  0  0
    3.5971   -0.0535    2.1514 N   0  0  0  0  0  0  0  0  0  0  0  0
    2.3422   -0.0386    1.7025 N   0  0  0  0  0  0  0  0  0  0  0  0
    1.1469    0.1184    2.5460 C   0  0  0  0  0  0  0  0  0  0  0  0
    2.4016   -0.1815    0.3783 C   0  0  0  0  0  0  0  0  0  0  0  0
    1.3832   -0.2281   -0.6818 C   0  0  0  0  0  0  0  0  0  0  0  0
    0.0593   -0.1328   -0.3647 N   0  0  0  0  0  0  0  0  0  0  0  0
    5.9475   -0.2632    1.2733 C   0  0  0  0  0  0  0  0  0  0  0  0
    6.7369   -0.4279    0.1135 N   0  0  0  0  0  0  0  0  0  0  0  0
    6.4985   -0.1698    2.3949 O   0  0  0  0  0  0  0  0  0  0  0  0
   -7.0474    0.2702   -0.7366 H   0  0  0  0  0  0  0  0  0  0  0  0
   -6.6848    2.0382   -0.7779 H   0  0  0  0  0  0  0  0  0  0  0  0
   -6.8454    1.0639   -2.3269 H   0  0  0  0  0  0  0  0  0  0  0  0
   -4.6001    0.7566   -2.2079 H   0  0  0  0  0  0  0  0  0  0  0  0
   -6.2324    0.7725    1.0564 H   0  0  0  0  0  0  0  0  0  0  0  0
   -5.2836    0.2975    3.2308 H   0  0  0  0  0  0  0  0  0  0  0  0
   -2.9424   -0.3190    3.4045 H   0  0  0  0  0  0  0  0  0  0  0  0
   -1.5629   -0.4821    1.4009 H   0  0  0  0  0  0  0  0  0  0  0  0
   -2.8727   -0.0627   -2.0561 H   0  0  0  0  0  0  0  0  0  0  0  0
    1.1150   -0.5233   -4.0124 H   0  0  0  0  0  0  0  0  0  0  0  0
    3.3367   -1.3441   -3.1243 H   0  0  0  0  0  0  0  0  0  0  0  0
    3.3465    0.4329   -3.0961 H   0  0  0  0  0  0  0  0  0  0  0  0
    4.9800    0.3413   -1.6244 H   0  0  0  0  0  0  0  0  0  0  0  0
    4.7912   -1.4393   -1.4264 H   0  0  0  0  0  0  0  0  0  0  0  0
    0.6823   -0.8519    2.7490 H   0  0  0  0  0  0  0  0  0  0  0  0
    1.4698    0.5470    3.5168 H   0  0  0  0  0  0  0  0  0  0  0  0
    0.4599    0.8562    2.0897 H   0  0  0  0  0  0  0  0  0  0  0  0
    6.9281   -1.3818   -0.2570 H   0  0  0  0  0  0  0  0  0  0  0  0
    7.1452    0.3769   -0.3993 H   0  0  0  0  0  0  0  0  0  0  0  0
  1  2  1  0
  2  3  1  0
  3  4  2  0
  4  5  1  0
  5  6  2  0
  6  7  1  0
  7  8  2  0
  8  9  1  0
  9 10  1  0
 10 11  2  0
 11 12  1  0
 12 13  2  0
 13 14  1  0
 14 15  1  0
 15 16  1  0
 16 17  1  0
 17 18  2  0
 18 19  1  0
 19 20  1  0
 19 21  1  0
 21 22  1  0
 22 23  2  0
 17 24  1  0
 24 25  1  0
 24 26  2  0
  8  3  1  0
 23 10  1  0
 22 13  1  0
 21 16  2  0
  1 27  1  0
  1 28  1  0
  1 29  1  0
  2 30  1  0
  4 31  1  0
  5 32  1  0
  6 33  1  0
  7 34  1  0
  9 35  1  0
 12 36  1  0
 14 37  1  0
 14 38  1  0
 15 39  1  0
 15 40  1  0
 20 41  1  0
 20 42  1  0
 20 43  1  0
 25 44  1  0
 25 45  1  0
M  END
$$$$
[H]c1nc(N([H])c2c([H])c(C([H])([H])C([H])([H])C([H])([H])N(C([H])([H])[H])C([H])([H])[H])c([H])c([H])c2C([H])([H])[H])nc2c1C([H])([H])C(=S)N([H])c1c([H])c(Cl)c([H])c([H])c1-2
     RDKit          3D

 57 60  0  0  0  0  0  0  0  0999 V2000
    7.1624   -0.6318    1.5271 C   0  0  0  0  0  0  0  0  0  0  0  0
    6.2086   -0.0001    0.6580 N   0  0  0  0  0  0  0  0  0  0  0  0
    6.8086    0.9822   -0.2154 C   0  0  0  0  0  0  0  0  0  0  0  0
    5.0183    0.4349    1.2875 C   0  0  0  0  0  0  0  0  0  0  0  0
    4.1067   -0.6164    1.7929 C   0  0  0  0  0  0  0  0  0  0  0  0
    3.5900   -1.5164    0.7437 C   0  0  0  0  0  0  0  0  0  0  0  0
    2.7933   -0.9008   -0.3284 C   0  0  0  0  0  0  0  0  0  0  0  0
    3.4154   -0.5122   -1.4855 C   0  0  0  0  0  0  0  0  0  0  0  0
    2.6955    0.0871   -2.5250 C   0  0  0  0  0  0  0  0  0  0  0  0
    1.3406    0.2939   -2.3939 C   0  0  0  0  0  0  0  0  0  0  0  0
    0.5456    0.9307   -3.4883 C   0  0  0  0  0  0  0  0  0  0  0  0
    0.6842   -0.0986   -1.2136 C   0  0  0  0  0  0  0  0  0  0  0  0
   -0.6978    0.1417   -1.1390 N   0  0  0  0  0  0  0  0  0  0  0  0
   -1.5932   -0.1524   -0.0859 C   0  0  0  0  0  0  0  0  0  0  0  0
   -1.3249   -0.7267    1.0751 N   0  0  0  0  0  0  0  0  0  0  0  0
   -2.2522   -0.9634    2.0172 C   0  0  0  0  0  0  0  0  0  0  0  0
   -3.5857   -0.6043    1.8108 C   0  0  0  0  0  0  0  0  0  0  0  0
   -4.4470   -0.9402    2.9436 C   0  0  0  0  0  0  0  0  0  0  0  0
   -5.8545   -1.1835    2.6287 C   0  0  0  0  0  0  0  0  0  0  0  0
   -6.5615   -2.3571    3.5387 S   0  0  0  0  0  0  0  0  0  0  0  0
   -6.7375   -0.6017    1.6874 N   0  0  0  0  0  0  0  0  0  0  0  0
   -6.4328    0.2123    0.5744 C   0  0  0  0  0  0  0  0  0  0  0  0
   -7.5285    0.7653   -0.0531 C   0  0  0  0  0  0  0  0  0  0  0  0
   -7.4156    1.5911   -1.1624 C   0  0  0  0  0  0  0  0  0  0  0  0
   -8.8323    2.2771   -1.9371 Cl  0  0  0  0  0  0  0  0  0  0  0  0
   -6.1410    1.8434   -1.6230 C   0  0  0  0  0  0  0  0  0  0  0  0
   -5.0392    1.2948   -1.0018 C   0  0  0  0  0  0  0  0  0  0  0  0
   -5.1443    0.4738    0.0999 C   0  0  0  0  0  0  0  0  0  0  0  0
   -3.8694   -0.0105    0.6135 C   0  0  0  0  0  0  0  0  0  0  0  0
   -2.9065    0.2011   -0.2884 N   0  0  0  0  0  0  0  0  0  0  0  0
    1.4277   -0.6836   -0.2167 C   0  0  0  0  0  0  0  0  0  0  0  0
    7.2907   -0.0108    2.4390 H   0  0  0  0  0  0  0  0  0  0  0  0
    8.1553   -0.5807    0.9930 H   0  0  0  0  0  0  0  0  0  0  0  0
    6.9762   -1.6826    1.7401 H   0  0  0  0  0  0  0  0  0  0  0  0
    7.3914    0.5012   -1.0022 H   0  0  0  0  0  0  0  0  0  0  0  0
    7.5125    1.5766    0.4370 H   0  0  0  0  0  0  0  0  0  0  0  0
    6.0557    1.6423   -0.6576 H   0  0  0  0  0  0  0  0  0  0  0  0
    4.4432    1.0316    0.5198 H   0  0  0  0  0  0  0  0  0  0  0  0
    5.2897    1.1904    2.0706 H   0  0  0  0  0  0  0  0  0  0  0  0
    4.7129   -1.2538    2.5058 H   0  0  0  0  0  0  0  0  0  0  0  0
    3.3172   -0.1838    2.4527 H   0  0  0  0  0  0  0  0  0  0  0  0
    3.0068   -2.3286    1.2532 H   0  0  0  0  0  0  0  0  0  0  0  0
    4.4612   -2.0202    0.2625 H   0  0  0  0  0  0  0  0  0  0  0  0
    4.4702   -0.6380   -1.6866 H   0  0  0  0  0  0  0  0  0  0  0  0
    3.1878    0.3928   -3.4356 H   0  0  0  0  0  0  0  0  0  0  0  0
    0.2687    1.9678   -3.2245 H   0  0  0  0  0  0  0  0  0  0  0  0
   -0.3016    0.3190   -3.8183 H   0  0  0  0  0  0  0  0  0  0  0  0
    1.2121    1.0279   -4.3909 H   0  0  0  0  0  0  0  0  0  0  0  0
   -1.1385    0.6087   -1.9862 H   0  0  0  0  0  0  0  0  0  0  0  0
   -1.9959   -1.4338    2.9518 H   0  0  0  0  0  0  0  0  0  0  0  0
   -4.4266   -0.0497    3.6385 H   0  0  0  0  0  0  0  0  0  0  0  0
   -4.0302   -1.8339    3.4652 H   0  0  0  0  0  0  0  0  0  0  0  0
   -7.7480   -0.7908    1.8218 H   0  0  0  0  0  0  0  0  0  0  0  0
   -8.5172    0.5582    0.3192 H   0  0  0  0  0  0  0  0  0  0  0  0
   -6.0035    2.4736   -2.4749 H   0  0  0  0  0  0  0  0  0  0  0  0
   -4.0200    1.4887   -1.3592 H   0  0  0  0  0  0  0  0  0  0  0  0
    0.9969   -1.0018    0.6950 H   0  0  0  0  0  0  0  0  0  0  0  0
  1  2  1  0
  2  3  1  0
  2  4  1  0
  4  5  1  0
  5  6  1  0
  6  7  1  0
  7  8  2  0
  8  9  1  0
  9 10  2  0
 10 11  1  0
 10 12  1  0
 12 13  1  0
 13 14  1  0
 14 15  2  0
 15 16  1  0
 16 17  2  0
 17 18  1  0
 18 19  1  0
 19 20  2  0
 19 21  1  0
 21 22  1  0
 22 23  2  0
 23 24  1  0
 24 25  1  0
 24 26  2  0
 26 27  1  0
 27 28  2  0
 28 29  1  0
 29 30  2  0
 12 31  2  0
 31  7  1  0
 30 14  1  0
 29 17  1  0
 28 22  1  0
  1 32  1  0
  1 33  1  0
  1 34  1  0
  3 35  1  0
  3 36  1  0
  3 37  1  0
  4 38  1  0
  4 39  1  0
  5 40  1  0
  5 41  1  0
  6 42  1  0
  6 43  1  0
  8 44  1  0
  9 45  1  0
 11 46  1  0
 11 47  1  0
 11 48  1  0
 13 49  1  0
 16 50  1  0
 18 51  1  0
 18 52  1  0
 21 53  1  0
 23 54  1  0
 26 55  1  0
 27 56  1  0
 31 57  1  0
M  END
$$$$
[H]c1sc(-c2c([H])c([H])c3c(nc([H])n3-c3sc(C(=O)N([H])[H])c(O[C@@]([H])(c4c([H])c([H])c([H])c([H])c4C(F)(F)F)C([H])([H])[H])c3[H])c2[H])c([H])c1[H]
     RDKit          3D

 53 57  0  0  0  0  0  0  0  0999 V2000
   -2.1778    1.9459    0.7262 C   0  0  0  0  0  0  0  0  0  0  0  0
   -2.8857    0.7443    0.0173 C   0  0  1  0  0  0  0  0  0  0  0  0
   -2.7645   -0.3797    0.7982 O   0  0  0  0  0  0  0  0  0  0  0  0
   -1.6101   -1.1953    0.7261 C   0  0  0  0  0  0  0  0  0  0  0  0
   -0.5439   -0.9657   -0.0586 C   0  0  0  0  0  0  0  0  0  0  0  0
    0.4899   -1.8623   -0.0034 C   0  0  0  0  0  0  0  0  0  0  0  0
   -0.0450   -2.9984    1.1353 S   0  0  0  0  0  0  0  0  0  0  0  0
   -1.5715   -2.3196    1.5241 C   0  0  0  0  0  0  0  0  0  0  0  0
   -2.5878   -2.8037    2.4652 C   0  0  0  0  0  0  0  0  0  0  0  0
   -2.3340   -3.9823    3.1854 N   0  0  0  0  0  0  0  0  0  0  0  0
   -3.6407   -2.1764    2.6104 O   0  0  0  0  0  0  0  0  0  0  0  0
    1.7163   -1.8307   -0.7382 N   0  0  0  0  0  0  0  0  0  0  0  0
    2.0749   -2.5801   -1.7929 C   0  0  0  0  0  0  0  0  0  0  0  0
    3.3073   -2.2654   -2.2183 N   0  0  0  0  0  0  0  0  0  0  0  0
    3.7723   -1.2813   -1.4211 C   0  0  0  0  0  0  0  0  0  0  0  0
    4.9309   -0.5476   -1.3362 C   0  0  0  0  0  0  0  0  0  0  0  0
    5.1433    0.4260   -0.3917 C   0  0  0  0  0  0  0  0  0  0  0  0
    4.1440    0.6809    0.5177 C   0  0  0  0  0  0  0  0  0  0  0  0
    2.9525   -0.0530    0.4533 C   0  0  0  0  0  0  0  0  0  0  0  0
    2.7734   -1.0197   -0.5045 C   0  0  0  0  0  0  0  0  0  0  0  0
    6.4036    1.1768   -0.3507 C   0  0  0  0  0  0  0  0  0  0  0  0
    7.4675    1.0140   -1.1982 C   0  0  0  0  0  0  0  0  0  0  0  0
    8.5353    1.7968   -1.0005 C   0  0  0  0  0  0  0  0  0  0  0  0
    8.4769    2.6956    0.0321 C   0  0  0  0  0  0  0  0  0  0  0  0
    6.9289    2.4148    0.6918 S   0  0  0  0  0  0  0  0  0  0  0  0
   -4.2052    1.1429   -0.4494 C   0  0  0  0  0  0  0  0  0  0  0  0
   -4.7018    2.3868   -0.0281 C   0  0  0  0  0  0  0  0  0  0  0  0
   -5.9344    2.8775   -0.4002 C   0  0  0  0  0  0  0  0  0  0  0  0
   -6.7171    2.1091   -1.2258 C   0  0  0  0  0  0  0  0  0  0  0  0
   -6.2330    0.8918   -1.6387 C   0  0  0  0  0  0  0  0  0  0  0  0
   -4.9781    0.3857   -1.2636 C   0  0  0  0  0  0  0  0  0  0  0  0
   -4.5546   -0.9165   -1.7423 C   0  0  0  0  0  0  0  0  0  0  0  0
   -3.3482   -0.8996   -2.4627 F   0  0  0  0  0  0  0  0  0  0  0  0
   -5.4508   -1.2565   -2.8008 F   0  0  0  0  0  0  0  0  0  0  0  0
   -4.6915   -1.9807   -0.9159 F   0  0  0  0  0  0  0  0  0  0  0  0
   -2.1632    2.8367    0.1218 H   0  0  0  0  0  0  0  0  0  0  0  0
   -1.1285    1.5926    0.8244 H   0  0  0  0  0  0  0  0  0  0  0  0
   -2.6378    2.1517    1.7035 H   0  0  0  0  0  0  0  0  0  0  0  0
   -2.2345    0.6124   -0.8680 H   0  0  0  0  0  0  0  0  0  0  0  0
   -0.4481   -0.0894   -0.7454 H   0  0  0  0  0  0  0  0  0  0  0  0
   -2.1884   -4.0342    4.2211 H   0  0  0  0  0  0  0  0  0  0  0  0
   -2.2762   -4.9136    2.6893 H   0  0  0  0  0  0  0  0  0  0  0  0
    1.4590   -3.3382   -2.2454 H   0  0  0  0  0  0  0  0  0  0  0  0
    5.6987   -0.7879   -2.0844 H   0  0  0  0  0  0  0  0  0  0  0  0
    4.2665    1.4393    1.2803 H   0  0  0  0  0  0  0  0  0  0  0  0
    2.1784    0.1493    1.1632 H   0  0  0  0  0  0  0  0  0  0  0  0
    7.4461    0.2578   -2.0226 H   0  0  0  0  0  0  0  0  0  0  0  0
    9.4621    1.7588   -1.6236 H   0  0  0  0  0  0  0  0  0  0  0  0
    9.2623    3.4148    0.3366 H   0  0  0  0  0  0  0  0  0  0  0  0
   -4.0818    2.9994    0.6311 H   0  0  0  0  0  0  0  0  0  0  0  0
   -6.2439    3.8501   -0.0303 H   0  0  0  0  0  0  0  0  0  0  0  0
   -7.6697    2.4715   -1.5228 H   0  0  0  0  0  0  0  0  0  0  0  0
   -6.8421    0.2544   -2.2998 H   0  0  0  0  0  0  0  0  0  0  0  0
  1  2  1  0
  2  3  1  0
  3  4  1  0
  4  5  1  0
  5  6  2  0
  6  7  1  0
  7  8  1  0
  8  9  1  0
  9 10  1  0
  9 11  2  0
  6 12  1  0
 12 13  1  0
 13 14  2  0
 14 15  1  0
 15 16  2  0
 16 17  1  0
 17 18  2  0
 18 19  1  0
 19 20  2  0
 17 21  1  0
 21 22  2  0
 22 23  1  0
 23 24  2  0
 24 25  1  0
  2 26  1  0
 26 27  2  0
 27 28  1  0
 28 29  2  0
 29 30  1  0
 30 31  2  0
 31 32  1  0
 32 33  1  0
 32 34  1  0
 32 35  1  0
  8  4  2  0
 20 12  1  0
 25 21  1  0
 31 26  1  0
 20 15  1  0
  1 36  1  0
  1 37  1  0
  1 38  1  0
  2 39  1  6
  5 40  1  0
 10 41  1  0
 10 42  1  0
 13 43  1  0
 16 44  1  0
 18 45  1  0
 19 46  1  0
 22 47  1  0
 23 48  1  0
 24 49  1  0
 27 50  1  0
 28 51  1  0
 29 52  1  0
 30 53  1  0
M  END
$$$$
[H]c1nc(N([H])c2c([H])c([H])c([H])c([H])c2SC([H])([H])[H])nc2c1C([H])([H])C([H])([H])c1c(C(=O)N([H])[H])nn(C([H])([H])[H])c1-2
     RDKit          3D

 44 47  0  0  0  0  0  0  0  0999 V2000
   -4.1339    1.4554    3.2665 C   0  0  0  0  0  0  0  0  0  0  0  0
   -4.1978   -0.2683    2.7085 S   0  0  0  0  0  0  0  0  0  0  0  0
   -4.6325   -0.4112    1.0078 C   0  0  0  0  0  0  0  0  0  0  0  0
   -5.9617   -0.5198    0.6685 C   0  0  0  0  0  0  0  0  0  0  0  0
   -6.3134   -0.6320   -0.6573 C   0  0  0  0  0  0  0  0  0  0  0  0
   -5.3794   -0.6398   -1.6640 C   0  0  0  0  0  0  0  0  0  0  0  0
   -4.0261   -0.5292   -1.3191 C   0  0  0  0  0  0  0  0  0  0  0  0
   -3.6421   -0.4146    0.0109 C   0  0  0  0  0  0  0  0  0  0  0  0
   -2.3202   -0.3009    0.4325 N   0  0  0  0  0  0  0  0  0  0  0  0
   -1.1266   -0.2757   -0.3344 C   0  0  0  0  0  0  0  0  0  0  0  0
   -1.0216   -0.3579   -1.6516 N   0  0  0  0  0  0  0  0  0  0  0  0
    0.1278   -0.3308   -2.3493 C   0  0  0  0  0  0  0  0  0  0  0  0
    1.3338   -0.2076   -1.6774 C   0  0  0  0  0  0  0  0  0  0  0  0
    2.5618   -0.1823   -2.4770 C   0  0  0  0  0  0  0  0  0  0  0  0
    3.8233   -0.0498   -1.7173 C   0  0  0  0  0  0  0  0  0  0  0  0
    3.6775    0.0393   -0.2595 C   0  0  0  0  0  0  0  0  0  0  0  0
    4.6600    0.1676    0.7010 C   0  0  0  0  0  0  0  0  0  0  0  0
    4.0280    0.2070    1.8862 N   0  0  0  0  0  0  0  0  0  0  0  0
    2.7350    0.1144    1.7513 N   0  0  0  0  0  0  0  0  0  0  0  0
    1.7238    0.1186    2.7778 C   0  0  0  0  0  0  0  0  0  0  0  0
    2.4931    0.0093    0.4275 C   0  0  0  0  0  0  0  0  0  0  0  0
    1.2525   -0.1206   -0.3114 C   0  0  0  0  0  0  0  0  0  0  0  0
    0.0775   -0.1535    0.3239 N   0  0  0  0  0  0  0  0  0  0  0  0
    6.0950    0.2447    0.4722 C   0  0  0  0  0  0  0  0  0  0  0  0
    6.6655    0.1938   -0.8247 N   0  0  0  0  0  0  0  0  0  0  0  0
    6.8580    0.3603    1.4525 O   0  0  0  0  0  0  0  0  0  0  0  0
   -4.4911    2.0789    2.4024 H   0  0  0  0  0  0  0  0  0  0  0  0
   -4.8278    1.6573    4.1007 H   0  0  0  0  0  0  0  0  0  0  0  0
   -3.0941    1.7868    3.4714 H   0  0  0  0  0  0  0  0  0  0  0  0
   -6.7198   -0.5152    1.4607 H   0  0  0  0  0  0  0  0  0  0  0  0
   -7.3497   -0.7188   -0.9521 H   0  0  0  0  0  0  0  0  0  0  0  0
   -5.6346   -0.7270   -2.7115 H   0  0  0  0  0  0  0  0  0  0  0  0
   -3.3088   -0.5373   -2.1241 H   0  0  0  0  0  0  0  0  0  0  0  0
   -2.1811   -0.2194    1.5064 H   0  0  0  0  0  0  0  0  0  0  0  0
    0.1083   -0.4057   -3.4398 H   0  0  0  0  0  0  0  0  0  0  0  0
    2.4861    0.6323   -3.2555 H   0  0  0  0  0  0  0  0  0  0  0  0
    2.6250   -1.1256   -3.0963 H   0  0  0  0  0  0  0  0  0  0  0  0
    4.5374   -0.8739   -1.9307 H   0  0  0  0  0  0  0  0  0  0  0  0
    4.3674    0.8853   -2.0410 H   0  0  0  0  0  0  0  0  0  0  0  0
    1.0953    1.0148    2.7893 H   0  0  0  0  0  0  0  0  0  0  0  0
    1.0549   -0.7781    2.6433 H   0  0  0  0  0  0  0  0  0  0  0  0
    2.2250   -0.0531    3.7695 H   0  0  0  0  0  0  0  0  0  0  0  0
    6.8971    1.1065   -1.2807 H   0  0  0  0  0  0  0  0  0  0  0  0
    6.8534   -0.7242   -1.3194 H   0  0  0  0  0  0  0  0  0  0  0  0
  1  2  1  0
  2  3  1  0
  3  4  2  0
  4  5  1  0
  5  6  2  0
  6  7  1  0
  7  8  2  0
  8  9  1  0
  9 10  1  0
 10 11  2  0
 11 12  1  0
 12 13  2  0
 13 14  1  0
 14 15  1  0
 15 16  1  0
 16 17  1  0
 17 18  2  0
 18 19  1  0
 19 20  1  0
 19 21  1  0
 21 22  1  0
 22 23  2  0
 17 24  1  0
 24 25  1  0
 24 26  2  0
  8  3  1  0
 23 10  1  0
 22 13  1  0
 21 16  2  0
  1 27  1  0
  1 28  1  0
  1 29  1  0
  4 30  1  0
  5 31  1  0
  6 32  1  0
  7 33  1  0
  9 34  1  0
 12 35  1  0
 14 36  1  0
 14 37  1  0
 15 38  1  0
 15 39  1  0
 20 40  1  0
 20 41  1  0
 20 42  1  0
 25 43  1  0
 25 44  1  0
M  END
$$$$
[H]c1nc(N([H])c2c([H])c(Cl)c([H])c(C([H])([H])C([H])([H])C([H])([H])N(C([H])([H])[H])C([H])([H])[H])c2[H])nc2c1C([H])([H])C(=S)N([H])c1c([H])c(Cl)c([H])c([H])c1-2
     RDKit          3D

 54 57  0  0  0  0  0  0  0  0999 V2000
    7.3947   -1.9591   -0.3189 C   0  0  0  0  0  0  0  0  0  0  0  0
    6.1028   -1.3162   -0.1467 N   0  0  0  0  0  0  0  0  0  0  0  0
    5.1849   -1.6948   -1.2163 C   0  0  0  0  0  0  0  0  0  0  0  0
    6.2767    0.1422   -0.1678 C   0  0  0  0  0  0  0  0  0  0  0  0
    4.9415    0.8110    0.0197 C   0  0  0  0  0  0  0  0  0  0  0  0
    4.3599    0.3892    1.3536 C   0  0  0  0  0  0  0  0  0  0  0  0
    3.0352    1.0247    1.5883 C   0  0  0  0  0  0  0  0  0  0  0  0
    2.8979    2.2352    2.2181 C   0  0  0  0  0  0  0  0  0  0  0  0
    1.6706    2.7944    2.4194 C   0  0  0  0  0  0  0  0  0  0  0  0
    1.4584    4.3387    3.2198 Cl  0  0  0  0  0  0  0  0  0  0  0  0
    0.5535    2.1064    1.9692 C   0  0  0  0  0  0  0  0  0  0  0  0
    0.6206    0.8954    1.3329 C   0  0  0  0  0  0  0  0  0  0  0  0
   -0.4828    0.1594    0.8350 N   0  0  0  0  0  0  0  0  0  0  0  0
   -1.7524    0.6761    0.6020 C   0  0  0  0  0  0  0  0  0  0  0  0
   -2.2057    1.9053    0.7684 N   0  0  0  0  0  0  0  0  0  0  0  0
   -3.4308    2.3648    0.5346 C   0  0  0  0  0  0  0  0  0  0  0  0
   -4.3564    1.4254    0.0508 C   0  0  0  0  0  0  0  0  0  0  0  0
   -5.6830    2.0055   -0.1737 C   0  0  0  0  0  0  0  0  0  0  0  0
   -6.3712    1.5780   -1.4031 C   0  0  0  0  0  0  0  0  0  0  0  0
   -6.9091    2.7229   -2.4446 S   0  0  0  0  0  0  0  0  0  0  0  0
   -6.6261    0.2064   -1.7832 N   0  0  0  0  0  0  0  0  0  0  0  0
   -5.9374   -0.9638   -1.3723 C   0  0  0  0  0  0  0  0  0  0  0  0
   -6.5683   -2.1142   -1.7710 C   0  0  0  0  0  0  0  0  0  0  0  0
   -5.9998   -3.3444   -1.4325 C   0  0  0  0  0  0  0  0  0  0  0  0
   -6.7306   -4.8593   -1.8959 Cl  0  0  0  0  0  0  0  0  0  0  0  0
   -4.8262   -3.3643   -0.7108 C   0  0  0  0  0  0  0  0  0  0  0  0
   -4.1825   -2.1970   -0.3041 C   0  0  0  0  0  0  0  0  0  0  0  0
   -4.7641   -1.0000   -0.6509 C   0  0  0  0  0  0  0  0  0  0  0  0
   -3.9521    0.1267   -0.1463 C   0  0  0  0  0  0  0  0  0  0  0  0
   -2.6928   -0.2135    0.1257 N   0  0  0  0  0  0  0  0  0  0  0  0
    1.9144    0.3735    1.1569 C   0  0  0  0  0  0  0  0  0  0  0  0
    7.3112   -2.7851   -1.0719 H   0  0  0  0  0  0  0  0  0  0  0  0
    8.1131   -1.2074   -0.6417 H   0  0  0  0  0  0  0  0  0  0  0  0
    7.6753   -2.4674    0.6437 H   0  0  0  0  0  0  0  0  0  0  0  0
    5.5335   -2.6691   -1.6288 H   0  0  0  0  0  0  0  0  0  0  0  0
    4.1941   -1.8381   -0.7794 H   0  0  0  0  0  0  0  0  0  0  0  0
    5.2296   -0.8912   -1.9731 H   0  0  0  0  0  0  0  0  0  0  0  0
    7.0289    0.4377    0.5681 H   0  0  0  0  0  0  0  0  0  0  0  0
    6.6927    0.3686   -1.1745 H   0  0  0  0  0  0  0  0  0  0  0  0
    4.2826    0.4924   -0.8133 H   0  0  0  0  0  0  0  0  0  0  0  0
    5.0312    1.9107   -0.0625 H   0  0  0  0  0  0  0  0  0  0  0  0
    5.0071    0.6290    2.1947 H   0  0  0  0  0  0  0  0  0  0  0  0
    4.2036   -0.7052    1.3315 H   0  0  0  0  0  0  0  0  0  0  0  0
    3.7848    2.7567    2.5625 H   0  0  0  0  0  0  0  0  0  0  0  0
   -0.3899    2.5780    2.1630 H   0  0  0  0  0  0  0  0  0  0  0  0
   -0.3175   -0.8841    0.6273 H   0  0  0  0  0  0  0  0  0  0  0  0
   -3.7354    3.3826    0.6923 H   0  0  0  0  0  0  0  0  0  0  0  0
   -6.3349    1.6811    0.6869 H   0  0  0  0  0  0  0  0  0  0  0  0
   -5.6773    3.1153   -0.1078 H   0  0  0  0  0  0  0  0  0  0  0  0
   -7.4175    0.0719   -2.4413 H   0  0  0  0  0  0  0  0  0  0  0  0
   -7.4863   -2.1172   -2.3366 H   0  0  0  0  0  0  0  0  0  0  0  0
   -4.3708   -4.3251   -0.4393 H   0  0  0  0  0  0  0  0  0  0  0  0
   -3.2683   -2.1914    0.2582 H   0  0  0  0  0  0  0  0  0  0  0  0
    1.9702   -0.5970    0.6466 H   0  0  0  0  0  0  0  0  0  0  0  0
  1  2  1  0
  2  3  1  0
  2  4  1  0
  4  5  1  0
  5  6  1  0
  6  7  1  0
  7  8  2  0
  8  9  1  0
  9 10  1  0
  9 11  2  0
 11 12  1  0
 12 13  1  0
 13 14  1  0
 14 15  2  0
 15 16  1  0
 16 17  2  0
 17 18  1  0
 18 19  1  0
 19 20  2  0
 19 21  1  0
 21 22  1  0
 22 23  2  0
 23 24  1  0
 24 25  1  0
 24 26  2  0
 26 27  1  0
 27 28  2  0
 28 29  1  0
 29 30  2  0
 12 31  2  0
 31  7  1  0
 30 14  1  0
 29 17  1  0
 28 22  1  0
  1 32  1  0
  1 33  1  0
  1 34  1  0
  3 35  1  0
  3 36  1  0
  3 37  1  0
  4 38  1  0
  4 39  1  0
  5 40  1  0
  5 41  1  0
  6 42  1  0
  6 43  1  0
  8 44  1  0
 11 45  1  0
 13 46  1  0
 16 47  1  0
 18 48  1  0
 18 49  1  0
 21 50  1  0
 23 51  1  0
 26 52  1  0
 27 53  1  0
 31 54  1  0
M  END
$$$$
[H]c1nc(N([H])c2c([H])c([H])c([H])c(C([H])([H])C([H])([H])C([H])([H])N(C([H])([H])[H])C([H])([H])[H])c2[H])nc2c1C([H])([H])C(=S)N([H])c1c([H])c(Cl)c([H])c([H])c1-2
     RDKit          3D

 54 57  0  0  0  0  0  0  0  0999 V2000
    6.6239   -2.1752   -1.5967 C   0  0  0  0  0  0  0  0  0  0  0  0
    5.6571   -1.7104   -0.6437 N   0  0  0  0  0  0  0  0  0  0  0  0
    6.0760   -1.9171    0.7227 C   0  0  0  0  0  0  0  0  0  0  0  0
    5.2297   -0.3495   -0.8745 C   0  0  0  0  0  0  0  0  0  0  0  0
    4.2286    0.0148    0.1765 C   0  0  0  0  0  0  0  0  0  0  0  0
    3.7574    1.4372   -0.0332 C   0  0  0  0  0  0  0  0  0  0  0  0
    2.7579    1.8261    1.0007 C   0  0  0  0  0  0  0  0  0  0  0  0
    3.0758    2.3941    2.1878 C   0  0  0  0  0  0  0  0  0  0  0  0
    2.1229    2.7347    3.1075 C   0  0  0  0  0  0  0  0  0  0  0  0
    0.8153    2.4934    2.8169 C   0  0  0  0  0  0  0  0  0  0  0  0
    0.4284    1.9109    1.6116 C   0  0  0  0  0  0  0  0  0  0  0  0
   -0.9490    1.7170    1.3837 N   0  0  0  0  0  0  0  0  0  0  0  0
   -1.5458    0.8009    0.4792 C   0  0  0  0  0  0  0  0  0  0  0  0
   -0.9159   -0.0575   -0.3154 N   0  0  0  0  0  0  0  0  0  0  0  0
   -1.5415   -0.9010   -1.1509 C   0  0  0  0  0  0  0  0  0  0  0  0
   -2.9317   -0.9314   -1.2410 C   0  0  0  0  0  0  0  0  0  0  0  0
   -3.3256   -1.9383   -2.2242 C   0  0  0  0  0  0  0  0  0  0  0  0
   -4.6954   -2.4247   -2.1150 C   0  0  0  0  0  0  0  0  0  0  0  0
   -4.9154   -3.9355   -2.7155 S   0  0  0  0  0  0  0  0  0  0  0  0
   -5.9117   -1.8752   -1.5949 N   0  0  0  0  0  0  0  0  0  0  0  0
   -6.0428   -0.6819   -0.8451 C   0  0  0  0  0  0  0  0  0  0  0  0
   -7.3824   -0.3737   -0.6623 C   0  0  0  0  0  0  0  0  0  0  0  0
   -7.7343    0.7558    0.0458 C   0  0  0  0  0  0  0  0  0  0  0  0
   -9.4265    1.1816    0.2999 Cl  0  0  0  0  0  0  0  0  0  0  0  0
   -6.7392    1.5633    0.5624 C   0  0  0  0  0  0  0  0  0  0  0  0
   -5.3931    1.2327    0.3656 C   0  0  0  0  0  0  0  0  0  0  0  0
   -5.0388    0.1022   -0.3431 C   0  0  0  0  0  0  0  0  0  0  0  0
   -3.5832   -0.0534   -0.4285 C   0  0  0  0  0  0  0  0  0  0  0  0
   -2.9157    0.7669    0.3866 N   0  0  0  0  0  0  0  0  0  0  0  0
    1.4135    1.5851    0.7168 C   0  0  0  0  0  0  0  0  0  0  0  0
    6.5637   -3.2969   -1.5913 H   0  0  0  0  0  0  0  0  0  0  0  0
    6.3633   -1.7915   -2.5996 H   0  0  0  0  0  0  0  0  0  0  0  0
    7.6769   -1.9154   -1.3201 H   0  0  0  0  0  0  0  0  0  0  0  0
    6.7584   -2.8081    0.7467 H   0  0  0  0  0  0  0  0  0  0  0  0
    6.6055   -1.0445    1.1415 H   0  0  0  0  0  0  0  0  0  0  0  0
    5.1864   -2.1864    1.3391 H   0  0  0  0  0  0  0  0  0  0  0  0
    4.7320   -0.3374   -1.8744 H   0  0  0  0  0  0  0  0  0  0  0  0
    6.0946    0.3130   -0.8350 H   0  0  0  0  0  0  0  0  0  0  0  0
    4.6983   -0.0935    1.1842 H   0  0  0  0  0  0  0  0  0  0  0  0
    3.3891   -0.7006    0.1260 H   0  0  0  0  0  0  0  0  0  0  0  0
    4.6284    2.1220   -0.0475 H   0  0  0  0  0  0  0  0  0  0  0  0
    3.2947    1.4810   -1.0384 H   0  0  0  0  0  0  0  0  0  0  0  0
    4.1261    2.5817    2.4084 H   0  0  0  0  0  0  0  0  0  0  0  0
    2.4016    3.1917    4.0579 H   0  0  0  0  0  0  0  0  0  0  0  0
    0.0451    2.7669    3.5584 H   0  0  0  0  0  0  0  0  0  0  0  0
   -1.6003    2.3498    1.9696 H   0  0  0  0  0  0  0  0  0  0  0  0
   -0.9241   -1.5719   -1.7662 H   0  0  0  0  0  0  0  0  0  0  0  0
   -2.6246   -2.7885   -2.2230 H   0  0  0  0  0  0  0  0  0  0  0  0
   -3.2215   -1.4763   -3.2502 H   0  0  0  0  0  0  0  0  0  0  0  0
   -6.7909   -2.3997   -1.7826 H   0  0  0  0  0  0  0  0  0  0  0  0
   -8.1460   -1.0119   -1.0703 H   0  0  0  0  0  0  0  0  0  0  0  0
   -7.0203    2.4473    1.1165 H   0  0  0  0  0  0  0  0  0  0  0  0
   -4.5996    1.8396    0.7543 H   0  0  0  0  0  0  0  0  0  0  0  0
    1.1650    1.1377   -0.2577 H   0  0  0  0  0  0  0  0  0  0  0  0
  1  2  1  0
  2  3  1  0
  2  4  1  0
  4  5  1  0
  5  6  1  0
  6  7  1  0
  7  8  2  0
  8  9  1  0
  9 10  2  0
 10 11  1  0
 11 12  1  0
 12 13  1  0
 13 14  2  0
 14 15  1  0
 15 16  2  0
 16 17  1  0
 17 18  1  0
 18 19  2  0
 18 20  1  0
 20 21  1  0
 21 22  2  0
 22 23  1  0
 23 24  1  0
 23 25  2  0
 25 26  1  0
 26 27  2  0
 27 28  1  0
 28 29  2  0
 11 30  2  0
 30  7  1  0
 29 13  1  0
 28 16  1  0
 27 21  1  0
  1 31  1  0
  1 32  1  0
  1 33  1  0
  3 34  1  0
  3 35  1  0
  3 36  1  0
  4 37  1  0
  4 38  1  0
  5 39  1  0
  5 40  1  0
  6 41  1  0
  6 42  1  0
  8 43  1  0
  9 44  1  0
 10 45  1  0
 12 46  1  0
 15 47  1  0
 17 48  1  0
 17 49  1  0
 20 50  1  0
 22 51  1  0
 25 52  1  0
 26 53  1  0
 30 54  1  0
M  END
$$$$
[H]c1nc([H])c([H])c(-c2c([H])c([H])c3c(nc([H])n3-c3sc(C(=O)N([H])[H])c(O[C@@]([H])(c4c([H])c([H])c([H])c([H])c4C(F)(F)F)C([H])([H])[H])c3[H])c2[H])c1[H]
     RDKit          3D

 55 59  0  0  0  0  0  0  0  0999 V2000
   -3.9953    2.3763   -0.8355 C   0  0  0  0  0  0  0  0  0  0  0  0
   -3.5962    0.9471   -1.2730 C   0  0  1  0  0  0  0  0  0  0  0  0
   -3.5114    0.1208   -0.1433 O   0  0  0  0  0  0  0  0  0  0  0  0
   -2.3415    0.0188    0.6739 C   0  0  0  0  0  0  0  0  0  0  0  0
   -1.1799    0.6877    0.5020 C   0  0  0  0  0  0  0  0  0  0  0  0
   -0.1710    0.4511    1.3950 C   0  0  0  0  0  0  0  0  0  0  0  0
   -0.8496   -0.6917    2.4544 S   0  0  0  0  0  0  0  0  0  0  0  0
   -2.3866   -0.8457    1.7498 C   0  0  0  0  0  0  0  0  0  0  0  0
   -3.5201   -1.7006    2.1757 C   0  0  0  0  0  0  0  0  0  0  0  0
   -3.3291   -2.5124    3.3207 N   0  0  0  0  0  0  0  0  0  0  0  0
   -4.6012   -1.7327    1.5847 O   0  0  0  0  0  0  0  0  0  0  0  0
    1.1489    1.0554    1.4001 N   0  0  0  0  0  0  0  0  0  0  0  0
    1.3195    2.3868    1.4704 C   0  0  0  0  0  0  0  0  0  0  0  0
    2.6183    2.7142    1.4621 N   0  0  0  0  0  0  0  0  0  0  0  0
    3.2749    1.5287    1.3828 C   0  0  0  0  0  0  0  0  0  0  0  0
    4.6201    1.2326    1.3390 C   0  0  0  0  0  0  0  0  0  0  0  0
    5.0491   -0.0951    1.2566 C   0  0  0  0  0  0  0  0  0  0  0  0
    4.0891   -1.0811    1.2215 C   0  0  0  0  0  0  0  0  0  0  0  0
    2.7247   -0.8214    1.2637 C   0  0  0  0  0  0  0  0  0  0  0  0
    2.3436    0.4944    1.3444 C   0  0  0  0  0  0  0  0  0  0  0  0
    6.4761   -0.3418    1.2150 C   0  0  0  0  0  0  0  0  0  0  0  0
    7.3589    0.5320    0.6362 C   0  0  0  0  0  0  0  0  0  0  0  0
    8.7038    0.2494    0.6248 C   0  0  0  0  0  0  0  0  0  0  0  0
    9.1793   -0.8752    1.1735 N   0  0  0  0  0  0  0  0  0  0  0  0
    8.3404   -1.7356    1.7398 C   0  0  0  0  0  0  0  0  0  0  0  0
    6.9956   -1.4866    1.7693 C   0  0  0  0  0  0  0  0  0  0  0  0
   -4.3744    0.4936   -2.4038 C   0  0  0  0  0  0  0  0  0  0  0  0
   -5.5003    1.2636   -2.8110 C   0  0  0  0  0  0  0  0  0  0  0  0
   -6.2943    0.9250   -3.8638 C   0  0  0  0  0  0  0  0  0  0  0  0
   -5.9978   -0.2061   -4.5625 C   0  0  0  0  0  0  0  0  0  0  0  0
   -4.9227   -0.9539   -4.1843 C   0  0  0  0  0  0  0  0  0  0  0  0
   -4.0814   -0.6321   -3.1008 C   0  0  0  0  0  0  0  0  0  0  0  0
   -2.9764   -1.4975   -2.7802 C   0  0  0  0  0  0  0  0  0  0  0  0
   -1.7258   -0.9437   -2.7734 F   0  0  0  0  0  0  0  0  0  0  0  0
   -2.8221   -2.3885   -3.8963 F   0  0  0  0  0  0  0  0  0  0  0  0
   -3.1998   -2.4269   -1.7794 F   0  0  0  0  0  0  0  0  0  0  0  0
   -4.9770    2.3747   -0.3228 H   0  0  0  0  0  0  0  0  0  0  0  0
   -3.9604    3.0784   -1.6872 H   0  0  0  0  0  0  0  0  0  0  0  0
   -3.2759    2.7739   -0.0917 H   0  0  0  0  0  0  0  0  0  0  0  0
   -2.5532    1.1094   -1.5826 H   0  0  0  0  0  0  0  0  0  0  0  0
   -1.0577    1.4113   -0.3433 H   0  0  0  0  0  0  0  0  0  0  0  0
   -2.7260   -2.2187    4.1143 H   0  0  0  0  0  0  0  0  0  0  0  0
   -3.8137   -3.4311    3.3565 H   0  0  0  0  0  0  0  0  0  0  0  0
    0.5310    3.1431    1.5287 H   0  0  0  0  0  0  0  0  0  0  0  0
    5.3531    2.0264    1.3682 H   0  0  0  0  0  0  0  0  0  0  0  0
    4.4289   -2.1047    1.1577 H   0  0  0  0  0  0  0  0  0  0  0  0
    1.9885   -1.5985    1.2353 H   0  0  0  0  0  0  0  0  0  0  0  0
    7.0001    1.4520    0.1838 H   0  0  0  0  0  0  0  0  0  0  0  0
    9.3971    0.9319    0.1727 H   0  0  0  0  0  0  0  0  0  0  0  0
    8.7025   -2.6563    2.1921 H   0  0  0  0  0  0  0  0  0  0  0  0
    6.3229   -2.2065    2.2389 H   0  0  0  0  0  0  0  0  0  0  0  0
   -5.7252    2.1613   -2.2456 H   0  0  0  0  0  0  0  0  0  0  0  0
   -7.1451    1.5695   -4.1170 H   0  0  0  0  0  0  0  0  0  0  0  0
   -6.6278   -0.4758   -5.3987 H   0  0  0  0  0  0  0  0  0  0  0  0
   -4.7275   -1.8492   -4.7745 H   0  0  0  0  0  0  0  0  0  0  0  0
  1  2  1  0
  2  3  1  0
  3  4  1  0
  4  5  1  0
  5  6  2  0
  6  7  1  0
  7  8  1  0
  8  9  1  0
  9 10  1  0
  9 11  2  0
  6 12  1  0
 12 13  1  0
 13 14  2  0
 14 15  1  0
 15 16  2  0
 16 17  1  0
 17 18  2  0
 18 19  1  0
 19 20  2  0
 17 21  1  0
 21 22  2  0
 22 23  1  0
 23 24  2  0
 24 25  1  0
 25 26  2  0
  2 27  1  0
 27 28  2  0
 28 29  1  0
 29 30  2  0
 30 31  1  0
 31 32  2  0
 32 33  1  0
 33 34  1  0
 33 35  1  0
 33 36  1  0
  8  4  2  0
 20 12  1  0
 26 21  1  0
 32 27  1  0
 20 15  1  0
  1 37  1  0
  1 38  1  0
  1 39  1  0
  2 40  1  6
  5 41  1  0
 10 42  1  0
 10 43  1  0
 13 44  1  0
 16 45  1  0
 18 46  1  0
 19 47  1  0
 22 48  1  0
 23 49  1  0
 25 50  1  0
 26 51  1  0
 28 52  1  0
 29 53  1  0
 30 54  1  0
 31 55  1  0
M  END
$$$$
[H]c1nc([H])c([H])c(-c2c([H])c([H])c3c(nc([H])n3-c3sc(C(=O)N([H])[H])c(O[C@@]([H])(c4c([H])c([H])c([H])c([H])c4Cl)C([H])([H])[H])c3[H])c2[H])c1[H]
     RDKit          3D

 52 56  0  0  0  0  0  0  0  0999 V2000
   -5.2007   -1.4865   -2.0463 C   0  0  0  0  0  0  0  0  0  0  0  0
   -4.5227   -0.5849   -0.9568 C   0  0  1  0  0  0  0  0  0  0  0  0
   -3.2509   -0.3881   -1.1950 O   0  0  0  0  0  0  0  0  0  0  0  0
   -2.0111   -0.5830   -0.5590 C   0  0  0  0  0  0  0  0  0  0  0  0
   -0.9197   -0.1842   -1.3397 C   0  0  0  0  0  0  0  0  0  0  0  0
    0.2999   -0.3550   -0.7862 C   0  0  0  0  0  0  0  0  0  0  0  0
   -0.0090   -1.0261    0.7173 S   0  0  0  0  0  0  0  0  0  0  0  0
   -1.7754   -1.0809    0.6349 C   0  0  0  0  0  0  0  0  0  0  0  0
   -2.5442   -1.4966    1.8327 C   0  0  0  0  0  0  0  0  0  0  0  0
   -3.6537   -0.8962    2.3847 N   0  0  0  0  0  0  0  0  0  0  0  0
   -2.1201   -2.5550    2.4609 O   0  0  0  0  0  0  0  0  0  0  0  0
    1.5778    0.0094   -1.3623 N   0  0  0  0  0  0  0  0  0  0  0  0
    1.7161    0.5600   -2.6074 C   0  0  0  0  0  0  0  0  0  0  0  0
    3.0166    0.7993   -2.8119 N   0  0  0  0  0  0  0  0  0  0  0  0
    3.7140    0.4106   -1.7191 C   0  0  0  0  0  0  0  0  0  0  0  0
    5.0428    0.4197   -1.3823 C   0  0  0  0  0  0  0  0  0  0  0  0
    5.5083   -0.0510   -0.1617 C   0  0  0  0  0  0  0  0  0  0  0  0
    4.5499   -0.5299    0.6865 C   0  0  0  0  0  0  0  0  0  0  0  0
    3.2076   -0.5682    0.4135 C   0  0  0  0  0  0  0  0  0  0  0  0
    2.7875   -0.0797   -0.8320 C   0  0  0  0  0  0  0  0  0  0  0  0
    6.9168   -0.0222    0.1592 C   0  0  0  0  0  0  0  0  0  0  0  0
    7.3124    0.1330    1.4749 C   0  0  0  0  0  0  0  0  0  0  0  0
    8.6842    0.1593    1.7854 C   0  0  0  0  0  0  0  0  0  0  0  0
    9.5998    0.0345    0.8077 N   0  0  0  0  0  0  0  0  0  0  0  0
    9.2398   -0.1174   -0.4816 C   0  0  0  0  0  0  0  0  0  0  0  0
    7.8717   -0.1431   -0.8039 C   0  0  0  0  0  0  0  0  0  0  0  0
   -5.4780    0.4862   -0.5789 C   0  0  0  0  0  0  0  0  0  0  0  0
   -6.8636    0.2139   -0.6236 C   0  0  0  0  0  0  0  0  0  0  0  0
   -7.8254    1.0729   -0.2214 C   0  0  0  0  0  0  0  0  0  0  0  0
   -7.4667    2.3036    0.2686 C   0  0  0  0  0  0  0  0  0  0  0  0
   -6.1359    2.6264    0.3358 C   0  0  0  0  0  0  0  0  0  0  0  0
   -5.1616    1.7150   -0.0886 C   0  0  0  0  0  0  0  0  0  0  0  0
   -3.4978    2.2482   -0.0060 Cl  0  0  0  0  0  0  0  0  0  0  0  0
   -4.3813   -1.8163   -2.7530 H   0  0  0  0  0  0  0  0  0  0  0  0
   -5.9759   -0.8979   -2.5609 H   0  0  0  0  0  0  0  0  0  0  0  0
   -5.6282   -2.3724   -1.6086 H   0  0  0  0  0  0  0  0  0  0  0  0
   -4.6057   -1.3024   -0.0678 H   0  0  0  0  0  0  0  0  0  0  0  0
   -1.0080    0.2470   -2.3558 H   0  0  0  0  0  0  0  0  0  0  0  0
   -3.6671    0.1083    2.6906 H   0  0  0  0  0  0  0  0  0  0  0  0
   -4.5309   -1.4417    2.5221 H   0  0  0  0  0  0  0  0  0  0  0  0
    0.8735    0.7478   -3.2657 H   0  0  0  0  0  0  0  0  0  0  0  0
    5.7470    0.8089   -2.0848 H   0  0  0  0  0  0  0  0  0  0  0  0
    4.8875   -0.9099    1.6668 H   0  0  0  0  0  0  0  0  0  0  0  0
    2.4949   -0.9641    1.1140 H   0  0  0  0  0  0  0  0  0  0  0  0
    6.6414    0.2375    2.3026 H   0  0  0  0  0  0  0  0  0  0  0  0
    8.9688    0.2809    2.8378 H   0  0  0  0  0  0  0  0  0  0  0  0
    9.9962   -0.2094   -1.2314 H   0  0  0  0  0  0  0  0  0  0  0  0
    7.6430   -0.2661   -1.8553 H   0  0  0  0  0  0  0  0  0  0  0  0
   -7.1665   -0.7516   -0.9982 H   0  0  0  0  0  0  0  0  0  0  0  0
   -8.8863    0.8504   -0.2598 H   0  0  0  0  0  0  0  0  0  0  0  0
   -8.2309    3.0219    0.5991 H   0  0  0  0  0  0  0  0  0  0  0  0
   -5.7801    3.5848    0.7144 H   0  0  0  0  0  0  0  0  0  0  0  0
  1  2  1  0
  2  3  1  0
  3  4  1  0
  4  5  1  0
  5  6  2  0
  6  7  1  0
  7  8  1  0
  8  9  1  0
  9 10  1  0
  9 11  2  0
  6 12  1  0
 12 13  1  0
 13 14  2  0
 14 15  1  0
 15 16  2  0
 16 17  1  0
 17 18  2  0
 18 19  1  0
 19 20  2  0
 17 21  1  0
 21 22  2  0
 22 23  1  0
 23 24  2  0
 24 25  1  0
 25 26  2  0
  2 27  1  0
 27 28  2  0
 28 29  1  0
 29 30  2  0
 30 31  1  0
 31 32  2  0
 32 33  1  0
  8  4  2  0
 20 12  1  0
 26 21  1  0
 32 27  1  0
 20 15  1  0
  1 34  1  0
  1 35  1  0
  1 36  1  0
  2 37  1  1
  5 38  1  0
 10 39  1  0
 10 40  1  0
 13 41  1  0
 16 42  1  0
 18 43  1  0
 19 44  1  0
 22 45  1  0
 23 46  1  0
 25 47  1  0
 26 48  1  0
 28 49  1  0
 29 50  1  0
 30 51  1  0
 31 52  1  0
M  END
$$$$
[H]c1nn(C([H])([H])[H])c([H])c1-c1c([H])c([H])c2c(nc([H])n2-c2sc(C(=O)N([H])[H])c(O[C@@]([H])(c3c([H])c([H])c([H])c([H])c3Cl)C([H])([H])[H])c2[H])c1[H]
     RDKit          3D

 53 57  0  0  0  0  0  0  0  0999 V2000
   -3.2546   -2.0818    0.7426 C   0  0  0  0  0  0  0  0  0  0  0  0
   -3.4142   -0.5594    0.6416 C   0  0  1  0  0  0  0  0  0  0  0  0
   -3.5094   -0.2528   -0.7115 O   0  0  0  0  0  0  0  0  0  0  0  0
   -2.4416    0.2535   -1.4998 C   0  0  0  0  0  0  0  0  0  0  0  0
   -1.1950    0.4817   -1.0638 C   0  0  0  0  0  0  0  0  0  0  0  0
   -0.2847    0.9688   -1.9410 C   0  0  0  0  0  0  0  0  0  0  0  0
   -1.1925    1.1038   -3.3828 S   0  0  0  0  0  0  0  0  0  0  0  0
   -2.6988    0.5360   -2.8198 C   0  0  0  0  0  0  0  0  0  0  0  0
   -3.9303    0.4005   -3.5883 C   0  0  0  0  0  0  0  0  0  0  0  0
   -4.0120    0.7566   -4.9542 N   0  0  0  0  0  0  0  0  0  0  0  0
   -4.9496   -0.0452   -3.0226 O   0  0  0  0  0  0  0  0  0  0  0  0
    1.1051    1.2993   -1.7337 N   0  0  0  0  0  0  0  0  0  0  0  0
    1.6732    2.4234   -2.2065 C   0  0  0  0  0  0  0  0  0  0  0  0
    2.9723    2.4701   -1.8653 N   0  0  0  0  0  0  0  0  0  0  0  0
    3.2430    1.3493   -1.1571 C   0  0  0  0  0  0  0  0  0  0  0  0
    4.4027    0.8958   -0.5736 C   0  0  0  0  0  0  0  0  0  0  0  0
    4.3913   -0.3092    0.1021 C   0  0  0  0  0  0  0  0  0  0  0  0
    3.2271   -1.0270    0.1772 C   0  0  0  0  0  0  0  0  0  0  0  0
    2.0541   -0.5529   -0.4217 C   0  0  0  0  0  0  0  0  0  0  0  0
    2.0506    0.6323   -1.0904 C   0  0  0  0  0  0  0  0  0  0  0  0
    5.6277   -0.7909    0.7214 C   0  0  0  0  0  0  0  0  0  0  0  0
    6.0326   -2.0896    0.9083 C   0  0  0  0  0  0  0  0  0  0  0  0
    7.2316   -2.0440    1.5139 N   0  0  0  0  0  0  0  0  0  0  0  0
    7.5959   -0.7915    1.7144 N   0  0  0  0  0  0  0  0  0  0  0  0
    8.8110   -0.3001    2.3318 C   0  0  0  0  0  0  0  0  0  0  0  0
    6.6247    0.0044    1.2350 C   0  0  0  0  0  0  0  0  0  0  0  0
   -4.6170   -0.1139    1.3478 C   0  0  0  0  0  0  0  0  0  0  0  0
   -5.5257   -0.9910    1.9245 C   0  0  0  0  0  0  0  0  0  0  0  0
   -6.6577   -0.5959    2.5860 C   0  0  0  0  0  0  0  0  0  0  0  0
   -6.9367    0.7427    2.7013 C   0  0  0  0  0  0  0  0  0  0  0  0
   -6.0541    1.6379    2.1397 C   0  0  0  0  0  0  0  0  0  0  0  0
   -4.8994    1.2217    1.4655 C   0  0  0  0  0  0  0  0  0  0  0  0
   -3.8983    2.4873    0.8224 Cl  0  0  0  0  0  0  0  0  0  0  0  0
   -2.2796   -2.3139    0.2686 H   0  0  0  0  0  0  0  0  0  0  0  0
   -3.1719   -2.3894    1.8003 H   0  0  0  0  0  0  0  0  0  0  0  0
   -4.0782   -2.6024    0.2525 H   0  0  0  0  0  0  0  0  0  0  0  0
   -2.5145   -0.1636    1.1464 H   0  0  0  0  0  0  0  0  0  0  0  0
   -0.9057    0.2781   -0.0069 H   0  0  0  0  0  0  0  0  0  0  0  0
   -4.6900    1.4558   -5.3245 H   0  0  0  0  0  0  0  0  0  0  0  0
   -3.3628    0.2978   -5.6223 H   0  0  0  0  0  0  0  0  0  0  0  0
    1.1850    3.2058   -2.7853 H   0  0  0  0  0  0  0  0  0  0  0  0
    5.2984    1.4839   -0.6517 H   0  0  0  0  0  0  0  0  0  0  0  0
    3.1853   -1.9790    0.7022 H   0  0  0  0  0  0  0  0  0  0  0  0
    1.1507   -1.1251   -0.3549 H   0  0  0  0  0  0  0  0  0  0  0  0
    5.4921   -2.9956    0.6236 H   0  0  0  0  0  0  0  0  0  0  0  0
    9.3351    0.3040    1.5377 H   0  0  0  0  0  0  0  0  0  0  0  0
    9.4344   -1.1714    2.6338 H   0  0  0  0  0  0  0  0  0  0  0  0
    8.5072    0.3324    3.1847 H   0  0  0  0  0  0  0  0  0  0  0  0
    6.6060    1.1033    1.2402 H   0  0  0  0  0  0  0  0  0  0  0  0
   -5.2958   -2.0425    1.8271 H   0  0  0  0  0  0  0  0  0  0  0  0
   -7.3657   -1.2792    3.0352 H   0  0  0  0  0  0  0  0  0  0  0  0
   -7.8140    1.1180    3.2113 H   0  0  0  0  0  0  0  0  0  0  0  0
   -6.2872    2.6892    2.2389 H   0  0  0  0  0  0  0  0  0  0  0  0
  1  2  1  0
  2  3  1  0
  3  4  1  0
  4  5  1  0
  5  6  2  0
  6  7  1  0
  7  8  1  0
  8  9  1  0
  9 10  1  0
  9 11  2  0
  6 12  1  0
 12 13  1  0
 13 14  2  0
 14 15  1  0
 15 16  2  0
 16 17  1  0
 17 18  2  0
 18 19  1  0
 19 20  2  0
 17 21  1  0
 21 22  1  0
 22 23  2  0
 23 24  1  0
 24 25  1  0
 24 26  1  0
  2 27  1  0
 27 28  2  0
 28 29  1  0
 29 30  2  0
 30 31  1  0
 31 32  2  0
 32 33  1  0
  8  4  2  0
 20 12  1  0
 26 21  2  0
 32 27  1  0
 20 15  1  0
  1 34  1  0
  1 35  1  0
  1 36  1  0
  2 37  1  1
  5 38  1  0
 10 39  1  0
 10 40  1  0
 13 41  1  0
 16 42  1  0
 18 43  1  0
 19 44  1  0
 22 45  1  0
 25 46  1  0
 25 47  1  0
 25 48  1  0
 26 49  1  0
 28 50  1  0
 29 51  1  0
 30 52  1  0
 31 53  1  0
M  END
$$$$
[H]c1nc(N([H])c2c([H])c([H])c([H])c([H])c2Oc2c([H])c([H])c([H])c([H])c2[H])nc2c1C([H])([H])C([H])([H])c1c(C(=O)N([H])[H])nn(C([H])([H])[H])c1-2
     RDKit          3D

 51 55  0  0  0  0  0  0  0  0999 V2000
   -2.0492    2.1849    1.0385 C   0  0  0  0  0  0  0  0  0  0  0  0
   -3.0077    1.1860    0.6822 N   0  0  0  0  0  0  0  0  0  0  0  0
   -4.2824    1.2356    1.0926 N   0  0  0  0  0  0  0  0  0  0  0  0
   -4.9827    0.2087    0.6502 C   0  0  0  0  0  0  0  0  0  0  0  0
   -6.3867   -0.1436    0.8450 C   0  0  0  0  0  0  0  0  0  0  0  0
   -7.2677    0.6550    1.6138 N   0  0  0  0  0  0  0  0  0  0  0  0
   -6.8691   -1.1830    0.3297 O   0  0  0  0  0  0  0  0  0  0  0  0
   -4.0808   -0.5703   -0.1124 C   0  0  0  0  0  0  0  0  0  0  0  0
   -4.3014   -1.8105   -0.8657 C   0  0  0  0  0  0  0  0  0  0  0  0
   -3.1143   -2.4608   -1.4093 C   0  0  0  0  0  0  0  0  0  0  0  0
   -1.8534   -1.7237   -1.4067 C   0  0  0  0  0  0  0  0  0  0  0  0
   -0.7440   -2.2642   -2.0750 C   0  0  0  0  0  0  0  0  0  0  0  0
    0.3888   -1.5696   -2.0172 N   0  0  0  0  0  0  0  0  0  0  0  0
    0.5126   -0.3684   -1.3430 C   0  0  0  0  0  0  0  0  0  0  0  0
    1.8034    0.1802   -1.3716 N   0  0  0  0  0  0  0  0  0  0  0  0
    2.2686    1.3862   -0.8307 C   0  0  0  0  0  0  0  0  0  0  0  0
    1.4003    2.4747   -0.6765 C   0  0  0  0  0  0  0  0  0  0  0  0
    1.8652    3.7105   -0.2748 C   0  0  0  0  0  0  0  0  0  0  0  0
    3.1886    3.9017   -0.0181 C   0  0  0  0  0  0  0  0  0  0  0  0
    4.0580    2.8536   -0.1605 C   0  0  0  0  0  0  0  0  0  0  0  0
    3.5944    1.5743   -0.5713 C   0  0  0  0  0  0  0  0  0  0  0  0
    4.5514    0.6244   -0.6670 O   0  0  0  0  0  0  0  0  0  0  0  0
    4.7546   -0.5255    0.0500 C   0  0  0  0  0  0  0  0  0  0  0  0
    5.2157   -0.3674    1.3856 C   0  0  0  0  0  0  0  0  0  0  0  0
    5.4500   -1.4643    2.1736 C   0  0  0  0  0  0  0  0  0  0  0  0
    5.2453   -2.7487    1.6936 C   0  0  0  0  0  0  0  0  0  0  0  0
    4.7947   -2.9108    0.3886 C   0  0  0  0  0  0  0  0  0  0  0  0
    4.5617   -1.8008   -0.3973 C   0  0  0  0  0  0  0  0  0  0  0  0
   -0.5628    0.1296   -0.7113 N   0  0  0  0  0  0  0  0  0  0  0  0
   -1.7153   -0.5213   -0.7370 C   0  0  0  0  0  0  0  0  0  0  0  0
   -2.8775    0.0773   -0.0588 C   0  0  0  0  0  0  0  0  0  0  0  0
   -2.3540    2.6484    1.9983 H   0  0  0  0  0  0  0  0  0  0  0  0
   -1.0243    1.7932    1.2104 H   0  0  0  0  0  0  0  0  0  0  0  0
   -2.0615    2.9988    0.2826 H   0  0  0  0  0  0  0  0  0  0  0  0
   -7.9410    1.2784    1.1371 H   0  0  0  0  0  0  0  0  0  0  0  0
   -7.2799    0.6535    2.6669 H   0  0  0  0  0  0  0  0  0  0  0  0
   -5.0735   -1.5928   -1.6679 H   0  0  0  0  0  0  0  0  0  0  0  0
   -4.8293   -2.5135   -0.1479 H   0  0  0  0  0  0  0  0  0  0  0  0
   -2.9218   -3.4015   -0.7978 H   0  0  0  0  0  0  0  0  0  0  0  0
   -3.3098   -2.7965   -2.4837 H   0  0  0  0  0  0  0  0  0  0  0  0
   -0.8609   -3.2006   -2.5946 H   0  0  0  0  0  0  0  0  0  0  0  0
    2.5389   -0.3679   -1.9234 H   0  0  0  0  0  0  0  0  0  0  0  0
    0.3593    2.3456   -0.8963 H   0  0  0  0  0  0  0  0  0  0  0  0
    1.1470    4.4989   -0.1762 H   0  0  0  0  0  0  0  0  0  0  0  0
    3.5251    4.8825    0.2943 H   0  0  0  0  0  0  0  0  0  0  0  0
    5.0851    3.0166    0.0422 H   0  0  0  0  0  0  0  0  0  0  0  0
    5.3839    0.6236    1.7861 H   0  0  0  0  0  0  0  0  0  0  0  0
    5.8012   -1.3787    3.1943 H   0  0  0  0  0  0  0  0  0  0  0  0
    5.4273   -3.6176    2.3078 H   0  0  0  0  0  0  0  0  0  0  0  0
    4.6173   -3.8707   -0.0415 H   0  0  0  0  0  0  0  0  0  0  0  0
    4.2126   -1.9499   -1.4245 H   0  0  0  0  0  0  0  0  0  0  0  0
  1  2  1  0
  2  3  1  0
  3  4  2  0
  4  5  1  0
  5  6  1  0
  5  7  2  0
  4  8  1  0
  8  9  1  0
  9 10  1  0
 10 11  1  0
 11 12  2  0
 12 13  1  0
 13 14  2  0
 14 15  1  0
 15 16  1  0
 16 17  2  0
 17 18  1  0
 18 19  2  0
 19 20  1  0
 20 21  2  0
 21 22  1  0
 22 23  1  0
 23 24  2  0
 24 25  1  0
 25 26  2  0
 26 27  1  0
 27 28  2  0
 14 29  1  0
 29 30  2  0
 30 31  1  0
 31  2  1  0
 31  8  2  0
 30 11  1  0
 21 16  1  0
 28 23  1  0
  1 32  1  0
  1 33  1  0
  1 34  1  0
  6 35  1  0
  6 36  1  0
  9 37  1  0
  9 38  1  0
 10 39  1  0
 10 40  1  0
 12 41  1  0
 15 42  1  0
 17 43  1  0
 18 44  1  0
 19 45  1  0
 20 46  1  0
 24 47  1  0
 25 48  1  0
 26 49  1  0
 27 50  1  0
 28 51  1  0
M  END
$$$$
[H]c1nn(C([H])([H])[H])c([H])c1-c1c([H])c([H])c2c(nc([H])n2-c2sc(C(=O)N([H])[H])c(O[C@@]([H])(c3c([H])c([H])c([H])c([H])c3C(F)(F)F)C([H])([H])[H])c2[H])c1[H]
     RDKit          3D

 56 60  0  0  0  0  0  0  0  0999 V2000
   -4.1365    1.2522    2.2768 C   0  0  0  0  0  0  0  0  0  0  0  0
   -4.0592    0.8821    0.7486 C   0  0  1  0  0  0  0  0  0  0  0  0
   -3.6078   -0.4632    0.7016 O   0  0  0  0  0  0  0  0  0  0  0  0
   -2.2321   -0.8114    0.7287 C   0  0  0  0  0  0  0  0  0  0  0  0
   -1.2461    0.0976    0.8103 C   0  0  0  0  0  0  0  0  0  0  0  0
    0.0478   -0.3789    0.8282 C   0  0  0  0  0  0  0  0  0  0  0  0
   -0.1746   -2.0674    0.7303 S   0  0  0  0  0  0  0  0  0  0  0  0
   -1.8707   -2.1274    0.6703 C   0  0  0  0  0  0  0  0  0  0  0  0
   -2.7561   -3.3107    0.5786 C   0  0  0  0  0  0  0  0  0  0  0  0
   -2.1265   -4.5729    0.5147 N   0  0  0  0  0  0  0  0  0  0  0  0
   -4.0001   -3.2261    0.5565 O   0  0  0  0  0  0  0  0  0  0  0  0
    1.2498    0.3967    0.9162 N   0  0  0  0  0  0  0  0  0  0  0  0
    1.3556    1.6542    1.3702 C   0  0  0  0  0  0  0  0  0  0  0  0
    2.6420    2.0507    1.3070 N   0  0  0  0  0  0  0  0  0  0  0  0
    3.3726    1.0354    0.8061 C   0  0  0  0  0  0  0  0  0  0  0  0
    4.7134    0.8785    0.5285 C   0  0  0  0  0  0  0  0  0  0  0  0
    5.2465   -0.2717    0.0113 C   0  0  0  0  0  0  0  0  0  0  0  0
    4.3726   -1.3064   -0.2333 C   0  0  0  0  0  0  0  0  0  0  0  0
    3.0132   -1.1683    0.0402 C   0  0  0  0  0  0  0  0  0  0  0  0
    2.4683   -0.0089    0.5633 C   0  0  0  0  0  0  0  0  0  0  0  0
    6.6732   -0.3954   -0.2645 C   0  0  0  0  0  0  0  0  0  0  0  0
    7.4516   -1.5453   -0.2067 C   0  0  0  0  0  0  0  0  0  0  0  0
    8.7005   -1.1852   -0.5372 N   0  0  0  0  0  0  0  0  0  0  0  0
    8.7701    0.1024   -0.7990 N   0  0  0  0  0  0  0  0  0  0  0  0
   10.0052    0.7759   -1.1868 C   0  0  0  0  0  0  0  0  0  0  0  0
    7.5537    0.6011   -0.6401 C   0  0  0  0  0  0  0  0  0  0  0  0
   -5.4023    0.9724    0.1776 C   0  0  0  0  0  0  0  0  0  0  0  0
   -6.4776    1.0115    1.0664 C   0  0  0  0  0  0  0  0  0  0  0  0
   -7.7747    1.0989    0.6106 C   0  0  0  0  0  0  0  0  0  0  0  0
   -8.0665    1.1515   -0.7354 C   0  0  0  0  0  0  0  0  0  0  0  0
   -6.9990    1.1120   -1.5989 C   0  0  0  0  0  0  0  0  0  0  0  0
   -5.6615    1.0225   -1.1600 C   0  0  0  0  0  0  0  0  0  0  0  0
   -4.5697    0.9723   -2.1421 C   0  0  0  0  0  0  0  0  0  0  0  0
   -5.1737    1.1427   -3.4155 F   0  0  0  0  0  0  0  0  0  0  0  0
   -3.6501    1.9866   -2.0361 F   0  0  0  0  0  0  0  0  0  0  0  0
   -3.9906   -0.2859   -2.2663 F   0  0  0  0  0  0  0  0  0  0  0  0
   -4.5344    0.4152    2.8484 H   0  0  0  0  0  0  0  0  0  0  0  0
   -4.7119    2.1823    2.3087 H   0  0  0  0  0  0  0  0  0  0  0  0
   -3.0800    1.4950    2.5439 H   0  0  0  0  0  0  0  0  0  0  0  0
   -3.2915    1.5329    0.3773 H   0  0  0  0  0  0  0  0  0  0  0  0
   -1.3882    1.2046    0.8666 H   0  0  0  0  0  0  0  0  0  0  0  0
   -2.2927   -5.2942    1.2386 H   0  0  0  0  0  0  0  0  0  0  0  0
   -1.4845   -4.7905   -0.2675 H   0  0  0  0  0  0  0  0  0  0  0  0
    0.4965    2.2170    1.7224 H   0  0  0  0  0  0  0  0  0  0  0  0
    5.4021    1.6955    0.7214 H   0  0  0  0  0  0  0  0  0  0  0  0
    4.7388   -2.2301   -0.6385 H   0  0  0  0  0  0  0  0  0  0  0  0
    2.3362   -1.9998   -0.1628 H   0  0  0  0  0  0  0  0  0  0  0  0
    7.0571   -2.5012    0.0596 H   0  0  0  0  0  0  0  0  0  0  0  0
    9.8410    1.4635   -2.0430 H   0  0  0  0  0  0  0  0  0  0  0  0
   10.7954    0.0441   -1.4476 H   0  0  0  0  0  0  0  0  0  0  0  0
   10.3807    1.3564   -0.3245 H   0  0  0  0  0  0  0  0  0  0  0  0
    7.3038    1.6603   -0.7911 H   0  0  0  0  0  0  0  0  0  0  0  0
   -6.3246    0.9736    2.1447 H   0  0  0  0  0  0  0  0  0  0  0  0
   -8.6373    1.1313    1.2818 H   0  0  0  0  0  0  0  0  0  0  0  0
   -9.0742    1.2206   -1.1325 H   0  0  0  0  0  0  0  0  0  0  0  0
   -7.1933    1.1516   -2.6646 H   0  0  0  0  0  0  0  0  0  0  0  0
  1  2  1  0
  2  3  1  0
  3  4  1  0
  4  5  1  0
  5  6  2  0
  6  7  1  0
  7  8  1  0
  8  9  1  0
  9 10  1  0
  9 11  2  0
  6 12  1  0
 12 13  1  0
 13 14  2  0
 14 15  1  0
 15 16  2  0
 16 17  1  0
 17 18  2  0
 18 19  1  0
 19 20  2  0
 17 21  1  0
 21 22  1  0
 22 23  2  0
 23 24  1  0
 24 25  1  0
 24 26  1  0
  2 27  1  0
 27 28  2  0
 28 29  1  0
 29 30  2  0
 30 31  1  0
 31 32  2  0
 32 33  1  0
 33 34  1  0
 33 35  1  0
 33 36  1  0
  8  4  2  0
 20 12  1  0
 26 21  2  0
 32 27  1  0
 20 15  1  0
  1 37  1  0
  1 38  1  0
  1 39  1  0
  2 40  1  6
  5 41  1  0
 10 42  1  0
 10 43  1  0
 13 44  1  0
 16 45  1  0
 18 46  1  0
 19 47  1  0
 22 48  1  0
 25 49  1  0
 25 50  1  0
 25 51  1  0
 26 52  1  0
 28 53  1  0
 29 54  1  0
 30 55  1  0
 31 56  1  0
M  END
$$$$
[H]OC([H])([H])[C@]([H])(O[H])C([H])([H])Oc1c([H])c([H])c2nc([H])n(-c3sc(C(=O)N([H])[H])c(O[C@@]([H])(c4c([H])c([H])c([H])c([H])c4Cl)C([H])([H])[H])c3[H])c2c1[H]
     RDKit          3D

 55 58  0  0  0  0  0  0  0  0999 V2000
   -4.0692   -0.4501    1.8476 C   0  0  0  0  0  0  0  0  0  0  0  0
   -4.4308    0.8434    1.1157 C   0  0  1  0  0  0  0  0  0  0  0  0
   -3.3710    1.4360    0.4929 O   0  0  0  0  0  0  0  0  0  0  0  0
   -2.0958    1.0528    0.0985 C   0  0  0  0  0  0  0  0  0  0  0  0
   -1.5657   -0.1910    0.1183 C   0  0  0  0  0  0  0  0  0  0  0  0
   -0.2703   -0.3546   -0.3151 C   0  0  0  0  0  0  0  0  0  0  0  0
    0.1901    1.2072   -0.7414 S   0  0  0  0  0  0  0  0  0  0  0  0
   -1.2425    2.0502   -0.3721 C   0  0  0  0  0  0  0  0  0  0  0  0
   -1.4692    3.4992   -0.5155 C   0  0  0  0  0  0  0  0  0  0  0  0
   -2.6311    4.1384   -0.1472 N   0  0  0  0  0  0  0  0  0  0  0  0
   -0.5250    4.1819   -1.0079 O   0  0  0  0  0  0  0  0  0  0  0  0
    0.4645   -1.6050   -0.3689 N   0  0  0  0  0  0  0  0  0  0  0  0
   -0.0639   -2.8106   -0.6109 C   0  0  0  0  0  0  0  0  0  0  0  0
    0.9002   -3.7475   -0.5951 N   0  0  0  0  0  0  0  0  0  0  0  0
    2.0718   -3.1451   -0.3395 C   0  0  0  0  0  0  0  0  0  0  0  0
    3.3617   -3.6083   -0.2125 C   0  0  0  0  0  0  0  0  0  0  0  0
    4.3630   -2.7059    0.0573 C   0  0  0  0  0  0  0  0  0  0  0  0
    4.0963   -1.3535    0.2011 C   0  0  0  0  0  0  0  0  0  0  0  0
    5.1110   -0.4482    0.4733 O   0  0  0  0  0  0  0  0  0  0  0  0
    6.4397   -0.9510    0.5907 C   0  0  0  0  0  0  0  0  0  0  0  0
    7.4252    0.1494    0.8945 C   0  0  1  0  0  0  0  0  0  0  0  0
    8.6929   -0.3801    0.9920 O   0  0  0  0  0  0  0  0  0  0  0  0
    7.3564    1.2199   -0.1458 C   0  0  0  0  0  0  0  0  0  0  0  0
    7.7028    0.7244   -1.3882 O   0  0  0  0  0  0  0  0  0  0  0  0
    2.8034   -0.9136    0.0702 C   0  0  0  0  0  0  0  0  0  0  0  0
    1.7784   -1.7886   -0.1989 C   0  0  0  0  0  0  0  0  0  0  0  0
   -5.6805    0.6925    0.3456 C   0  0  0  0  0  0  0  0  0  0  0  0
   -6.0790   -0.5548   -0.1229 C   0  0  0  0  0  0  0  0  0  0  0  0
   -7.2161   -0.7363   -0.9157 C   0  0  0  0  0  0  0  0  0  0  0  0
   -7.9901    0.3298   -1.2644 C   0  0  0  0  0  0  0  0  0  0  0  0
   -7.6233    1.5615   -0.8191 C   0  0  0  0  0  0  0  0  0  0  0  0
   -6.5030    1.7359   -0.0370 C   0  0  0  0  0  0  0  0  0  0  0  0
   -6.1307    3.3443    0.5656 Cl  0  0  0  0  0  0  0  0  0  0  0  0
   -4.1672   -1.3617    1.3059 H   0  0  0  0  0  0  0  0  0  0  0  0
   -4.8261   -0.5263    2.6959 H   0  0  0  0  0  0  0  0  0  0  0  0
   -3.1182   -0.2521    2.3806 H   0  0  0  0  0  0  0  0  0  0  0  0
   -4.6704    1.5247    2.0160 H   0  0  0  0  0  0  0  0  0  0  0  0
   -2.1222   -1.1057    0.4447 H   0  0  0  0  0  0  0  0  0  0  0  0
   -2.7467    4.5314    0.8128 H   0  0  0  0  0  0  0  0  0  0  0  0
   -3.4419    4.2613   -0.7971 H   0  0  0  0  0  0  0  0  0  0  0  0
   -1.1017   -3.0290   -0.7952 H   0  0  0  0  0  0  0  0  0  0  0  0
    3.5613   -4.6641   -0.3249 H   0  0  0  0  0  0  0  0  0  0  0  0
    5.3702   -3.0632    0.1590 H   0  0  0  0  0  0  0  0  0  0  0  0
    6.6763   -1.3672   -0.4255 H   0  0  0  0  0  0  0  0  0  0  0  0
    6.5424   -1.7701    1.3099 H   0  0  0  0  0  0  0  0  0  0  0  0
    7.1622    0.5229    1.9147 H   0  0  0  0  0  0  0  0  0  0  0  0
    9.0761   -0.7048    0.1448 H   0  0  0  0  0  0  0  0  0  0  0  0
    6.2856    1.5639   -0.2133 H   0  0  0  0  0  0  0  0  0  0  0  0
    7.9967    2.1135    0.1264 H   0  0  0  0  0  0  0  0  0  0  0  0
    7.3118    1.3514   -2.0740 H   0  0  0  0  0  0  0  0  0  0  0  0
    2.5316    0.1305    0.1708 H   0  0  0  0  0  0  0  0  0  0  0  0
   -5.5412   -1.4454    0.0910 H   0  0  0  0  0  0  0  0  0  0  0  0
   -7.4904   -1.7212   -1.2578 H   0  0  0  0  0  0  0  0  0  0  0  0
   -8.8799    0.1665   -1.8907 H   0  0  0  0  0  0  0  0  0  0  0  0
   -8.2085    2.4223   -1.0755 H   0  0  0  0  0  0  0  0  0  0  0  0
  1  2  1  0
  2  3  1  0
  3  4  1  0
  4  5  1  0
  5  6  2  0
  6  7  1  0
  7  8  1  0
  8  9  1  0
  9 10  1  0
  9 11  2  0
  6 12  1  0
 12 13  1  0
 13 14  2  0
 14 15  1  0
 15 16  2  0
 16 17  1  0
 17 18  2  0
 18 19  1  0
 19 20  1  0
 20 21  1  0
 21 22  1  0
 21 23  1  0
 23 24  1  0
 18 25  1  0
 25 26  2  0
  2 27  1  0
 27 28  2  0
 28 29  1  0
 29 30  2  0
 30 31  1  0
 31 32  2  0
 32 33  1  0
  8  4  2  0
 26 12  1  0
 32 27  1  0
 26 15  1  0
  1 34  1  0
  1 35  1  0
  1 36  1  0
  2 37  1  1
  5 38  1  0
 10 39  1  0
 10 40  1  0
 13 41  1  0
 16 42  1  0
 17 43  1  0
 20 44  1  0
 20 45  1  0
 21 46  1  1
 22 47  1  0
 23 48  1  0
 23 49  1  0
 24 50  1  0
 25 51  1  0
 28 52  1  0
 29 53  1  0
 30 54  1  0
 31 55  1  0
M  END
$$$$
[H]c1nc([H])c([H])c(-c2c([H])c([H])c3nc([H])n(-c4sc(C(=O)N([H])[H])c(O[C@@]([H])(c5c([H])c([H])c([H])c([H])c5C(F)(F)F)C([H])([H])[H])c4[H])c3c2[H])c1[H]
     RDKit          3D

 55 59  0  0  0  0  0  0  0  0999 V2000
   -2.8372    1.8568    0.7649 C   0  0  0  0  0  0  0  0  0  0  0  0
   -3.2325    0.4704    0.1432 C   0  0  1  0  0  0  0  0  0  0  0  0
   -2.4074   -0.4215    0.8593 O   0  0  0  0  0  0  0  0  0  0  0  0
   -1.1051   -0.7240    0.3800 C   0  0  0  0  0  0  0  0  0  0  0  0
   -0.5509   -0.2092   -0.7343 C   0  0  0  0  0  0  0  0  0  0  0  0
    0.7242   -0.6135   -1.0515 C   0  0  0  0  0  0  0  0  0  0  0  0
    1.1063   -1.6917    0.2069 S   0  0  0  0  0  0  0  0  0  0  0  0
   -0.3335   -1.6113    1.0966 C   0  0  0  0  0  0  0  0  0  0  0  0
   -0.6784   -2.3304    2.3450 C   0  0  0  0  0  0  0  0  0  0  0  0
   -1.9302   -2.1531    2.9265 N   0  0  0  0  0  0  0  0  0  0  0  0
    0.2054   -3.0855    2.8263 O   0  0  0  0  0  0  0  0  0  0  0  0
    1.5100   -0.1946   -2.1925 N   0  0  0  0  0  0  0  0  0  0  0  0
    1.1357   -0.0523   -3.4722 C   0  0  0  0  0  0  0  0  0  0  0  0
    2.1690    0.3581   -4.2250 N   0  0  0  0  0  0  0  0  0  0  0  0
    3.2418    0.4900   -3.4365 C   0  0  0  0  0  0  0  0  0  0  0  0
    4.5582    0.8667   -3.6172 C   0  0  0  0  0  0  0  0  0  0  0  0
    5.4099    0.8838   -2.5249 C   0  0  0  0  0  0  0  0  0  0  0  0
    5.0004    0.5382   -1.2503 C   0  0  0  0  0  0  0  0  0  0  0  0
    3.6853    0.1647   -1.0845 C   0  0  0  0  0  0  0  0  0  0  0  0
    2.8210    0.1407   -2.1572 C   0  0  0  0  0  0  0  0  0  0  0  0
    5.8952    0.5558   -0.1064 C   0  0  0  0  0  0  0  0  0  0  0  0
    6.9380    1.4440    0.0131 C   0  0  0  0  0  0  0  0  0  0  0  0
    7.7788    1.4325    1.1284 C   0  0  0  0  0  0  0  0  0  0  0  0
    7.5592    0.5289    2.1066 N   0  0  0  0  0  0  0  0  0  0  0  0
    6.5518   -0.3584    2.0321 C   0  0  0  0  0  0  0  0  0  0  0  0
    5.7068   -0.3493    0.9148 C   0  0  0  0  0  0  0  0  0  0  0  0
   -4.6743    0.3306    0.4477 C   0  0  0  0  0  0  0  0  0  0  0  0
   -5.2856    1.1556    1.3930 C   0  0  0  0  0  0  0  0  0  0  0  0
   -6.6200    1.0685    1.7187 C   0  0  0  0  0  0  0  0  0  0  0  0
   -7.4281    0.1382    1.1081 C   0  0  0  0  0  0  0  0  0  0  0  0
   -6.8586   -0.6748    0.1867 C   0  0  0  0  0  0  0  0  0  0  0  0
   -5.5014   -0.6021   -0.1592 C   0  0  0  0  0  0  0  0  0  0  0  0
   -4.9808   -1.5292   -1.1647 C   0  0  0  0  0  0  0  0  0  0  0  0
   -4.0169   -2.4016   -0.7171 F   0  0  0  0  0  0  0  0  0  0  0  0
   -4.5605   -0.8672   -2.3178 F   0  0  0  0  0  0  0  0  0  0  0  0
   -6.0258   -2.3414   -1.6035 F   0  0  0  0  0  0  0  0  0  0  0  0
   -3.5772    2.5971    0.4180 H   0  0  0  0  0  0  0  0  0  0  0  0
   -2.7445    1.7270    1.8404 H   0  0  0  0  0  0  0  0  0  0  0  0
   -1.8718    2.1104    0.2675 H   0  0  0  0  0  0  0  0  0  0  0  0
   -2.9843    0.6105   -0.9064 H   0  0  0  0  0  0  0  0  0  0  0  0
   -1.0847    0.5209   -1.3887 H   0  0  0  0  0  0  0  0  0  0  0  0
   -2.0467   -1.5322    3.7467 H   0  0  0  0  0  0  0  0  0  0  0  0
   -2.7636   -2.6381    2.5490 H   0  0  0  0  0  0  0  0  0  0  0  0
    0.1115   -0.2541   -3.8207 H   0  0  0  0  0  0  0  0  0  0  0  0
    4.8962    1.1386   -4.5990 H   0  0  0  0  0  0  0  0  0  0  0  0
    6.4590    1.1767   -2.6296 H   0  0  0  0  0  0  0  0  0  0  0  0
    3.3446   -0.1080   -0.1026 H   0  0  0  0  0  0  0  0  0  0  0  0
    7.1382    2.1719   -0.7442 H   0  0  0  0  0  0  0  0  0  0  0  0
    8.5920    2.1277    1.2186 H   0  0  0  0  0  0  0  0  0  0  0  0
    6.4236   -1.0535    2.8382 H   0  0  0  0  0  0  0  0  0  0  0  0
    4.8954   -1.0633    0.8548 H   0  0  0  0  0  0  0  0  0  0  0  0
   -4.7350    1.9168    1.9276 H   0  0  0  0  0  0  0  0  0  0  0  0
   -7.0707    1.7196    2.4559 H   0  0  0  0  0  0  0  0  0  0  0  0
   -8.4736    0.0438    1.3393 H   0  0  0  0  0  0  0  0  0  0  0  0
   -7.4784   -1.4241   -0.3151 H   0  0  0  0  0  0  0  0  0  0  0  0
  1  2  1  0
  2  3  1  0
  3  4  1  0
  4  5  1  0
  5  6  2  0
  6  7  1  0
  7  8  1  0
  8  9  1  0
  9 10  1  0
  9 11  2  0
  6 12  1  0
 12 13  1  0
 13 14  2  0
 14 15  1  0
 15 16  2  0
 16 17  1  0
 17 18  2  0
 18 19  1  0
 19 20  2  0
 18 21  1  0
 21 22  2  0
 22 23  1  0
 23 24  2  0
 24 25  1  0
 25 26  2  0
  2 27  1  0
 27 28  2  0
 28 29  1  0
 29 30  2  0
 30 31  1  0
 31 32  2  0
 32 33  1  0
 33 34  1  0
 33 35  1  0
 33 36  1  0
  8  4  2  0
 20 12  1  0
 26 21  1  0
 32 27  1  0
 20 15  1  0
  1 37  1  0
  1 38  1  0
  1 39  1  0
  2 40  1  6
  5 41  1  0
 10 42  1  0
 10 43  1  0
 13 44  1  0
 16 45  1  0
 17 46  1  0
 19 47  1  0
 22 48  1  0
 23 49  1  0
 25 50  1  0
 26 51  1  0
 28 52  1  0
 29 53  1  0
 30 54  1  0
 31 55  1  0
M  END
$$$$
[H]c1nc(N([H])c2c([H])c([H])c(OC([H])([H])[H])c(C([H])([H])C([H])([H])C([H])([H])N(C([H])([H])[H])C([H])([H])[H])c2[H])nc2c1C([H])([H])C(=S)N([H])c1c([H])c(Cl)c([H])c([H])c1-2
     RDKit          3D

 58 61  0  0  0  0  0  0  0  0999 V2000
    3.9901    1.5315   -4.5550 C   0  0  0  0  0  0  0  0  0  0  0  0
    3.7093    0.6792   -3.4912 O   0  0  0  0  0  0  0  0  0  0  0  0
    2.4328    0.4879   -2.9650 C   0  0  0  0  0  0  0  0  0  0  0  0
    1.3419    1.1482   -3.4881 C   0  0  0  0  0  0  0  0  0  0  0  0
    0.0817    0.9639   -2.9854 C   0  0  0  0  0  0  0  0  0  0  0  0
   -0.1726    0.0927   -1.9090 C   0  0  0  0  0  0  0  0  0  0  0  0
   -1.4887   -0.0790   -1.4422 N   0  0  0  0  0  0  0  0  0  0  0  0
   -1.9103   -0.5791   -0.1898 C   0  0  0  0  0  0  0  0  0  0  0  0
   -1.1091   -0.9725    0.7956 N   0  0  0  0  0  0  0  0  0  0  0  0
   -1.5065   -1.4485    1.9877 C   0  0  0  0  0  0  0  0  0  0  0  0
   -2.8656   -1.5566    2.2583 C   0  0  0  0  0  0  0  0  0  0  0  0
   -3.1035   -2.1008    3.6191 C   0  0  0  0  0  0  0  0  0  0  0  0
   -4.2677   -1.5341    4.3000 C   0  0  0  0  0  0  0  0  0  0  0  0
   -4.0629   -1.1940    5.8803 S   0  0  0  0  0  0  0  0  0  0  0  0
   -5.5481   -1.2436    3.7672 N   0  0  0  0  0  0  0  0  0  0  0  0
   -5.9931   -1.2200    2.4183 C   0  0  0  0  0  0  0  0  0  0  0  0
   -7.3634   -1.2403    2.2690 C   0  0  0  0  0  0  0  0  0  0  0  0
   -7.9179   -1.2219    1.0251 C   0  0  0  0  0  0  0  0  0  0  0  0
   -9.6572   -1.2483    0.8624 Cl  0  0  0  0  0  0  0  0  0  0  0  0
   -7.0849   -1.1824   -0.0886 C   0  0  0  0  0  0  0  0  0  0  0  0
   -5.7199   -1.1620    0.0524 C   0  0  0  0  0  0  0  0  0  0  0  0
   -5.1716   -1.1810    1.3160 C   0  0  0  0  0  0  0  0  0  0  0  0
   -3.7076   -1.1541    1.2499 C   0  0  0  0  0  0  0  0  0  0  0  0
   -3.2486   -0.6869    0.0796 N   0  0  0  0  0  0  0  0  0  0  0  0
    0.9231   -0.5498   -1.4073 C   0  0  0  0  0  0  0  0  0  0  0  0
    2.2270   -0.3680   -1.9151 C   0  0  0  0  0  0  0  0  0  0  0  0
    3.2912   -1.1001   -1.2105 C   0  0  0  0  0  0  0  0  0  0  0  0
    3.8870   -0.3136   -0.0944 C   0  0  0  0  0  0  0  0  0  0  0  0
    4.5001    0.9637   -0.5183 C   0  0  0  0  0  0  0  0  0  0  0  0
    5.0744    1.6636    0.6672 N   0  0  0  0  0  0  0  0  0  0  0  0
    5.6577    2.8984    0.1977 C   0  0  0  0  0  0  0  0  0  0  0  0
    6.0907    0.8038    1.2729 C   0  0  0  0  0  0  0  0  0  0  0  0
    3.6909    1.1295   -5.5438 H   0  0  0  0  0  0  0  0  0  0  0  0
    5.1047    1.6651   -4.5970 H   0  0  0  0  0  0  0  0  0  0  0  0
    3.5271    2.5418   -4.4671 H   0  0  0  0  0  0  0  0  0  0  0  0
    1.5183    1.8334   -4.3293 H   0  0  0  0  0  0  0  0  0  0  0  0
   -0.7889    1.4730   -3.3808 H   0  0  0  0  0  0  0  0  0  0  0  0
   -2.2775    0.2057   -2.1316 H   0  0  0  0  0  0  0  0  0  0  0  0
   -0.7988   -1.7563    2.7589 H   0  0  0  0  0  0  0  0  0  0  0  0
   -3.1747   -3.2060    3.4899 H   0  0  0  0  0  0  0  0  0  0  0  0
   -2.2039   -1.9563    4.2722 H   0  0  0  0  0  0  0  0  0  0  0  0
   -6.2767   -1.0116    4.4702 H   0  0  0  0  0  0  0  0  0  0  0  0
   -7.9640   -1.2707    3.1555 H   0  0  0  0  0  0  0  0  0  0  0  0
   -7.5597   -1.1690   -1.0576 H   0  0  0  0  0  0  0  0  0  0  0  0
   -5.0543   -1.1308   -0.8077 H   0  0  0  0  0  0  0  0  0  0  0  0
    0.8286   -1.2599   -0.5800 H   0  0  0  0  0  0  0  0  0  0  0  0
    4.0752   -1.3958   -1.9761 H   0  0  0  0  0  0  0  0  0  0  0  0
    2.8707   -2.0708   -0.7991 H   0  0  0  0  0  0  0  0  0  0  0  0
    4.6429   -0.9608    0.4640 H   0  0  0  0  0  0  0  0  0  0  0  0
    3.1096   -0.1240    0.7175 H   0  0  0  0  0  0  0  0  0  0  0  0
    3.6868    1.6413   -0.8708 H   0  0  0  0  0  0  0  0  0  0  0  0
    5.3339    0.8949   -1.2068 H   0  0  0  0  0  0  0  0  0  0  0  0
    6.6720    3.0064    0.6326 H   0  0  0  0  0  0  0  0  0  0  0  0
    5.0471    3.7304    0.6046 H   0  0  0  0  0  0  0  0  0  0  0  0
    5.6466    2.9784   -0.9101 H   0  0  0  0  0  0  0  0  0  0  0  0
    6.4260    0.0243    0.5596 H   0  0  0  0  0  0  0  0  0  0  0  0
    5.6496    0.2779    2.1472 H   0  0  0  0  0  0  0  0  0  0  0  0
    6.9606    1.3721    1.6267 H   0  0  0  0  0  0  0  0  0  0  0  0
  1  2  1  0
  2  3  1  0
  3  4  2  0
  4  5  1  0
  5  6  2  0
  6  7  1  0
  7  8  1  0
  8  9  2  0
  9 10  1  0
 10 11  2  0
 11 12  1  0
 12 13  1  0
 13 14  2  0
 13 15  1  0
 15 16  1  0
 16 17  2  0
 17 18  1  0
 18 19  1  0
 18 20  2  0
 20 21  1  0
 21 22  2  0
 22 23  1  0
 23 24  2  0
  6 25  1  0
 25 26  2  0
 26 27  1  0
 27 28  1  0
 28 29  1  0
 29 30  1  0
 30 31  1  0
 30 32  1  0
 26  3  1  0
 24  8  1  0
 23 11  1  0
 22 16  1  0
  1 33  1  0
  1 34  1  0
  1 35  1  0
  4 36  1  0
  5 37  1  0
  7 38  1  0
 10 39  1  0
 12 40  1  0
 12 41  1  0
 15 42  1  0
 17 43  1  0
 20 44  1  0
 21 45  1  0
 25 46  1  0
 27 47  1  0
 27 48  1  0
 28 49  1  0
 28 50  1  0
 29 51  1  0
 29 52  1  0
 31 53  1  0
 31 54  1  0
 31 55  1  0
 32 56  1  0
 32 57  1  0
 32 58  1  0
M  END
$$$$
[H]c1nc(N([H])c2c([H])c([H])c(C(F)(F)F)c(C([H])([H])C([H])([H])C([H])([H])N(C([H])([H])[H])C([H])([H])[H])c2[H])nc2c1C([H])([H])C(=S)N([H])c1c([H])c(Cl)c([H])c([H])c1-2
     RDKit          3D

 57 60  0  0  0  0  0  0  0  0999 V2000
   -7.4977    0.7172   -0.4822 C   0  0  0  0  0  0  0  0  0  0  0  0
   -6.3786   -0.0064   -1.1944 N   0  0  0  0  0  0  0  0  0  0  0  0
   -6.5702   -1.3970   -0.8335 C   0  0  0  0  0  0  0  0  0  0  0  0
   -5.1562    0.6112   -0.7293 C   0  0  0  0  0  0  0  0  0  0  0  0
   -4.6420    0.2900    0.5761 C   0  0  0  0  0  0  0  0  0  0  0  0
   -3.8720   -0.9445    0.9015 C   0  0  0  0  0  0  0  0  0  0  0  0
   -2.4812   -0.9748    0.3739 C   0  0  0  0  0  0  0  0  0  0  0  0
   -1.6189   -0.1093    1.0926 C   0  0  0  0  0  0  0  0  0  0  0  0
   -0.2975    0.0977    0.7686 C   0  0  0  0  0  0  0  0  0  0  0  0
    0.4870    1.0121    1.5275 N   0  0  0  0  0  0  0  0  0  0  0  0
    1.8403    1.2430    1.5270 C   0  0  0  0  0  0  0  0  0  0  0  0
    2.3342    2.2025    2.3553 N   0  0  0  0  0  0  0  0  0  0  0  0
    3.6081    2.5368    2.4605 C   0  0  0  0  0  0  0  0  0  0  0  0
    4.5413    1.8749    1.6780 C   0  0  0  0  0  0  0  0  0  0  0  0
    5.9305    2.3964    1.9314 C   0  0  0  0  0  0  0  0  0  0  0  0
    6.6255    2.5998    0.6428 C   0  0  0  0  0  0  0  0  0  0  0  0
    7.1929    4.0751    0.2523 S   0  0  0  0  0  0  0  0  0  0  0  0
    6.8580    1.5800   -0.3380 N   0  0  0  0  0  0  0  0  0  0  0  0
    6.0993    0.4078   -0.6005 C   0  0  0  0  0  0  0  0  0  0  0  0
    6.6824   -0.4895   -1.4601 C   0  0  0  0  0  0  0  0  0  0  0  0
    6.0577   -1.6819   -1.8041 C   0  0  0  0  0  0  0  0  0  0  0  0
    6.8075   -2.8213   -2.9052 Cl  0  0  0  0  0  0  0  0  0  0  0  0
    4.8050   -2.0035   -1.2792 C   0  0  0  0  0  0  0  0  0  0  0  0
    4.2244   -1.1048   -0.4196 C   0  0  0  0  0  0  0  0  0  0  0  0
    4.8489    0.0785   -0.0822 C   0  0  0  0  0  0  0  0  0  0  0  0
    4.0644    0.8984    0.8326 C   0  0  0  0  0  0  0  0  0  0  0  0
    2.7341    0.6101    0.7801 N   0  0  0  0  0  0  0  0  0  0  0  0
    0.1520   -0.6003   -0.3179 C   0  0  0  0  0  0  0  0  0  0  0  0
   -0.6736   -1.4483   -1.0272 C   0  0  0  0  0  0  0  0  0  0  0  0
   -2.0265   -1.6546   -0.6896 C   0  0  0  0  0  0  0  0  0  0  0  0
   -2.8040   -2.5975   -1.5474 C   0  0  0  0  0  0  0  0  0  0  0  0
   -1.8473   -3.2954   -2.3583 F   0  0  0  0  0  0  0  0  0  0  0  0
   -3.5067   -3.5455   -0.9091 F   0  0  0  0  0  0  0  0  0  0  0  0
   -3.4874   -1.9272   -2.5790 F   0  0  0  0  0  0  0  0  0  0  0  0
   -8.2160   -0.0581   -0.1905 H   0  0  0  0  0  0  0  0  0  0  0  0
   -7.9236    1.3691   -1.2635 H   0  0  0  0  0  0  0  0  0  0  0  0
   -7.0965    1.3171    0.3361 H   0  0  0  0  0  0  0  0  0  0  0  0
   -5.9356   -2.0698   -1.3460 H   0  0  0  0  0  0  0  0  0  0  0  0
   -7.6197   -1.6319   -1.2306 H   0  0  0  0  0  0  0  0  0  0  0  0
   -6.7015   -1.5135    0.2619 H   0  0  0  0  0  0  0  0  0  0  0  0
   -5.4031    1.7229   -0.7399 H   0  0  0  0  0  0  0  0  0  0  0  0
   -4.3934    0.5186   -1.5366 H   0  0  0  0  0  0  0  0  0  0  0  0
   -5.5191    0.2594    1.3491 H   0  0  0  0  0  0  0  0  0  0  0  0
   -4.0709    1.1796    1.0206 H   0  0  0  0  0  0  0  0  0  0  0  0
   -3.7510   -1.0235    2.0336 H   0  0  0  0  0  0  0  0  0  0  0  0
   -4.4197   -1.8248    0.5803 H   0  0  0  0  0  0  0  0  0  0  0  0
   -2.0114    0.4317    1.9650 H   0  0  0  0  0  0  0  0  0  0  0  0
   -0.0977    1.6263    2.2191 H   0  0  0  0  0  0  0  0  0  0  0  0
    3.9947    3.3018    3.1230 H   0  0  0  0  0  0  0  0  0  0  0  0
    5.8266    3.3414    2.4918 H   0  0  0  0  0  0  0  0  0  0  0  0
    6.5054    1.6717    2.5417 H   0  0  0  0  0  0  0  0  0  0  0  0
    7.6886    1.6881   -0.9518 H   0  0  0  0  0  0  0  0  0  0  0  0
    7.6527   -0.2365   -1.8653 H   0  0  0  0  0  0  0  0  0  0  0  0
    4.3298   -2.9226   -1.5500 H   0  0  0  0  0  0  0  0  0  0  0  0
    3.2657   -1.3004    0.0189 H   0  0  0  0  0  0  0  0  0  0  0  0
    1.1743   -0.4801   -0.6550 H   0  0  0  0  0  0  0  0  0  0  0  0
   -0.3119   -1.9958   -1.8883 H   0  0  0  0  0  0  0  0  0  0  0  0
  1  2  1  0
  2  3  1  0
  2  4  1  0
  4  5  1  0
  5  6  1  0
  6  7  1  0
  7  8  2  0
  8  9  1  0
  9 10  1  0
 10 11  1  0
 11 12  2  0
 12 13  1  0
 13 14  2  0
 14 15  1  0
 15 16  1  0
 16 17  2  0
 16 18  1  0
 18 19  1  0
 19 20  2  0
 20 21  1  0
 21 22  1  0
 21 23  2  0
 23 24  1  0
 24 25  2  0
 25 26  1  0
 26 27  2  0
  9 28  2  0
 28 29  1  0
 29 30  2  0
 30 31  1  0
 31 32  1  0
 31 33  1  0
 31 34  1  0
 30  7  1  0
 27 11  1  0
 26 14  1  0
 25 19  1  0
  1 35  1  0
  1 36  1  0
  1 37  1  0
  3 38  1  0
  3 39  1  0
  3 40  1  0
  4 41  1  0
  4 42  1  0
  5 43  1  0
  5 44  1  0
  6 45  1  0
  6 46  1  0
  8 47  1  0
 10 48  1  0
 13 49  1  0
 15 50  1  0
 15 51  1  0
 18 52  1  0
 20 53  1  0
 23 54  1  0
 24 55  1  0
 28 56  1  0
 29 57  1  0
M  END
$$$$
[H]c1nc(N([H])c2c([H])c([H])c([H])c([H])c2N([H])C(=O)C([H])([H])[H])nc2c1C([H])([H])C([H])([H])c1c(C(=O)N([H])[H])nn(C([H])([H])[H])c1-2
     RDKit          3D

 47 50  0  0  0  0  0  0  0  0999 V2000
   -5.2191    2.4267   -1.9621 C   0  0  0  0  0  0  0  0  0  0  0  0
   -5.4452    1.1043   -1.2553 C   0  0  0  0  0  0  0  0  0  0  0  0
   -6.5720    0.5887   -1.2853 O   0  0  0  0  0  0  0  0  0  0  0  0
   -4.3512    0.5182   -0.5908 N   0  0  0  0  0  0  0  0  0  0  0  0
   -4.3167   -0.6924    0.1350 C   0  0  0  0  0  0  0  0  0  0  0  0
   -5.4677   -1.3206    0.5106 C   0  0  0  0  0  0  0  0  0  0  0  0
   -5.4265   -2.4588    1.2814 C   0  0  0  0  0  0  0  0  0  0  0  0
   -4.2355   -2.9869    1.6889 C   0  0  0  0  0  0  0  0  0  0  0  0
   -3.0672   -2.3252    1.2902 C   0  0  0  0  0  0  0  0  0  0  0  0
   -3.0575   -1.1945    0.5258 C   0  0  0  0  0  0  0  0  0  0  0  0
   -1.9016   -0.5964    0.0755 N   0  0  0  0  0  0  0  0  0  0  0  0
   -0.5863   -0.8019    0.5516 C   0  0  0  0  0  0  0  0  0  0  0  0
   -0.1942   -1.6018    1.5372 N   0  0  0  0  0  0  0  0  0  0  0  0
    1.0640   -1.7749    1.9675 C   0  0  0  0  0  0  0  0  0  0  0  0
    2.0823   -1.0694    1.3504 C   0  0  0  0  0  0  0  0  0  0  0  0
    3.4431   -1.2696    1.8305 C   0  0  0  0  0  0  0  0  0  0  0  0
    4.5105   -0.5085    1.1592 C   0  0  0  0  0  0  0  0  0  0  0  0
    4.0484    0.3712    0.0692 C   0  0  0  0  0  0  0  0  0  0  0  0
    4.8190    1.1979   -0.7322 C   0  0  0  0  0  0  0  0  0  0  0  0
    3.9461    1.8008   -1.5819 N   0  0  0  0  0  0  0  0  0  0  0  0
    2.7126    1.3961   -1.3479 N   0  0  0  0  0  0  0  0  0  0  0  0
    1.4855    1.7922   -2.0271 C   0  0  0  0  0  0  0  0  0  0  0  0
    2.7747    0.5249   -0.3418 C   0  0  0  0  0  0  0  0  0  0  0  0
    1.7006   -0.2362    0.3286 C   0  0  0  0  0  0  0  0  0  0  0  0
    0.4351   -0.1049   -0.0553 N   0  0  0  0  0  0  0  0  0  0  0  0
    6.2610    1.3857   -0.6799 C   0  0  0  0  0  0  0  0  0  0  0  0
    6.9334    2.2636   -1.5583 N   0  0  0  0  0  0  0  0  0  0  0  0
    6.9191    0.7467    0.1717 O   0  0  0  0  0  0  0  0  0  0  0  0
   -4.4056    2.2329   -2.6767 H   0  0  0  0  0  0  0  0  0  0  0  0
   -6.1402    2.7328   -2.4682 H   0  0  0  0  0  0  0  0  0  0  0  0
   -4.9156    3.2088   -1.2650 H   0  0  0  0  0  0  0  0  0  0  0  0
   -3.4515    1.1242   -0.6482 H   0  0  0  0  0  0  0  0  0  0  0  0
   -6.4469   -0.9805    0.2507 H   0  0  0  0  0  0  0  0  0  0  0  0
   -6.3304   -2.9364    1.5656 H   0  0  0  0  0  0  0  0  0  0  0  0
   -4.2039   -3.8692    2.2874 H   0  0  0  0  0  0  0  0  0  0  0  0
   -2.1610   -2.8141    1.6420 H   0  0  0  0  0  0  0  0  0  0  0  0
   -2.0063    0.0839   -0.7554 H   0  0  0  0  0  0  0  0  0  0  0  0
    1.3063   -2.4520    2.7853 H   0  0  0  0  0  0  0  0  0  0  0  0
    3.6673   -2.3734    1.7443 H   0  0  0  0  0  0  0  0  0  0  0  0
    3.4944   -1.0455    2.9359 H   0  0  0  0  0  0  0  0  0  0  0  0
    5.0836    0.1473    1.8714 H   0  0  0  0  0  0  0  0  0  0  0  0
    5.2865   -1.1858    0.7194 H   0  0  0  0  0  0  0  0  0  0  0  0
    0.8128    2.3294   -1.3110 H   0  0  0  0  0  0  0  0  0  0  0  0
    1.7626    2.5172   -2.8210 H   0  0  0  0  0  0  0  0  0  0  0  0
    0.9876    0.9101   -2.4526 H   0  0  0  0  0  0  0  0  0  0  0  0
    7.0632    2.0302   -2.5715 H   0  0  0  0  0  0  0  0  0  0  0  0
    7.3024    3.1648   -1.1620 H   0  0  0  0  0  0  0  0  0  0  0  0
  1  2  1  0
  2  3  2  0
  2  4  1  0
  4  5  1  0
  5  6  2  0
  6  7  1  0
  7  8  2  0
  8  9  1  0
  9 10  2  0
 10 11  1  0
 11 12  1  0
 12 13  2  0
 13 14  1  0
 14 15  2  0
 15 16  1  0
 16 17  1  0
 17 18  1  0
 18 19  1  0
 19 20  2  0
 20 21  1  0
 21 22  1  0
 21 23  1  0
 23 24  1  0
 24 25  2  0
 19 26  1  0
 26 27  1  0
 26 28  2  0
 10  5  1  0
 25 12  1  0
 24 15  1  0
 23 18  2  0
  1 29  1  0
  1 30  1  0
  1 31  1  0
  4 32  1  0
  6 33  1  0
  7 34  1  0
  8 35  1  0
  9 36  1  0
 11 37  1  0
 14 38  1  0
 16 39  1  0
 16 40  1  0
 17 41  1  0
 17 42  1  0
 22 43  1  0
 22 44  1  0
 22 45  1  0
 27 46  1  0
 27 47  1  0
M  END
$$$$
[H]c1c([H])c([H])c(-c2nc(C([H])([H])[H])c3c([H])nc(N([H])c4c([H])c(OC([H])([H])[H])c(OC([H])([H])[H])c(OC([H])([H])[H])c4[H])nn23)c([H])c1[H]
     RDKit          3D

 50 53  0  0  0  0  0  0  0  0999 V2000
    3.5962   -2.0203    2.6802 C   0  0  0  0  0  0  0  0  0  0  0  0
    4.4583   -1.3029    1.8311 O   0  0  0  0  0  0  0  0  0  0  0  0
    3.9366   -0.4733    0.8686 C   0  0  0  0  0  0  0  0  0  0  0  0
    2.5540   -0.3637    0.7583 C   0  0  0  0  0  0  0  0  0  0  0  0
    1.9790    0.4460   -0.1818 C   0  0  0  0  0  0  0  0  0  0  0  0
    0.6038    0.5861   -0.3728 N   0  0  0  0  0  0  0  0  0  0  0  0
   -0.4152   -0.2990   -0.0567 C   0  0  0  0  0  0  0  0  0  0  0  0
   -0.1649   -1.4876    0.4959 N   0  0  0  0  0  0  0  0  0  0  0  0
   -1.1755   -2.3092    0.7844 C   0  0  0  0  0  0  0  0  0  0  0  0
   -2.4720   -1.9441    0.5184 C   0  0  0  0  0  0  0  0  0  0  0  0
   -3.6548   -2.5809    0.7105 C   0  0  0  0  0  0  0  0  0  0  0  0
   -3.7950   -3.9374    1.3075 C   0  0  0  0  0  0  0  0  0  0  0  0
   -4.6058   -1.7513    0.2636 N   0  0  0  0  0  0  0  0  0  0  0  0
   -4.0683   -0.5981   -0.2109 C   0  0  0  0  0  0  0  0  0  0  0  0
   -4.8190    0.5120   -0.7678 C   0  0  0  0  0  0  0  0  0  0  0  0
   -4.2387    1.6538   -1.2338 C   0  0  0  0  0  0  0  0  0  0  0  0
   -4.9872    2.7153   -1.7687 C   0  0  0  0  0  0  0  0  0  0  0  0
   -6.3556    2.5969   -1.8237 C   0  0  0  0  0  0  0  0  0  0  0  0
   -6.9707    1.4617   -1.3634 C   0  0  0  0  0  0  0  0  0  0  0  0
   -6.2152    0.4552   -0.8526 C   0  0  0  0  0  0  0  0  0  0  0  0
   -2.7423   -0.7336   -0.0455 N   0  0  0  0  0  0  0  0  0  0  0  0
   -1.7084    0.0159   -0.2999 N   0  0  0  0  0  0  0  0  0  0  0  0
    2.8443    1.1674   -1.0349 C   0  0  0  0  0  0  0  0  0  0  0  0
    4.2045    1.0817   -0.9514 C   0  0  0  0  0  0  0  0  0  0  0  0
    5.0596    1.7874   -1.7862 O   0  0  0  0  0  0  0  0  0  0  0  0
    4.4688    2.6277   -2.7603 C   0  0  0  0  0  0  0  0  0  0  0  0
    4.7268    0.2510    0.0124 C   0  0  0  0  0  0  0  0  0  0  0  0
    6.0891    0.1373    0.1277 O   0  0  0  0  0  0  0  0  0  0  0  0
    6.8955    0.9429    0.9417 C   0  0  0  0  0  0  0  0  0  0  0  0
    4.1793   -2.6889    3.3407 H   0  0  0  0  0  0  0  0  0  0  0  0
    2.9654   -1.3426    3.3070 H   0  0  0  0  0  0  0  0  0  0  0  0
    2.8704   -2.6508    2.1135 H   0  0  0  0  0  0  0  0  0  0  0  0
    1.9357   -0.9404    1.4719 H   0  0  0  0  0  0  0  0  0  0  0  0
    0.2953    1.5131   -0.8262 H   0  0  0  0  0  0  0  0  0  0  0  0
   -0.9828   -3.2776    1.2337 H   0  0  0  0  0  0  0  0  0  0  0  0
   -3.5415   -4.7324    0.5501 H   0  0  0  0  0  0  0  0  0  0  0  0
   -4.8876   -4.0744    1.5470 H   0  0  0  0  0  0  0  0  0  0  0  0
   -3.2420   -4.0642    2.2390 H   0  0  0  0  0  0  0  0  0  0  0  0
   -3.1783    1.7982   -1.2148 H   0  0  0  0  0  0  0  0  0  0  0  0
   -4.4910    3.6043   -2.1280 H   0  0  0  0  0  0  0  0  0  0  0  0
   -6.9639    3.4124   -2.2373 H   0  0  0  0  0  0  0  0  0  0  0  0
   -8.0561    1.4304   -1.4350 H   0  0  0  0  0  0  0  0  0  0  0  0
   -6.6803   -0.4444   -0.4860 H   0  0  0  0  0  0  0  0  0  0  0  0
    2.4122    1.8196   -1.7913 H   0  0  0  0  0  0  0  0  0  0  0  0
    5.2424    3.2328   -3.2953 H   0  0  0  0  0  0  0  0  0  0  0  0
    3.7035    3.2995   -2.3429 H   0  0  0  0  0  0  0  0  0  0  0  0
    4.0031    1.9622   -3.5135 H   0  0  0  0  0  0  0  0  0  0  0  0
    6.9341    0.5126    1.9817 H   0  0  0  0  0  0  0  0  0  0  0  0
    6.5160    1.9839    0.9854 H   0  0  0  0  0  0  0  0  0  0  0  0
    7.9380    1.0098    0.5743 H   0  0  0  0  0  0  0  0  0  0  0  0
  1  2  1  0
  2  3  1  0
  3  4  2  0
  4  5  1  0
  5  6  1  0
  6  7  1  0
  7  8  1  0
  8  9  2  0
  9 10  1  0
 10 11  2  0
 11 12  1  0
 11 13  1  0
 13 14  2  0
 14 15  1  0
 15 16  2  0
 16 17  1  0
 17 18  2  0
 18 19  1  0
 19 20  2  0
 14 21  1  0
 21 22  1  0
  5 23  2  0
 23 24  1  0
 24 25  1  0
 25 26  1  0
 24 27  2  0
 27 28  1  0
 28 29  1  0
 27  3  1  0
 22  7  2  0
 21 10  1  0
 20 15  1  0
  1 30  1  0
  1 31  1  0
  1 32  1  0
  4 33  1  0
  6 34  1  0
  9 35  1  0
 12 36  1  0
 12 37  1  0
 12 38  1  0
 16 39  1  0
 17 40  1  0
 18 41  1  0
 19 42  1  0
 20 43  1  0
 23 44  1  0
 26 45  1  0
 26 46  1  0
 26 47  1  0
 29 48  1  0
 29 49  1  0
 29 50  1  0
M  END
$$$$
[H]c1nc(N([H])c2c([H])c([H])c(C(=O)N([H])C3([H])C([H])([H])C([H])([H])N(C([H])([H])[H])C([H])([H])C3([H])[H])c([H])c2OC([H])([H])[H])nc2c1N(C([H])([H])[H])C(=O)[C@@]([H])(C([H])([H])C([H])([H])[H])N2C1([H])C([H])([H])C([H])([H])C([H])([H])C1([H])[H]
     RDKit          3D

 77 81  0  0  0  0  0  0  0  0999 V2000
   -5.8388    2.6577   -0.5266 C   0  0  0  0  0  0  0  0  0  0  0  0
   -6.9164    1.6287   -0.2316 C   0  0  0  0  0  0  0  0  0  0  0  0
   -6.5830    0.5643    0.6917 C   0  0  1  0  0  0  0  0  0  0  0  0
   -5.5161   -0.3570    0.4652 N   0  0  0  0  0  0  0  0  0  0  0  0
   -5.5093   -1.6020   -0.1918 C   0  0  0  0  0  0  0  0  0  0  0  0
   -6.5863   -2.5694   -0.0163 C   0  0  0  0  0  0  0  0  0  0  0  0
   -7.4601   -2.4837   -1.3005 C   0  0  0  0  0  0  0  0  0  0  0  0
   -6.3198   -2.5344   -2.2934 C   0  0  0  0  0  0  0  0  0  0  0  0
   -5.3521   -1.4873   -1.6902 C   0  0  0  0  0  0  0  0  0  0  0  0
   -4.2443    0.0886    0.9473 C   0  0  0  0  0  0  0  0  0  0  0  0
   -3.0847   -0.3319    0.4817 N   0  0  0  0  0  0  0  0  0  0  0  0
   -1.8275    0.0506    0.8628 C   0  0  0  0  0  0  0  0  0  0  0  0
   -0.7270   -0.5474    0.1711 N   0  0  0  0  0  0  0  0  0  0  0  0
    0.6336   -0.3021    0.3671 C   0  0  0  0  0  0  0  0  0  0  0  0
    1.1312    0.5833    1.2997 C   0  0  0  0  0  0  0  0  0  0  0  0
    2.5074    0.7818    1.3852 C   0  0  0  0  0  0  0  0  0  0  0  0
    3.4107    0.1333    0.5784 C   0  0  0  0  0  0  0  0  0  0  0  0
    2.8791   -0.7411   -0.3336 C   0  0  0  0  0  0  0  0  0  0  0  0
    1.5471   -0.9823   -0.4710 C   0  0  0  0  0  0  0  0  0  0  0  0
    1.0422   -1.8735   -1.4046 O   0  0  0  0  0  0  0  0  0  0  0  0
    1.8437   -2.6008   -2.2867 C   0  0  0  0  0  0  0  0  0  0  0  0
    4.8115    0.4131    0.6777 C   0  0  0  0  0  0  0  0  0  0  0  0
    5.2304    1.1806    1.5789 O   0  0  0  0  0  0  0  0  0  0  0  0
    5.7425   -0.1473   -0.2144 N   0  0  0  0  0  0  0  0  0  0  0  0
    7.1685    0.1254   -0.1609 C   0  0  0  0  0  0  0  0  0  0  0  0
    8.0099   -1.0857    0.0628 C   0  0  0  0  0  0  0  0  0  0  0  0
    9.4355   -0.6142    0.2532 C   0  0  0  0  0  0  0  0  0  0  0  0
    9.7580    0.5095   -0.5586 N   0  0  0  0  0  0  0  0  0  0  0  0
    9.7599    1.7779    0.1304 C   0  0  0  0  0  0  0  0  0  0  0  0
    9.0023    0.6264   -1.7741 C   0  0  0  0  0  0  0  0  0  0  0  0
    7.5289    0.7556   -1.4861 C   0  0  0  0  0  0  0  0  0  0  0  0
   -1.7774    0.9519    1.8165 N   0  0  0  0  0  0  0  0  0  0  0  0
   -2.8737    1.4631    2.3768 C   0  0  0  0  0  0  0  0  0  0  0  0
   -4.1238    1.0525    1.9655 C   0  0  0  0  0  0  0  0  0  0  0  0
   -5.2700    1.6244    2.5541 N   0  0  0  0  0  0  0  0  0  0  0  0
   -5.2146    2.6270    3.6207 C   0  0  0  0  0  0  0  0  0  0  0  0
   -6.5040    1.1567    2.0400 C   0  0  0  0  0  0  0  0  0  0  0  0
   -7.4995    1.2921    2.8342 O   0  0  0  0  0  0  0  0  0  0  0  0
   -5.7018    3.3992    0.2558 H   0  0  0  0  0  0  0  0  0  0  0  0
   -6.1373    3.2577   -1.4473 H   0  0  0  0  0  0  0  0  0  0  0  0
   -4.9082    2.1461   -0.8398 H   0  0  0  0  0  0  0  0  0  0  0  0
   -7.6960    2.2621    0.2949 H   0  0  0  0  0  0  0  0  0  0  0  0
   -7.4889    1.3583   -1.1473 H   0  0  0  0  0  0  0  0  0  0  0  0
   -7.5197   -0.0949    0.7381 H   0  0  0  0  0  0  0  0  0  0  0  0
   -4.5592   -2.1512    0.1349 H   0  0  0  0  0  0  0  0  0  0  0  0
   -7.1708   -2.5947    0.8855 H   0  0  0  0  0  0  0  0  0  0  0  0
   -6.1564   -3.5967   -0.1173 H   0  0  0  0  0  0  0  0  0  0  0  0
   -7.9008   -1.4800   -1.2879 H   0  0  0  0  0  0  0  0  0  0  0  0
   -8.1472   -3.3227   -1.3321 H   0  0  0  0  0  0  0  0  0  0  0  0
   -5.8950   -3.5591   -2.2029 H   0  0  0  0  0  0  0  0  0  0  0  0
   -6.5810   -2.3264   -3.3297 H   0  0  0  0  0  0  0  0  0  0  0  0
   -4.3607   -1.8349   -2.0525 H   0  0  0  0  0  0  0  0  0  0  0  0
   -5.6877   -0.5295   -2.1213 H   0  0  0  0  0  0  0  0  0  0  0  0
   -0.9669   -1.2780   -0.5898 H   0  0  0  0  0  0  0  0  0  0  0  0
    0.5073    1.1380    1.9840 H   0  0  0  0  0  0  0  0  0  0  0  0
    2.8459    1.4912    2.1409 H   0  0  0  0  0  0  0  0  0  0  0  0
    3.5242   -1.3077   -1.0208 H   0  0  0  0  0  0  0  0  0  0  0  0
    2.3771   -3.3997   -1.7382 H   0  0  0  0  0  0  0  0  0  0  0  0
    1.1667   -3.0798   -3.0539 H   0  0  0  0  0  0  0  0  0  0  0  0
    2.5643   -2.0025   -2.8568 H   0  0  0  0  0  0  0  0  0  0  0  0
    5.4288   -0.7968   -0.9641 H   0  0  0  0  0  0  0  0  0  0  0  0
    7.3146    0.8317    0.6848 H   0  0  0  0  0  0  0  0  0  0  0  0
    7.6659   -1.5964    1.0007 H   0  0  0  0  0  0  0  0  0  0  0  0
    7.9412   -1.8343   -0.7414 H   0  0  0  0  0  0  0  0  0  0  0  0
   10.1589   -1.4584    0.1167 H   0  0  0  0  0  0  0  0  0  0  0  0
    9.5345   -0.3048    1.3267 H   0  0  0  0  0  0  0  0  0  0  0  0
   10.7121    2.3437   -0.0546 H   0  0  0  0  0  0  0  0  0  0  0  0
    9.5679    1.6511    1.2088 H   0  0  0  0  0  0  0  0  0  0  0  0
    8.9148    2.4206   -0.2523 H   0  0  0  0  0  0  0  0  0  0  0  0
    9.3644    1.5461   -2.3059 H   0  0  0  0  0  0  0  0  0  0  0  0
    9.2176   -0.2061   -2.4903 H   0  0  0  0  0  0  0  0  0  0  0  0
    7.2651    1.8420   -1.4642 H   0  0  0  0  0  0  0  0  0  0  0  0
    6.9950    0.2757   -2.3372 H   0  0  0  0  0  0  0  0  0  0  0  0
   -2.8004    2.2191    3.1749 H   0  0  0  0  0  0  0  0  0  0  0  0
   -4.7710    2.2484    4.5427 H   0  0  0  0  0  0  0  0  0  0  0  0
   -6.2393    3.0298    3.7404 H   0  0  0  0  0  0  0  0  0  0  0  0
   -4.5923    3.5093    3.2892 H   0  0  0  0  0  0  0  0  0  0  0  0
  1  2  1  0
  2  3  1  0
  3  4  1  0
  4  5  1  0
  5  6  1  0
  6  7  1  0
  7  8  1  0
  8  9  1  0
  4 10  1  0
 10 11  2  0
 11 12  1  0
 12 13  1  0
 13 14  1  0
 14 15  2  0
 15 16  1  0
 16 17  2  0
 17 18  1  0
 18 19  2  0
 19 20  1  0
 20 21  1  0
 17 22  1  0
 22 23  2  0
 22 24  1  0
 24 25  1  0
 25 26  1  0
 26 27  1  0
 27 28  1  0
 28 29  1  0
 28 30  1  0
 30 31  1  0
 12 32  2  0
 32 33  1  0
 33 34  2  0
 34 35  1  0
 35 36  1  0
 35 37  1  0
 37 38  2  0
 37  3  1  0
  9  5  1  0
 34 10  1  0
 19 14  1  0
 31 25  1  0
  1 39  1  0
  1 40  1  0
  1 41  1  0
  2 42  1  0
  2 43  1  0
  3 44  1  1
  5 45  1  0
  6 46  1  0
  6 47  1  0
  7 48  1  0
  7 49  1  0
  8 50  1  0
  8 51  1  0
  9 52  1  0
  9 53  1  0
 13 54  1  0
 15 55  1  0
 16 56  1  0
 18 57  1  0
 21 58  1  0
 21 59  1  0
 21 60  1  0
 24 61  1  0
 25 62  1  0
 26 63  1  0
 26 64  1  0
 27 65  1  0
 27 66  1  0
 29 67  1  0
 29 68  1  0
 29 69  1  0
 30 70  1  0
 30 71  1  0
 31 72  1  0
 31 73  1  0
 33 74  1  0
 36 75  1  0
 36 76  1  0
 36 77  1  0
M  END
$$$$
