[H]OC([H])([H])[C@@]1(O[H])C([H])([H])[C@@]2([H])O[C@]1(C([H])([H])[H])n1c3c([H])c([H])c([H])c([H])c3c3c4c(c5c6c([H])c([H])c([H])c([H])c6n2c5c31)C(=O)N([H])C4([H])[H]
     RDKit          3D

 54 61  0  0  0  0  0  0  0  0999 V2000
    3.1800    0.8838    1.3878 C   0  0  0  0  0  0  0  0  0  0  0  0
    2.1176    0.2237    0.5774 C   0  0  2  0  0  0  0  0  0  0  0  0
    1.6968   -0.7870    1.4854 O   0  0  0  0  0  0  0  0  0  0  0  0
    1.2511   -1.8639    0.7986 C   0  0  2  0  0  0  0  0  0  0  0  0
    2.0328   -1.9517   -0.4419 C   0  0  0  0  0  0  0  0  0  0  0  0
    2.6347   -0.5714   -0.5849 C   0  0  1  0  0  0  0  0  0  0  0  0
    2.2138   -0.0799   -1.8115 O   0  0  0  0  0  0  0  0  0  0  0  0
    4.1191   -0.7109   -0.6110 C   0  0  0  0  0  0  0  0  0  0  0  0
    4.4589   -1.5975   -1.6334 O   0  0  0  0  0  0  0  0  0  0  0  0
   -0.2014   -1.7853    0.5955 N   0  0  0  0  0  0  0  0  0  0  0  0
   -1.1044   -2.7499    0.6347 C   0  0  0  0  0  0  0  0  0  0  0  0
   -0.9179   -4.0868    0.8734 C   0  0  0  0  0  0  0  0  0  0  0  0
   -2.0299   -4.9199    0.8648 C   0  0  0  0  0  0  0  0  0  0  0  0
   -3.2823   -4.4161    0.6235 C   0  0  0  0  0  0  0  0  0  0  0  0
   -3.4758   -3.0511    0.3794 C   0  0  0  0  0  0  0  0  0  0  0  0
   -2.3768   -2.2421    0.3902 C   0  0  0  0  0  0  0  0  0  0  0  0
   -2.2053   -0.8905    0.1945 C   0  0  0  0  0  0  0  0  0  0  0  0
   -3.0670    0.1511   -0.0975 C   0  0  0  0  0  0  0  0  0  0  0  0
   -4.5001    0.2660   -0.2996 C   0  0  0  0  0  0  0  0  0  0  0  0
   -5.3884   -0.5871   -0.2658 O   0  0  0  0  0  0  0  0  0  0  0  0
   -4.7851    1.6416   -0.5724 N   0  0  0  0  0  0  0  0  0  0  0  0
   -3.5735    2.4248   -0.5610 C   0  0  0  0  0  0  0  0  0  0  0  0
   -2.5314    1.4168   -0.2472 C   0  0  0  0  0  0  0  0  0  0  0  0
   -1.1701    1.6669   -0.1133 C   0  0  0  0  0  0  0  0  0  0  0  0
   -0.3770    2.7657   -0.2198 C   0  0  0  0  0  0  0  0  0  0  0  0
   -0.7006    4.0705   -0.5126 C   0  0  0  0  0  0  0  0  0  0  0  0
    0.3203    5.0230   -0.5829 C   0  0  0  0  0  0  0  0  0  0  0  0
    1.6233    4.6180   -0.3553 C   0  0  0  0  0  0  0  0  0  0  0  0
    1.9232    3.2989   -0.0625 C   0  0  0  0  0  0  0  0  0  0  0  0
    0.9354    2.3466    0.0129 C   0  0  0  0  0  0  0  0  0  0  0  0
    0.9590    1.0103    0.2643 N   0  0  0  0  0  0  0  0  0  0  0  0
   -0.3578    0.6223    0.1746 C   0  0  0  0  0  0  0  0  0  0  0  0
   -0.8544   -0.6533    0.3299 C   0  0  0  0  0  0  0  0  0  0  0  0
    4.0624    1.2462    0.8471 H   0  0  0  0  0  0  0  0  0  0  0  0
    3.5596    0.1949    2.1815 H   0  0  0  0  0  0  0  0  0  0  0  0
    2.7312    1.7230    1.9466 H   0  0  0  0  0  0  0  0  0  0  0  0
    1.4219   -2.7643    1.4120 H   0  0  0  0  0  0  0  0  0  0  0  0
    1.4720   -2.2700   -1.3403 H   0  0  0  0  0  0  0  0  0  0  0  0
    2.8377   -2.7359   -0.3258 H   0  0  0  0  0  0  0  0  0  0  0  0
    2.8799   -0.3390   -2.4928 H   0  0  0  0  0  0  0  0  0  0  0  0
    4.5238   -1.1579    0.3296 H   0  0  0  0  0  0  0  0  0  0  0  0
    4.6358    0.2581   -0.8438 H   0  0  0  0  0  0  0  0  0  0  0  0
    4.7979   -2.4633   -1.2908 H   0  0  0  0  0  0  0  0  0  0  0  0
    0.0592   -4.4684    1.0598 H   0  0  0  0  0  0  0  0  0  0  0  0
   -1.8569   -5.9719    1.0560 H   0  0  0  0  0  0  0  0  0  0  0  0
   -4.1224   -5.0759    0.6219 H   0  0  0  0  0  0  0  0  0  0  0  0
   -4.4721   -2.7398    0.2018 H   0  0  0  0  0  0  0  0  0  0  0  0
   -5.7336    2.0654   -0.7610 H   0  0  0  0  0  0  0  0  0  0  0  0
   -3.6366    3.2333    0.1993 H   0  0  0  0  0  0  0  0  0  0  0  0
   -3.3846    2.8954   -1.5673 H   0  0  0  0  0  0  0  0  0  0  0  0
   -1.7294    4.3700   -0.6881 H   0  0  0  0  0  0  0  0  0  0  0  0
    0.0587    6.0490   -0.8135 H   0  0  0  0  0  0  0  0  0  0  0  0
    2.3774    5.3965   -0.4223 H   0  0  0  0  0  0  0  0  0  0  0  0
    2.9510    3.0689    0.0761 H   0  0  0  0  0  0  0  0  0  0  0  0
  2  1  1  1
  2  3  1  0
  3  4  1  0
  4  5  1  0
  5  6  1  0
  6  7  1  6
  6  8  1  0
  8  9  1  0
  4 10  1  0
 10 11  1  0
 11 12  2  0
 12 13  1  0
 13 14  2  0
 14 15  1  0
 15 16  2  0
 16 17  1  0
 17 18  2  0
 18 19  1  0
 19 20  2  0
 19 21  1  0
 21 22  1  0
 22 23  1  0
 23 24  2  0
 24 25  1  0
 25 26  2  0
 26 27  1  0
 27 28  2  0
 28 29  1  0
 29 30  2  0
 30 31  1  0
 31 32  1  0
 32 33  2  0
  6  2  1  0
 33 10  1  0
 31  2  1  0
 16 11  1  0
 33 17  1  0
 23 18  1  0
 32 24  1  0
 30 25  1  0
  1 34  1  0
  1 35  1  0
  1 36  1  0
  4 37  1  1
  5 38  1  0
  5 39  1  0
  7 40  1  0
  8 41  1  0
  8 42  1  0
  9 43  1  0
 12 44  1  0
 13 45  1  0
 14 46  1  0
 15 47  1  0
 21 48  1  0
 22 49  1  0
 22 50  1  0
 26 51  1  0
 27 52  1  0
 28 53  1  0
 29 54  1  0
M  END
$$$$
[H]c1nc(N([H])c2c([H])c([H])c(N3C([H])([H])C([H])([H])N(C([H])([H])[H])C([H])([H])C3([H])[H])c([H])c2OC([H])([H])[H])nc2c1N(C([H])([H])[H])C(=O)[C@@]([H])(C([H])([H])[H])N2C1([H])C([H])([H])C([H])([H])C([H])([H])C1([H])[H]
     RDKit          3D

 69 73  0  0  0  0  0  0  0  0999 V2000
    2.0240    3.0768   -2.4675 C   0  0  0  0  0  0  0  0  0  0  0  0
    1.2663    2.1872   -1.6836 O   0  0  0  0  0  0  0  0  0  0  0  0
    1.8965    1.3438   -0.7963 C   0  0  0  0  0  0  0  0  0  0  0  0
    3.2755    1.4150   -0.7177 C   0  0  0  0  0  0  0  0  0  0  0  0
    3.9820    0.6059    0.1444 C   0  0  0  0  0  0  0  0  0  0  0  0
    3.2702   -0.2686    0.9180 C   0  0  0  0  0  0  0  0  0  0  0  0
    1.8656   -0.3356    0.8328 C   0  0  0  0  0  0  0  0  0  0  0  0
    1.1455    0.4537   -0.0115 C   0  0  0  0  0  0  0  0  0  0  0  0
   -0.2465    0.4427   -0.1518 N   0  0  0  0  0  0  0  0  0  0  0  0
   -1.1982   -0.3453    0.5155 C   0  0  0  0  0  0  0  0  0  0  0  0
   -0.9660   -1.2680    1.4442 N   0  0  0  0  0  0  0  0  0  0  0  0
   -1.9157   -1.9960    2.0517 C   0  0  0  0  0  0  0  0  0  0  0  0
   -3.2337   -1.7892    1.7036 C   0  0  0  0  0  0  0  0  0  0  0  0
   -4.2694   -2.5406    2.3217 N   0  0  0  0  0  0  0  0  0  0  0  0
   -4.0214   -3.5431    3.3292 C   0  0  0  0  0  0  0  0  0  0  0  0
   -5.6003   -2.2562    1.8935 C   0  0  0  0  0  0  0  0  0  0  0  0
   -6.5156   -3.1403    2.0123 O   0  0  0  0  0  0  0  0  0  0  0  0
   -5.8670   -0.9193    1.3178 C   0  0  1  0  0  0  0  0  0  0  0  0
   -5.7954    0.0747    2.4828 C   0  0  0  0  0  0  0  0  0  0  0  0
   -4.8439   -0.5563    0.3151 N   0  0  0  0  0  0  0  0  0  0  0  0
   -5.2230   -0.0007   -0.9181 C   0  0  0  0  0  0  0  0  0  0  0  0
   -6.0118    1.2819   -0.8861 C   0  0  0  0  0  0  0  0  0  0  0  0
   -6.1810    1.5482   -2.3891 C   0  0  0  0  0  0  0  0  0  0  0  0
   -5.0982    0.7794   -3.0984 C   0  0  0  0  0  0  0  0  0  0  0  0
   -4.2012    0.2232   -1.9648 C   0  0  0  0  0  0  0  0  0  0  0  0
   -3.5018   -0.8371    0.7422 C   0  0  0  0  0  0  0  0  0  0  0  0
   -2.5047   -0.1671    0.1969 N   0  0  0  0  0  0  0  0  0  0  0  0
    5.3966    0.6466    0.2385 N   0  0  0  0  0  0  0  0  0  0  0  0
    6.2585    1.2828   -0.7381 C   0  0  0  0  0  0  0  0  0  0  0  0
    7.1015    0.1878   -1.3565 C   0  0  0  0  0  0  0  0  0  0  0  0
    7.7568   -0.5904   -0.3659 N   0  0  0  0  0  0  0  0  0  0  0  0
    9.0477   -0.1318    0.0298 C   0  0  0  0  0  0  0  0  0  0  0  0
    6.9375   -1.0812    0.7036 C   0  0  0  0  0  0  0  0  0  0  0  0
    6.1251    0.0538    1.3450 C   0  0  0  0  0  0  0  0  0  0  0  0
    2.7193    2.4412   -3.0768 H   0  0  0  0  0  0  0  0  0  0  0  0
    2.6824    3.7284   -1.8518 H   0  0  0  0  0  0  0  0  0  0  0  0
    1.4204    3.6384   -3.1896 H   0  0  0  0  0  0  0  0  0  0  0  0
    3.8279    2.1190   -1.3390 H   0  0  0  0  0  0  0  0  0  0  0  0
    3.7375   -0.9416    1.6151 H   0  0  0  0  0  0  0  0  0  0  0  0
    1.3804   -1.0533    1.4785 H   0  0  0  0  0  0  0  0  0  0  0  0
   -0.6262    1.1398   -0.8745 H   0  0  0  0  0  0  0  0  0  0  0  0
   -1.7064   -2.7400    2.8031 H   0  0  0  0  0  0  0  0  0  0  0  0
   -3.7003   -3.1291    4.2964 H   0  0  0  0  0  0  0  0  0  0  0  0
   -4.9386   -4.1427    3.4568 H   0  0  0  0  0  0  0  0  0  0  0  0
   -3.2494   -4.2364    2.8954 H   0  0  0  0  0  0  0  0  0  0  0  0
   -6.8746   -0.8225    0.8925 H   0  0  0  0  0  0  0  0  0  0  0  0
   -4.8456    0.6294    2.4915 H   0  0  0  0  0  0  0  0  0  0  0  0
   -6.6043    0.8274    2.4164 H   0  0  0  0  0  0  0  0  0  0  0  0
   -5.9525   -0.4621    3.4597 H   0  0  0  0  0  0  0  0  0  0  0  0
   -5.9566   -0.7366   -1.3877 H   0  0  0  0  0  0  0  0  0  0  0  0
   -6.9947    1.1170   -0.4011 H   0  0  0  0  0  0  0  0  0  0  0  0
   -5.4836    2.1356   -0.4785 H   0  0  0  0  0  0  0  0  0  0  0  0
   -7.1967    1.2399   -2.6593 H   0  0  0  0  0  0  0  0  0  0  0  0
   -6.0625    2.6240   -2.6137 H   0  0  0  0  0  0  0  0  0  0  0  0
   -4.5036    1.4253   -3.7667 H   0  0  0  0  0  0  0  0  0  0  0  0
   -5.5679   -0.0807   -3.6100 H   0  0  0  0  0  0  0  0  0  0  0  0
   -3.7779   -0.7256   -2.2931 H   0  0  0  0  0  0  0  0  0  0  0  0
   -3.4785    1.0424   -1.7901 H   0  0  0  0  0  0  0  0  0  0  0  0
    6.9781    1.9244   -0.1619 H   0  0  0  0  0  0  0  0  0  0  0  0
    5.7822    1.9158   -1.4653 H   0  0  0  0  0  0  0  0  0  0  0  0
    6.5140   -0.4634   -2.0418 H   0  0  0  0  0  0  0  0  0  0  0  0
    7.8791    0.6662   -1.9872 H   0  0  0  0  0  0  0  0  0  0  0  0
    9.7921   -0.2586   -0.7803 H   0  0  0  0  0  0  0  0  0  0  0  0
    9.3858   -0.7610    0.8827 H   0  0  0  0  0  0  0  0  0  0  0  0
    8.9597    0.9467    0.3369 H   0  0  0  0  0  0  0  0  0  0  0  0
    6.2680   -1.8748    0.3751 H   0  0  0  0  0  0  0  0  0  0  0  0
    7.6204   -1.4328    1.5102 H   0  0  0  0  0  0  0  0  0  0  0  0
    6.8864    0.8068    1.6936 H   0  0  0  0  0  0  0  0  0  0  0  0
    5.5317   -0.3435    2.1517 H   0  0  0  0  0  0  0  0  0  0  0  0
  1  2  1  0
  2  3  1  0
  3  4  2  0
  4  5  1  0
  5  6  2  0
  6  7  1  0
  7  8  2  0
  8  9  1  0
  9 10  1  0
 10 11  2  0
 11 12  1  0
 12 13  2  0
 13 14  1  0
 14 15  1  0
 14 16  1  0
 16 17  2  0
 16 18  1  0
 18 19  1  0
 18 20  1  0
 20 21  1  0
 21 22  1  0
 22 23  1  0
 23 24  1  0
 24 25  1  0
 20 26  1  0
 26 27  2  0
  5 28  1  0
 28 29  1  0
 29 30  1  0
 30 31  1  0
 31 32  1  0
 31 33  1  0
 33 34  1  0
  8  3  1  0
 27 10  1  0
 34 28  1  0
 26 13  1  0
 25 21  1  0
  1 35  1  0
  1 36  1  0
  1 37  1  0
  4 38  1  0
  6 39  1  0
  7 40  1  0
  9 41  1  0
 12 42  1  0
 15 43  1  0
 15 44  1  0
 15 45  1  0
 18 46  1  6
 19 47  1  0
 19 48  1  0
 19 49  1  0
 21 50  1  0
 22 51  1  0
 22 52  1  0
 23 53  1  0
 23 54  1  0
 24 55  1  0
 24 56  1  0
 25 57  1  0
 25 58  1  0
 29 59  1  0
 29 60  1  0
 30 61  1  0
 30 62  1  0
 32 63  1  0
 32 64  1  0
 32 65  1  0
 33 66  1  0
 33 67  1  0
 34 68  1  0
 34 69  1  0
M  END
$$$$
[H]c1nc(N([H])c2c([H])c([H])c(N3C([H])([H])C([H])([H])C([H])(N4C([H])([H])C([H])([H])N(C([H])([H])[H])C([H])([H])C4([H])[H])C([H])([H])C3([H])[H])c([H])c2OC([H])([H])[H])nc(N([H])c2c([H])c([H])c([H])c([H])c2S(=O)(=O)C([H])(C([H])([H])[H])C([H])([H])[H])c1Cl
     RDKit          3D

 82 86  0  0  0  0  0  0  0  0999 V2000
   -0.1870    3.7228   -1.2569 C   0  0  0  0  0  0  0  0  0  0  0  0
    0.4390    2.5297   -0.8437 O   0  0  0  0  0  0  0  0  0  0  0  0
   -0.3483    1.4775   -0.4024 C   0  0  0  0  0  0  0  0  0  0  0  0
   -1.7220    1.6350   -0.3827 C   0  0  0  0  0  0  0  0  0  0  0  0
   -2.5624    0.6308    0.0436 C   0  0  0  0  0  0  0  0  0  0  0  0
   -1.9599   -0.5357    0.4478 C   0  0  0  0  0  0  0  0  0  0  0  0
   -0.5748   -0.7280    0.4408 C   0  0  0  0  0  0  0  0  0  0  0  0
    0.2576    0.2764    0.0150 C   0  0  0  0  0  0  0  0  0  0  0  0
    1.6540    0.2011   -0.0367 N   0  0  0  0  0  0  0  0  0  0  0  0
    2.4984   -0.8842    0.3177 C   0  0  0  0  0  0  0  0  0  0  0  0
    2.1033   -2.0726    0.7812 N   0  0  0  0  0  0  0  0  0  0  0  0
    2.9559   -3.0558    1.0957 C   0  0  0  0  0  0  0  0  0  0  0  0
    4.3092   -2.8632    0.9451 C   0  0  0  0  0  0  0  0  0  0  0  0
    5.4455   -4.1449    1.3534 Cl  0  0  0  0  0  0  0  0  0  0  0  0
    4.7527   -1.6166    0.4572 C   0  0  0  0  0  0  0  0  0  0  0  0
    6.1380   -1.4466    0.3110 N   0  0  0  0  0  0  0  0  0  0  0  0
    6.9009   -0.3576   -0.1368 C   0  0  0  0  0  0  0  0  0  0  0  0
    6.2766    0.8084   -0.5266 C   0  0  0  0  0  0  0  0  0  0  0  0
    7.0240    1.9039   -0.9778 C   0  0  0  0  0  0  0  0  0  0  0  0
    8.3820    1.8034   -1.0274 C   0  0  0  0  0  0  0  0  0  0  0  0
    9.0024    0.6381   -0.6374 C   0  0  0  0  0  0  0  0  0  0  0  0
    8.2961   -0.4485   -0.1920 C   0  0  0  0  0  0  0  0  0  0  0  0
    9.0842   -1.8926    0.2913 S   0  0  0  0  0  0  0  0  0  0  0  0
    8.6633   -3.0312   -0.6035 O   0  0  0  0  0  0  0  0  0  0  0  0
    8.8235   -2.3045    1.7132 O   0  0  0  0  0  0  0  0  0  0  0  0
   10.8572   -1.7881    0.1370 C   0  0  0  0  0  0  0  0  0  0  0  0
   11.2609   -1.6791   -1.2975 C   0  0  0  0  0  0  0  0  0  0  0  0
   11.4760   -0.7869    1.0544 C   0  0  0  0  0  0  0  0  0  0  0  0
    3.8248   -0.7008    0.1721 N   0  0  0  0  0  0  0  0  0  0  0  0
   -3.9818    0.8060    0.0512 N   0  0  0  0  0  0  0  0  0  0  0  0
   -4.5241    1.9609   -0.5784 C   0  0  0  0  0  0  0  0  0  0  0  0
   -6.0011    1.9283   -0.8544 C   0  0  0  0  0  0  0  0  0  0  0  0
   -6.8245    1.3726    0.2584 C   0  0  0  0  0  0  0  0  0  0  0  0
   -6.0036    0.6088    1.2781 C   0  0  0  0  0  0  0  0  0  0  0  0
   -4.8657   -0.1463    0.6796 C   0  0  0  0  0  0  0  0  0  0  0  0
   -7.9560    0.6086   -0.0875 N   0  0  0  0  0  0  0  0  0  0  0  0
   -7.7905   -0.5856   -0.8057 C   0  0  0  0  0  0  0  0  0  0  0  0
   -9.1362   -1.0235   -1.3907 C   0  0  0  0  0  0  0  0  0  0  0  0
  -10.1390   -0.8718   -0.3544 N   0  0  0  0  0  0  0  0  0  0  0  0
  -10.0361   -1.8235    0.7053 C   0  0  0  0  0  0  0  0  0  0  0  0
  -10.3349    0.4834    0.0484 C   0  0  0  0  0  0  0  0  0  0  0  0
   -9.1475    1.3193   -0.4248 C   0  0  0  0  0  0  0  0  0  0  0  0
    0.5375    4.4499   -1.6799 H   0  0  0  0  0  0  0  0  0  0  0  0
   -0.9481    3.5330   -2.0530 H   0  0  0  0  0  0  0  0  0  0  0  0
   -0.6880    4.2523   -0.4156 H   0  0  0  0  0  0  0  0  0  0  0  0
   -2.1476    2.5764   -0.7105 H   0  0  0  0  0  0  0  0  0  0  0  0
   -2.6020   -1.3517    0.7883 H   0  0  0  0  0  0  0  0  0  0  0  0
   -0.2121   -1.6859    0.7807 H   0  0  0  0  0  0  0  0  0  0  0  0
    2.1500    1.0935   -0.3956 H   0  0  0  0  0  0  0  0  0  0  0  0
    2.6174   -4.0222    1.4737 H   0  0  0  0  0  0  0  0  0  0  0  0
    6.7215   -2.3022    0.5911 H   0  0  0  0  0  0  0  0  0  0  0  0
    5.2202    0.9989   -0.5296 H   0  0  0  0  0  0  0  0  0  0  0  0
    6.5603    2.8305   -1.2896 H   0  0  0  0  0  0  0  0  0  0  0  0
    9.0220    2.6252   -1.3712 H   0  0  0  0  0  0  0  0  0  0  0  0
   10.0936    0.6299   -0.7052 H   0  0  0  0  0  0  0  0  0  0  0  0
   11.2252   -2.8031    0.4806 H   0  0  0  0  0  0  0  0  0  0  0  0
   11.9033   -0.7785   -1.4926 H   0  0  0  0  0  0  0  0  0  0  0  0
   10.3307   -1.5514   -1.9199 H   0  0  0  0  0  0  0  0  0  0  0  0
   11.7765   -2.5763   -1.6995 H   0  0  0  0  0  0  0  0  0  0  0  0
   12.0225   -1.2557    1.8769 H   0  0  0  0  0  0  0  0  0  0  0  0
   12.1781   -0.1622    0.4319 H   0  0  0  0  0  0  0  0  0  0  0  0
   10.7434   -0.0899    1.5079 H   0  0  0  0  0  0  0  0  0  0  0  0
   -4.2803    2.8410    0.0525 H   0  0  0  0  0  0  0  0  0  0  0  0
   -3.9354    2.1199   -1.5269 H   0  0  0  0  0  0  0  0  0  0  0  0
   -6.3084    2.9635   -1.1164 H   0  0  0  0  0  0  0  0  0  0  0  0
   -6.1470    1.3325   -1.7818 H   0  0  0  0  0  0  0  0  0  0  0  0
   -7.2139    2.2642    0.8421 H   0  0  0  0  0  0  0  0  0  0  0  0
   -6.6586   -0.1075    1.8153 H   0  0  0  0  0  0  0  0  0  0  0  0
   -5.5929    1.2907    2.0626 H   0  0  0  0  0  0  0  0  0  0  0  0
   -5.1731   -0.8869   -0.0780 H   0  0  0  0  0  0  0  0  0  0  0  0
   -4.3121   -0.6097    1.5260 H   0  0  0  0  0  0  0  0  0  0  0  0
   -7.5080   -1.4012   -0.0997 H   0  0  0  0  0  0  0  0  0  0  0  0
   -7.0082   -0.5774   -1.5870 H   0  0  0  0  0  0  0  0  0  0  0  0
   -9.4445   -0.3742   -2.2343 H   0  0  0  0  0  0  0  0  0  0  0  0
   -9.0261   -2.0597   -1.7202 H   0  0  0  0  0  0  0  0  0  0  0  0
   -9.1822   -2.5377    0.5321 H   0  0  0  0  0  0  0  0  0  0  0  0
   -9.9814   -1.3564    1.7041 H   0  0  0  0  0  0  0  0  0  0  0  0
  -10.9456   -2.4645    0.6802 H   0  0  0  0  0  0  0  0  0  0  0  0
  -11.2261    0.8855   -0.4545 H   0  0  0  0  0  0  0  0  0  0  0  0
  -10.4517    0.5517    1.1515 H   0  0  0  0  0  0  0  0  0  0  0  0
   -9.2778    1.5186   -1.4917 H   0  0  0  0  0  0  0  0  0  0  0  0
   -9.1611    2.2698    0.1783 H   0  0  0  0  0  0  0  0  0  0  0  0
  1  2  1  0
  2  3  1  0
  3  4  2  0
  4  5  1  0
  5  6  2  0
  6  7  1  0
  7  8  2  0
  8  9  1  0
  9 10  1  0
 10 11  2  0
 11 12  1  0
 12 13  2  0
 13 14  1  0
 13 15  1  0
 15 16  1  0
 16 17  1  0
 17 18  2  0
 18 19  1  0
 19 20  2  0
 20 21  1  0
 21 22  2  0
 22 23  1  0
 23 24  2  0
 23 25  2  0
 23 26  1  0
 26 27  1  0
 26 28  1  0
 15 29  2  0
  5 30  1  0
 30 31  1  0
 31 32  1  0
 32 33  1  0
 33 34  1  0
 34 35  1  0
 33 36  1  0
 36 37  1  0
 37 38  1  0
 38 39  1  0
 39 40  1  0
 39 41  1  0
 41 42  1  0
  8  3  1  0
 29 10  1  0
 35 30  1  0
 42 36  1  0
 22 17  1  0
  1 43  1  0
  1 44  1  0
  1 45  1  0
  4 46  1  0
  6 47  1  0
  7 48  1  0
  9 49  1  0
 12 50  1  0
 16 51  1  0
 18 52  1  0
 19 53  1  0
 20 54  1  0
 21 55  1  0
 26 56  1  0
 27 57  1  0
 27 58  1  0
 27 59  1  0
 28 60  1  0
 28 61  1  0
 28 62  1  0
 31 63  1  0
 31 64  1  0
 32 65  1  0
 32 66  1  0
 33 67  1  0
 34 68  1  0
 34 69  1  0
 35 70  1  0
 35 71  1  0
 37 72  1  0
 37 73  1  0
 38 74  1  0
 38 75  1  0
 40 76  1  0
 40 77  1  0
 40 78  1  0
 41 79  1  0
 41 80  1  0
 42 81  1  0
 42 82  1  0
M  END
$$$$
[H]c1nc(N([H])c2c([H])c([H])c(C(=O)N([H])C3([H])C([H])([H])C([H])([H])N(C([H])([H])[H])C([H])([H])C3([H])[H])c([H])c2OC([H])([H])[H])nc2c1N(C([H])([H])[H])C(=O)[C@@]([H])(C([H])([H])C([H])([H])[H])N2C1([H])C([H])([H])C([H])([H])C([H])([H])C1([H])[H]
     RDKit          3D

 77 81  0  0  0  0  0  0  0  0999 V2000
   -5.8388    2.6577   -0.5266 C   0  0  0  0  0  0  0  0  0  0  0  0
   -6.9164    1.6287   -0.2316 C   0  0  0  0  0  0  0  0  0  0  0  0
   -6.5830    0.5643    0.6917 C   0  0  1  0  0  0  0  0  0  0  0  0
   -5.5161   -0.3570    0.4652 N   0  0  0  0  0  0  0  0  0  0  0  0
   -5.5093   -1.6020   -0.1918 C   0  0  0  0  0  0  0  0  0  0  0  0
   -6.5863   -2.5694   -0.0163 C   0  0  0  0  0  0  0  0  0  0  0  0
   -7.4601   -2.4837   -1.3005 C   0  0  0  0  0  0  0  0  0  0  0  0
   -6.3198   -2.5344   -2.2934 C   0  0  0  0  0  0  0  0  0  0  0  0
   -5.3521   -1.4873   -1.6902 C   0  0  0  0  0  0  0  0  0  0  0  0
   -4.2443    0.0886    0.9473 C   0  0  0  0  0  0  0  0  0  0  0  0
   -3.0847   -0.3319    0.4817 N   0  0  0  0  0  0  0  0  0  0  0  0
   -1.8275    0.0506    0.8628 C   0  0  0  0  0  0  0  0  0  0  0  0
   -0.7270   -0.5474    0.1711 N   0  0  0  0  0  0  0  0  0  0  0  0
    0.6336   -0.3021    0.3671 C   0  0  0  0  0  0  0  0  0  0  0  0
    1.1312    0.5833    1.2997 C   0  0  0  0  0  0  0  0  0  0  0  0
    2.5074    0.7818    1.3852 C   0  0  0  0  0  0  0  0  0  0  0  0
    3.4107    0.1333    0.5784 C   0  0  0  0  0  0  0  0  0  0  0  0
    2.8791   -0.7411   -0.3336 C   0  0  0  0  0  0  0  0  0  0  0  0
    1.5471   -0.9823   -0.4710 C   0  0  0  0  0  0  0  0  0  0  0  0
    1.0422   -1.8735   -1.4046 O   0  0  0  0  0  0  0  0  0  0  0  0
    1.8437   -2.6008   -2.2867 C   0  0  0  0  0  0  0  0  0  0  0  0
    4.8115    0.4131    0.6777 C   0  0  0  0  0  0  0  0  0  0  0  0
    5.2304    1.1806    1.5789 O   0  0  0  0  0  0  0  0  0  0  0  0
    5.7425   -0.1473   -0.2144 N   0  0  0  0  0  0  0  0  0  0  0  0
    7.1685    0.1254   -0.1609 C   0  0  0  0  0  0  0  0  0  0  0  0
    8.0099   -1.0857    0.0628 C   0  0  0  0  0  0  0  0  0  0  0  0
    9.4355   -0.6142    0.2532 C   0  0  0  0  0  0  0  0  0  0  0  0
    9.7580    0.5095   -0.5586 N   0  0  0  0  0  0  0  0  0  0  0  0
    9.7599    1.7779    0.1304 C   0  0  0  0  0  0  0  0  0  0  0  0
    9.0023    0.6264   -1.7741 C   0  0  0  0  0  0  0  0  0  0  0  0
    7.5289    0.7556   -1.4861 C   0  0  0  0  0  0  0  0  0  0  0  0
   -1.7774    0.9519    1.8165 N   0  0  0  0  0  0  0  0  0  0  0  0
   -2.8737    1.4631    2.3768 C   0  0  0  0  0  0  0  0  0  0  0  0
   -4.1238    1.0525    1.9655 C   0  0  0  0  0  0  0  0  0  0  0  0
   -5.2700    1.6244    2.5541 N   0  0  0  0  0  0  0  0  0  0  0  0
   -5.2146    2.6270    3.6207 C   0  0  0  0  0  0  0  0  0  0  0  0
   -6.5040    1.1567    2.0400 C   0  0  0  0  0  0  0  0  0  0  0  0
   -7.4995    1.2921    2.8342 O   0  0  0  0  0  0  0  0  0  0  0  0
   -5.7018    3.3992    0.2558 H   0  0  0  0  0  0  0  0  0  0  0  0
   -6.1373    3.2577   -1.4473 H   0  0  0  0  0  0  0  0  0  0  0  0
   -4.9082    2.1461   -0.8398 H   0  0  0  0  0  0  0  0  0  0  0  0
   -7.6960    2.2621    0.2949 H   0  0  0  0  0  0  0  0  0  0  0  0
   -7.4889    1.3583   -1.1473 H   0  0  0  0  0  0  0  0  0  0  0  0
   -7.5197   -0.0949    0.7381 H   0  0  0  0  0  0  0  0  0  0  0  0
   -4.5592   -2.1512    0.1349 H   0  0  0  0  0  0  0  0  0  0  0  0
   -7.1708   -2.5947    0.8855 H   0  0  0  0  0  0  0  0  0  0  0  0
   -6.1564   -3.5967   -0.1173 H   0  0  0  0  0  0  0  0  0  0  0  0
   -7.9008   -1.4800   -1.2879 H   0  0  0  0  0  0  0  0  0  0  0  0
   -8.1472   -3.3227   -1.3321 H   0  0  0  0  0  0  0  0  0  0  0  0
   -5.8950   -3.5591   -2.2029 H   0  0  0  0  0  0  0  0  0  0  0  0
   -6.5810   -2.3264   -3.3297 H   0  0  0  0  0  0  0  0  0  0  0  0
   -4.3607   -1.8349   -2.0525 H   0  0  0  0  0  0  0  0  0  0  0  0
   -5.6877   -0.5295   -2.1213 H   0  0  0  0  0  0  0  0  0  0  0  0
   -0.9669   -1.2780   -0.5898 H   0  0  0  0  0  0  0  0  0  0  0  0
    0.5073    1.1380    1.9840 H   0  0  0  0  0  0  0  0  0  0  0  0
    2.8459    1.4912    2.1409 H   0  0  0  0  0  0  0  0  0  0  0  0
    3.5242   -1.3077   -1.0208 H   0  0  0  0  0  0  0  0  0  0  0  0
    2.3771   -3.3997   -1.7382 H   0  0  0  0  0  0  0  0  0  0  0  0
    1.1667   -3.0798   -3.0539 H   0  0  0  0  0  0  0  0  0  0  0  0
    2.5643   -2.0025   -2.8568 H   0  0  0  0  0  0  0  0  0  0  0  0
    5.4288   -0.7968   -0.9641 H   0  0  0  0  0  0  0  0  0  0  0  0
    7.3146    0.8317    0.6848 H   0  0  0  0  0  0  0  0  0  0  0  0
    7.6659   -1.5964    1.0007 H   0  0  0  0  0  0  0  0  0  0  0  0
    7.9412   -1.8343   -0.7414 H   0  0  0  0  0  0  0  0  0  0  0  0
   10.1589   -1.4584    0.1167 H   0  0  0  0  0  0  0  0  0  0  0  0
    9.5345   -0.3048    1.3267 H   0  0  0  0  0  0  0  0  0  0  0  0
   10.7121    2.3437   -0.0546 H   0  0  0  0  0  0  0  0  0  0  0  0
    9.5679    1.6511    1.2088 H   0  0  0  0  0  0  0  0  0  0  0  0
    8.9148    2.4206   -0.2523 H   0  0  0  0  0  0  0  0  0  0  0  0
    9.3644    1.5461   -2.3059 H   0  0  0  0  0  0  0  0  0  0  0  0
    9.2176   -0.2061   -2.4903 H   0  0  0  0  0  0  0  0  0  0  0  0
    7.2651    1.8420   -1.4642 H   0  0  0  0  0  0  0  0  0  0  0  0
    6.9950    0.2757   -2.3372 H   0  0  0  0  0  0  0  0  0  0  0  0
   -2.8004    2.2191    3.1749 H   0  0  0  0  0  0  0  0  0  0  0  0
   -4.7710    2.2484    4.5427 H   0  0  0  0  0  0  0  0  0  0  0  0
   -6.2393    3.0298    3.7404 H   0  0  0  0  0  0  0  0  0  0  0  0
   -4.5923    3.5093    3.2892 H   0  0  0  0  0  0  0  0  0  0  0  0
  1  2  1  0
  2  3  1  0
  3  4  1  0
  4  5  1  0
  5  6  1  0
  6  7  1  0
  7  8  1  0
  8  9  1  0
  4 10  1  0
 10 11  2  0
 11 12  1  0
 12 13  1  0
 13 14  1  0
 14 15  2  0
 15 16  1  0
 16 17  2  0
 17 18  1  0
 18 19  2  0
 19 20  1  0
 20 21  1  0
 17 22  1  0
 22 23  2  0
 22 24  1  0
 24 25  1  0
 25 26  1  0
 26 27  1  0
 27 28  1  0
 28 29  1  0
 28 30  1  0
 30 31  1  0
 12 32  2  0
 32 33  1  0
 33 34  2  0
 34 35  1  0
 35 36  1  0
 35 37  1  0
 37 38  2  0
 37  3  1  0
  9  5  1  0
 34 10  1  0
 19 14  1  0
 31 25  1  0
  1 39  1  0
  1 40  1  0
  1 41  1  0
  2 42  1  0
  2 43  1  0
  3 44  1  1
  5 45  1  0
  6 46  1  0
  6 47  1  0
  7 48  1  0
  7 49  1  0
  8 50  1  0
  8 51  1  0
  9 52  1  0
  9 53  1  0
 13 54  1  0
 15 55  1  0
 16 56  1  0
 18 57  1  0
 21 58  1  0
 21 59  1  0
 21 60  1  0
 24 61  1  0
 25 62  1  0
 26 63  1  0
 26 64  1  0
 27 65  1  0
 27 66  1  0
 29 67  1  0
 29 68  1  0
 29 69  1  0
 30 70  1  0
 30 71  1  0
 31 72  1  0
 31 73  1  0
 33 74  1  0
 36 75  1  0
 36 76  1  0
 36 77  1  0
M  END
$$$$
[H]c1nc(N([H])c2c([H])c([H])c(C(=O)N([H])C3([H])C([H])([H])C([H])([H])N(C([H])([H])[H])C([H])([H])C3([H])[H])c([H])c2[H])nc2c1N(C([H])([H])[H])C(=O)[C@@]([H])(C([H])([H])C([H])([H])[H])N2C1([H])C([H])([H])C([H])([H])C([H])([H])C1([H])[H]
     RDKit          3D

 73 77  0  0  0  0  0  0  0  0999 V2000
   -8.3914   -1.0553   -1.2035 C   0  0  0  0  0  0  0  0  0  0  0  0
   -7.5079    0.1677   -0.8871 C   0  0  0  0  0  0  0  0  0  0  0  0
   -6.1562   -0.3447   -0.6627 C   0  0  1  0  0  0  0  0  0  0  0  0
   -5.0860    0.5257   -0.3566 N   0  0  0  0  0  0  0  0  0  0  0  0
   -5.0465    1.9618   -0.3499 C   0  0  0  0  0  0  0  0  0  0  0  0
   -5.8979    2.6429    0.6630 C   0  0  0  0  0  0  0  0  0  0  0  0
   -6.6629    3.7228   -0.0407 C   0  0  0  0  0  0  0  0  0  0  0  0
   -6.3095    3.6777   -1.4880 C   0  0  0  0  0  0  0  0  0  0  0  0
   -5.3447    2.5584   -1.7101 C   0  0  0  0  0  0  0  0  0  0  0  0
   -3.8524   -0.1523    0.0063 C   0  0  0  0  0  0  0  0  0  0  0  0
   -2.6571    0.4316   -0.2008 N   0  0  0  0  0  0  0  0  0  0  0  0
   -1.4848   -0.1902    0.1381 C   0  0  0  0  0  0  0  0  0  0  0  0
   -0.2527    0.4447   -0.1210 N   0  0  0  0  0  0  0  0  0  0  0  0
    1.0311   -0.0127    0.1636 C   0  0  0  0  0  0  0  0  0  0  0  0
    2.0979    0.4608   -0.6064 C   0  0  0  0  0  0  0  0  0  0  0  0
    3.3917    0.0745   -0.3739 C   0  0  0  0  0  0  0  0  0  0  0  0
    3.7071   -0.8064    0.6386 C   0  0  0  0  0  0  0  0  0  0  0  0
    2.6720   -1.2795    1.4036 C   0  0  0  0  0  0  0  0  0  0  0  0
    1.3427   -0.8838    1.1663 C   0  0  0  0  0  0  0  0  0  0  0  0
    5.0684   -1.2492    0.9268 C   0  0  0  0  0  0  0  0  0  0  0  0
    5.2412   -2.0904    1.8440 O   0  0  0  0  0  0  0  0  0  0  0  0
    6.1861   -0.7711    0.2187 N   0  0  0  0  0  0  0  0  0  0  0  0
    7.5131   -1.2523    0.5530 C   0  0  0  0  0  0  0  0  0  0  0  0
    8.2724   -0.0548    1.1151 C   0  0  0  0  0  0  0  0  0  0  0  0
    9.7346   -0.2611    0.7785 C   0  0  0  0  0  0  0  0  0  0  0  0
    9.8656    0.0476   -0.6413 N   0  0  0  0  0  0  0  0  0  0  0  0
    9.6392    1.4711   -0.8369 C   0  0  0  0  0  0  0  0  0  0  0  0
    8.9656   -0.7373   -1.4289 C   0  0  0  0  0  0  0  0  0  0  0  0
    8.2339   -1.7962   -0.6397 C   0  0  0  0  0  0  0  0  0  0  0  0
   -1.5306   -1.3998    0.6843 N   0  0  0  0  0  0  0  0  0  0  0  0
   -2.6754   -2.0475    0.9230 C   0  0  0  0  0  0  0  0  0  0  0  0
   -3.8418   -1.4079    0.5768 C   0  0  0  0  0  0  0  0  0  0  0  0
   -5.0802   -2.0630    0.8203 N   0  0  0  0  0  0  0  0  0  0  0  0
   -5.1454   -3.3881    1.4200 C   0  0  0  0  0  0  0  0  0  0  0  0
   -6.2609   -1.3648    0.4527 C   0  0  0  0  0  0  0  0  0  0  0  0
   -7.3370   -1.6095    1.0524 O   0  0  0  0  0  0  0  0  0  0  0  0
   -8.8670   -0.9051   -2.2141 H   0  0  0  0  0  0  0  0  0  0  0  0
   -9.2022   -1.1778   -0.4864 H   0  0  0  0  0  0  0  0  0  0  0  0
   -7.7842   -1.9753   -1.3332 H   0  0  0  0  0  0  0  0  0  0  0  0
   -7.6824    0.8833   -1.6766 H   0  0  0  0  0  0  0  0  0  0  0  0
   -7.9241    0.5714    0.0813 H   0  0  0  0  0  0  0  0  0  0  0  0
   -5.8543   -0.9412   -1.5871 H   0  0  0  0  0  0  0  0  0  0  0  0
   -3.9921    2.3214   -0.1292 H   0  0  0  0  0  0  0  0  0  0  0  0
   -6.5142    1.9794    1.3027 H   0  0  0  0  0  0  0  0  0  0  0  0
   -5.2745    3.1985    1.4394 H   0  0  0  0  0  0  0  0  0  0  0  0
   -6.3929    4.7644    0.3102 H   0  0  0  0  0  0  0  0  0  0  0  0
   -7.7707    3.6643    0.1597 H   0  0  0  0  0  0  0  0  0  0  0  0
   -7.2512    3.4183   -2.0557 H   0  0  0  0  0  0  0  0  0  0  0  0
   -5.9801    4.6532   -1.9099 H   0  0  0  0  0  0  0  0  0  0  0  0
   -4.4280    3.0461   -2.1599 H   0  0  0  0  0  0  0  0  0  0  0  0
   -5.6384    1.8208   -2.4679 H   0  0  0  0  0  0  0  0  0  0  0  0
   -0.2970    1.4157   -0.6005 H   0  0  0  0  0  0  0  0  0  0  0  0
    1.8886    1.1596   -1.4172 H   0  0  0  0  0  0  0  0  0  0  0  0
    4.2240    0.4441   -0.9773 H   0  0  0  0  0  0  0  0  0  0  0  0
    2.8309   -1.9738    2.2180 H   0  0  0  0  0  0  0  0  0  0  0  0
    0.5721   -1.2733    1.8119 H   0  0  0  0  0  0  0  0  0  0  0  0
    6.1291   -0.0658   -0.5629 H   0  0  0  0  0  0  0  0  0  0  0  0
    7.4528   -1.9997    1.3616 H   0  0  0  0  0  0  0  0  0  0  0  0
    8.1093   -0.0202    2.2143 H   0  0  0  0  0  0  0  0  0  0  0  0
    7.8902    0.8859    0.6721 H   0  0  0  0  0  0  0  0  0  0  0  0
   10.0350   -1.3131    0.9169 H   0  0  0  0  0  0  0  0  0  0  0  0
   10.3902    0.4231    1.3556 H   0  0  0  0  0  0  0  0  0  0  0  0
   10.3857    1.8483   -1.5752 H   0  0  0  0  0  0  0  0  0  0  0  0
    9.8179    1.9897    0.1133 H   0  0  0  0  0  0  0  0  0  0  0  0
    8.5972    1.6690   -1.1688 H   0  0  0  0  0  0  0  0  0  0  0  0
    9.5810   -1.2757   -2.1956 H   0  0  0  0  0  0  0  0  0  0  0  0
    8.2371   -0.1003   -2.0030 H   0  0  0  0  0  0  0  0  0  0  0  0
    7.5307   -2.2976   -1.3485 H   0  0  0  0  0  0  0  0  0  0  0  0
    8.9979   -2.5513   -0.3190 H   0  0  0  0  0  0  0  0  0  0  0  0
   -2.7216   -3.0244    1.3643 H   0  0  0  0  0  0  0  0  0  0  0  0
   -6.2135   -3.6353    1.5874 H   0  0  0  0  0  0  0  0  0  0  0  0
   -4.6303   -3.4386    2.3869 H   0  0  0  0  0  0  0  0  0  0  0  0
   -4.6926   -4.1570    0.7407 H   0  0  0  0  0  0  0  0  0  0  0  0
  1  2  1  0
  2  3  1  0
  3  4  1  0
  4  5  1  0
  5  6  1  0
  6  7  1  0
  7  8  1  0
  8  9  1  0
  4 10  1  0
 10 11  2  0
 11 12  1  0
 12 13  1  0
 13 14  1  0
 14 15  2  0
 15 16  1  0
 16 17  2  0
 17 18  1  0
 18 19  2  0
 17 20  1  0
 20 21  2  0
 20 22  1  0
 22 23  1  0
 23 24  1  0
 24 25  1  0
 25 26  1  0
 26 27  1  0
 26 28  1  0
 28 29  1  0
 12 30  2  0
 30 31  1  0
 31 32  2  0
 32 33  1  0
 33 34  1  0
 33 35  1  0
 35 36  2  0
 35  3  1  0
  9  5  1  0
 32 10  1  0
 19 14  1  0
 29 23  1  0
  1 37  1  0
  1 38  1  0
  1 39  1  0
  2 40  1  0
  2 41  1  0
  3 42  1  6
  5 43  1  0
  6 44  1  0
  6 45  1  0
  7 46  1  0
  7 47  1  0
  8 48  1  0
  8 49  1  0
  9 50  1  0
  9 51  1  0
 13 52  1  0
 15 53  1  0
 16 54  1  0
 18 55  1  0
 19 56  1  0
 22 57  1  0
 23 58  1  0
 24 59  1  0
 24 60  1  0
 25 61  1  0
 25 62  1  0
 27 63  1  0
 27 64  1  0
 27 65  1  0
 28 66  1  0
 28 67  1  0
 29 68  1  0
 29 69  1  0
 31 70  1  0
 34 71  1  0
 34 72  1  0
 34 73  1  0
M  END
$$$$
[H]OC([H])([H])[C@@]1(O[H])C([H])([H])[C@@]2([H])O[C@]1(C([H])([H])[H])n1c3c([H])c([H])c([H])c([H])c3c3c4c(c5c6c([H])c([H])c([H])c([H])c6n2c5c31)C([H])([H])N([H])C4=O
     RDKit          3D

 54 61  0  0  0  0  0  0  0  0999 V2000
   -3.1418    0.1931   -1.6977 C   0  0  0  0  0  0  0  0  0  0  0  0
   -2.0672   -0.2416   -0.7056 C   0  0  2  0  0  0  0  0  0  0  0  0
   -1.3646   -1.1997   -1.4964 O   0  0  0  0  0  0  0  0  0  0  0  0
   -0.7981   -2.1262   -0.6953 C   0  0  2  0  0  0  0  0  0  0  0  0
   -1.5276   -2.1485    0.6200 C   0  0  0  0  0  0  0  0  0  0  0  0
   -2.5695   -1.0630    0.4128 C   0  0  1  0  0  0  0  0  0  0  0  0
   -2.6570   -0.3884    1.6282 O   0  0  0  0  0  0  0  0  0  0  0  0
   -3.8528   -1.7770    0.0694 C   0  0  0  0  0  0  0  0  0  0  0  0
   -4.0858   -2.7043    1.1135 O   0  0  0  0  0  0  0  0  0  0  0  0
    0.5793   -1.7015   -0.4398 N   0  0  0  0  0  0  0  0  0  0  0  0
    1.6738   -2.4346   -0.3714 C   0  0  0  0  0  0  0  0  0  0  0  0
    1.8583   -3.7887   -0.5335 C   0  0  0  0  0  0  0  0  0  0  0  0
    3.1414   -4.3156   -0.4065 C   0  0  0  0  0  0  0  0  0  0  0  0
    4.2342   -3.4936   -0.1189 C   0  0  0  0  0  0  0  0  0  0  0  0
    4.0565   -2.1365    0.0448 C   0  0  0  0  0  0  0  0  0  0  0  0
    2.7810   -1.6383   -0.0852 C   0  0  0  0  0  0  0  0  0  0  0  0
    2.3012   -0.3773    0.0176 C   0  0  0  0  0  0  0  0  0  0  0  0
    2.8723    0.8606    0.3054 C   0  0  0  0  0  0  0  0  0  0  0  0
    4.2732    1.1913    0.5786 C   0  0  0  0  0  0  0  0  0  0  0  0
    4.3352    2.5993    0.8085 N   0  0  0  0  0  0  0  0  0  0  0  0
    2.9989    3.1293    0.6853 C   0  0  0  0  0  0  0  0  0  0  0  0
    2.8128    4.3449    0.8491 O   0  0  0  0  0  0  0  0  0  0  0  0
    2.1260    2.0179    0.3735 C   0  0  0  0  0  0  0  0  0  0  0  0
    0.7457    1.9615    0.1469 C   0  0  0  0  0  0  0  0  0  0  0  0
   -0.2780    2.8547    0.1442 C   0  0  0  0  0  0  0  0  0  0  0  0
   -0.3187    4.2083    0.3824 C   0  0  0  0  0  0  0  0  0  0  0  0
   -1.5450    4.8840    0.3328 C   0  0  0  0  0  0  0  0  0  0  0  0
   -2.6768    4.1782    0.0481 C   0  0  0  0  0  0  0  0  0  0  0  0
   -2.6202    2.7986   -0.1923 C   0  0  0  0  0  0  0  0  0  0  0  0
   -1.4312    2.1354   -0.1473 C   0  0  0  0  0  0  0  0  0  0  0  0
   -1.1606    0.8290   -0.3299 N   0  0  0  0  0  0  0  0  0  0  0  0
    0.1923    0.7267   -0.1399 C   0  0  0  0  0  0  0  0  0  0  0  0
    0.9525   -0.4140   -0.2008 C   0  0  0  0  0  0  0  0  0  0  0  0
   -2.7736    1.0854   -2.2392 H   0  0  0  0  0  0  0  0  0  0  0  0
   -4.1419    0.2639   -1.2813 H   0  0  0  0  0  0  0  0  0  0  0  0
   -3.2680   -0.5679   -2.5374 H   0  0  0  0  0  0  0  0  0  0  0  0
   -0.7545   -3.1251   -1.1405 H   0  0  0  0  0  0  0  0  0  0  0  0
   -0.8671   -1.9293    1.4852 H   0  0  0  0  0  0  0  0  0  0  0  0
   -1.9993   -3.1350    0.8358 H   0  0  0  0  0  0  0  0  0  0  0  0
   -3.6289   -0.2375    1.7982 H   0  0  0  0  0  0  0  0  0  0  0  0
   -4.7401   -1.1363    0.0603 H   0  0  0  0  0  0  0  0  0  0  0  0
   -3.6991   -2.3235   -0.8791 H   0  0  0  0  0  0  0  0  0  0  0  0
   -5.0082   -3.0956    0.9841 H   0  0  0  0  0  0  0  0  0  0  0  0
    1.0005   -4.4111   -0.7561 H   0  0  0  0  0  0  0  0  0  0  0  0
    3.2850   -5.3803   -0.5342 H   0  0  0  0  0  0  0  0  0  0  0  0
    5.1985   -3.9557   -0.0327 H   0  0  0  0  0  0  0  0  0  0  0  0
    4.9100   -1.5059    0.2678 H   0  0  0  0  0  0  0  0  0  0  0  0
    4.9522    0.9665   -0.2718 H   0  0  0  0  0  0  0  0  0  0  0  0
    4.6842    0.6522    1.4610 H   0  0  0  0  0  0  0  0  0  0  0  0
    5.2083    3.1735    1.0330 H   0  0  0  0  0  0  0  0  0  0  0  0
    0.5315    4.8155    0.6109 H   0  0  0  0  0  0  0  0  0  0  0  0
   -1.5422    5.9334    0.5217 H   0  0  0  0  0  0  0  0  0  0  0  0
   -3.6566    4.6541   -0.0027 H   0  0  0  0  0  0  0  0  0  0  0  0
   -3.5301    2.2946   -0.3838 H   0  0  0  0  0  0  0  0  0  0  0  0
  2  1  1  6
  2  3  1  0
  3  4  1  0
  4  5  1  0
  5  6  1  0
  6  7  1  1
  6  8  1  0
  8  9  1  0
  4 10  1  0
 10 11  1  0
 11 12  2  0
 12 13  1  0
 13 14  2  0
 14 15  1  0
 15 16  2  0
 16 17  1  0
 17 18  2  0
 18 19  1  0
 19 20  1  0
 20 21  1  0
 21 22  2  0
 21 23  1  0
 23 24  2  0
 24 25  1  0
 25 26  2  0
 26 27  1  0
 27 28  2  0
 28 29  1  0
 29 30  2  0
 30 31  1  0
 31 32  1  0
 32 33  2  0
  6  2  1  0
 33 10  1  0
 31  2  1  0
 16 11  1  0
 33 17  1  0
 23 18  1  0
 32 24  1  0
 30 25  1  0
  1 34  1  0
  1 35  1  0
  1 36  1  0
  4 37  1  6
  5 38  1  0
  5 39  1  0
  7 40  1  0
  8 41  1  0
  8 42  1  0
  9 43  1  0
 12 44  1  0
 13 45  1  0
 14 46  1  0
 15 47  1  0
 19 48  1  0
 19 49  1  0
 20 50  1  0
 26 51  1  0
 27 52  1  0
 28 53  1  0
 29 54  1  0
M  END
$$$$
[H]c1nc(N([H])c2c([H])c([H])c(C(=O)N([H])C3([H])C([H])([H])C([H])([H])N(C([H])([H])[H])C([H])([H])C3([H])[H])c([H])c2OC([H])([H])[H])nc2c1N(C([H])([H])[H])C(=O)[C@@]([H])(C([H])([H])[H])N2C1([H])C([H])([H])C([H])([H])C([H])([H])C1([H])[H]
     RDKit          3D

 74 78  0  0  0  0  0  0  0  0999 V2000
    1.7147   -1.3282   -2.9200 C   0  0  0  0  0  0  0  0  0  0  0  0
    0.8497   -0.9851   -1.8544 O   0  0  0  0  0  0  0  0  0  0  0  0
    1.2797   -0.6549   -0.5968 C   0  0  0  0  0  0  0  0  0  0  0  0
    2.6089   -0.6269   -0.2513 C   0  0  0  0  0  0  0  0  0  0  0  0
    3.0552   -0.3018    0.9944 C   0  0  0  0  0  0  0  0  0  0  0  0
    2.1000    0.0098    1.9346 C   0  0  0  0  0  0  0  0  0  0  0  0
    0.7406   -0.0127    1.6037 C   0  0  0  0  0  0  0  0  0  0  0  0
    0.2820   -0.3349    0.3630 C   0  0  0  0  0  0  0  0  0  0  0  0
   -1.0544   -0.3889   -0.0385 N   0  0  0  0  0  0  0  0  0  0  0  0
   -2.1752   -0.0064    0.7389 C   0  0  0  0  0  0  0  0  0  0  0  0
   -2.1532    0.4718    1.9713 N   0  0  0  0  0  0  0  0  0  0  0  0
   -3.2192    0.8334    2.6816 C   0  0  0  0  0  0  0  0  0  0  0  0
   -4.4710    0.6928    2.0642 C   0  0  0  0  0  0  0  0  0  0  0  0
   -5.6294    1.0810    2.7823 N   0  0  0  0  0  0  0  0  0  0  0  0
   -5.5472    1.6062    4.1510 C   0  0  0  0  0  0  0  0  0  0  0  0
   -6.8734    0.9358    2.1150 C   0  0  0  0  0  0  0  0  0  0  0  0
   -7.9404    0.8929    2.8163 O   0  0  0  0  0  0  0  0  0  0  0  0
   -6.9232    0.8385    0.6333 C   0  0  1  0  0  0  0  0  0  0  0  0
   -6.8930    2.2519    0.1132 C   0  0  0  0  0  0  0  0  0  0  0  0
   -5.8411    0.0314    0.1213 N   0  0  0  0  0  0  0  0  0  0  0  0
   -5.8894   -0.8975   -0.9355 C   0  0  0  0  0  0  0  0  0  0  0  0
   -6.8385   -2.0568   -0.7557 C   0  0  0  0  0  0  0  0  0  0  0  0
   -6.5051   -2.8092   -2.0567 C   0  0  0  0  0  0  0  0  0  0  0  0
   -6.3978   -1.6871   -3.0646 C   0  0  0  0  0  0  0  0  0  0  0  0
   -6.3929   -0.3760   -2.2643 C   0  0  0  0  0  0  0  0  0  0  0  0
   -4.5648    0.2008    0.7840 C   0  0  0  0  0  0  0  0  0  0  0  0
   -3.4252   -0.1263    0.1760 N   0  0  0  0  0  0  0  0  0  0  0  0
    4.4679   -0.2633    1.3210 C   0  0  0  0  0  0  0  0  0  0  0  0
    4.8101   -0.4255    2.5169 O   0  0  0  0  0  0  0  0  0  0  0  0
    5.4169   -0.0486    0.3228 N   0  0  0  0  0  0  0  0  0  0  0  0
    6.8493    0.0071    0.5318 C   0  0  0  0  0  0  0  0  0  0  0  0
    7.3438    1.4506    0.4842 C   0  0  0  0  0  0  0  0  0  0  0  0
    8.7759    1.3932    0.9889 C   0  0  0  0  0  0  0  0  0  0  0  0
    9.6132    0.6172    0.0986 N   0  0  0  0  0  0  0  0  0  0  0  0
    9.9659    1.3480   -1.0989 C   0  0  0  0  0  0  0  0  0  0  0  0
    9.1042   -0.6982   -0.1482 C   0  0  0  0  0  0  0  0  0  0  0  0
    7.6468   -0.7916   -0.4344 C   0  0  0  0  0  0  0  0  0  0  0  0
    1.1004   -1.3317   -3.8500 H   0  0  0  0  0  0  0  0  0  0  0  0
    2.1337   -2.3498   -2.8087 H   0  0  0  0  0  0  0  0  0  0  0  0
    2.5346   -0.5884   -3.0380 H   0  0  0  0  0  0  0  0  0  0  0  0
    3.3632   -0.8753   -1.0012 H   0  0  0  0  0  0  0  0  0  0  0  0
    2.4409    0.2696    2.9291 H   0  0  0  0  0  0  0  0  0  0  0  0
    0.0916    0.2356    2.3988 H   0  0  0  0  0  0  0  0  0  0  0  0
   -1.2707   -0.7522   -1.0191 H   0  0  0  0  0  0  0  0  0  0  0  0
   -3.2090    1.2187    3.6749 H   0  0  0  0  0  0  0  0  0  0  0  0
   -4.9249    2.5253    4.1741 H   0  0  0  0  0  0  0  0  0  0  0  0
   -5.1644    0.8207    4.8465 H   0  0  0  0  0  0  0  0  0  0  0  0
   -6.5780    1.9269    4.4345 H   0  0  0  0  0  0  0  0  0  0  0  0
   -7.8633    0.3063    0.3361 H   0  0  0  0  0  0  0  0  0  0  0  0
   -7.8422    2.4536   -0.4667 H   0  0  0  0  0  0  0  0  0  0  0  0
   -5.9878    2.4548   -0.4991 H   0  0  0  0  0  0  0  0  0  0  0  0
   -6.8913    3.0138    0.9210 H   0  0  0  0  0  0  0  0  0  0  0  0
   -4.8909   -1.3620   -1.1744 H   0  0  0  0  0  0  0  0  0  0  0  0
   -6.6426   -2.6569    0.1354 H   0  0  0  0  0  0  0  0  0  0  0  0
   -7.9068   -1.7742   -0.9007 H   0  0  0  0  0  0  0  0  0  0  0  0
   -7.3699   -3.4640   -2.3349 H   0  0  0  0  0  0  0  0  0  0  0  0
   -5.5646   -3.3828   -1.9512 H   0  0  0  0  0  0  0  0  0  0  0  0
   -7.1584   -1.6984   -3.8446 H   0  0  0  0  0  0  0  0  0  0  0  0
   -5.3950   -1.7974   -3.5533 H   0  0  0  0  0  0  0  0  0  0  0  0
   -5.7105    0.3020   -2.7667 H   0  0  0  0  0  0  0  0  0  0  0  0
   -7.4469    0.0094   -2.1728 H   0  0  0  0  0  0  0  0  0  0  0  0
    5.1072    0.0855   -0.6668 H   0  0  0  0  0  0  0  0  0  0  0  0
    7.0451   -0.3272    1.5779 H   0  0  0  0  0  0  0  0  0  0  0  0
    7.3527    1.7783   -0.5608 H   0  0  0  0  0  0  0  0  0  0  0  0
    6.7920    2.0952    1.1808 H   0  0  0  0  0  0  0  0  0  0  0  0
    8.7400    0.8789    1.9640 H   0  0  0  0  0  0  0  0  0  0  0  0
    9.1935    2.3938    1.0929 H   0  0  0  0  0  0  0  0  0  0  0  0
   10.7377    2.0887   -0.8011 H   0  0  0  0  0  0  0  0  0  0  0  0
    9.0991    1.8079   -1.6143 H   0  0  0  0  0  0  0  0  0  0  0  0
   10.4392    0.6470   -1.7994 H   0  0  0  0  0  0  0  0  0  0  0  0
    9.3645   -1.4432    0.6403 H   0  0  0  0  0  0  0  0  0  0  0  0
    9.6320   -1.0595   -1.0813 H   0  0  0  0  0  0  0  0  0  0  0  0
    7.4028   -0.4313   -1.4653 H   0  0  0  0  0  0  0  0  0  0  0  0
    7.3569   -1.8600   -0.3236 H   0  0  0  0  0  0  0  0  0  0  0  0
  1  2  1  0
  2  3  1  0
  3  4  2  0
  4  5  1  0
  5  6  2  0
  6  7  1  0
  7  8  2  0
  8  9  1  0
  9 10  1  0
 10 11  2  0
 11 12  1  0
 12 13  2  0
 13 14  1  0
 14 15  1  0
 14 16  1  0
 16 17  2  0
 16 18  1  0
 18 19  1  0
 18 20  1  0
 20 21  1  0
 21 22  1  0
 22 23  1  0
 23 24  1  0
 24 25  1  0
 20 26  1  0
 26 27  2  0
  5 28  1  0
 28 29  2  0
 28 30  1  0
 30 31  1  0
 31 32  1  0
 32 33  1  0
 33 34  1  0
 34 35  1  0
 34 36  1  0
 36 37  1  0
  8  3  1  0
 27 10  1  0
 37 31  1  0
 26 13  1  0
 25 21  1  0
  1 38  1  0
  1 39  1  0
  1 40  1  0
  4 41  1  0
  6 42  1  0
  7 43  1  0
  9 44  1  0
 12 45  1  0
 15 46  1  0
 15 47  1  0
 15 48  1  0
 18 49  1  1
 19 50  1  0
 19 51  1  0
 19 52  1  0
 21 53  1  0
 22 54  1  0
 22 55  1  0
 23 56  1  0
 23 57  1  0
 24 58  1  0
 24 59  1  0
 25 60  1  0
 25 61  1  0
 30 62  1  0
 31 63  1  0
 32 64  1  0
 32 65  1  0
 33 66  1  0
 33 67  1  0
 35 68  1  0
 35 69  1  0
 35 70  1  0
 36 71  1  0
 36 72  1  0
 37 73  1  0
 37 74  1  0
M  END
$$$$
[H]c1nc(N([H])c2c([H])c([H])c(N3C([H])([H])C([H])([H])N(C([H])([H])[H])C([H])([H])C3([H])[H])c([H])c2[H])nc2c1N(C([H])([H])[H])C(=O)[C@@]([H])(C([H])([H])C([H])([H])[H])N2C1([H])C([H])([H])C([H])([H])C([H])([H])C1([H])[H]
     RDKit          3D

 68 72  0  0  0  0  0  0  0  0999 V2000
   -6.0357    3.1450    0.7747 C   0  0  0  0  0  0  0  0  0  0  0  0
   -5.0236    2.1812    0.1893 C   0  0  0  0  0  0  0  0  0  0  0  0
   -5.3110    0.7537    0.6443 C   0  0  1  0  0  0  0  0  0  0  0  0
   -4.3464   -0.1293    0.0802 N   0  0  0  0  0  0  0  0  0  0  0  0
   -4.6049   -1.1948   -0.8549 C   0  0  0  0  0  0  0  0  0  0  0  0
   -5.2419   -0.7302   -2.1281 C   0  0  0  0  0  0  0  0  0  0  0  0
   -6.4079   -1.6570   -2.3976 C   0  0  0  0  0  0  0  0  0  0  0  0
   -6.7989   -2.1140   -0.9854 C   0  0  0  0  0  0  0  0  0  0  0  0
   -5.4708   -2.2741   -0.3361 C   0  0  0  0  0  0  0  0  0  0  0  0
   -2.9818    0.0660    0.4952 C   0  0  0  0  0  0  0  0  0  0  0  0
   -1.9726   -0.2667   -0.3268 N   0  0  0  0  0  0  0  0  0  0  0  0
   -0.6642   -0.0845    0.0631 C   0  0  0  0  0  0  0  0  0  0  0  0
    0.3206   -0.4847   -0.8675 N   0  0  0  0  0  0  0  0  0  0  0  0
    1.6978   -0.3864   -0.7046 C   0  0  0  0  0  0  0  0  0  0  0  0
    2.3074    0.4441    0.1800 C   0  0  0  0  0  0  0  0  0  0  0  0
    3.7027    0.4870    0.3234 C   0  0  0  0  0  0  0  0  0  0  0  0
    4.5153   -0.3182   -0.4348 C   0  0  0  0  0  0  0  0  0  0  0  0
    3.8871   -1.1542   -1.3274 C   0  0  0  0  0  0  0  0  0  0  0  0
    2.5222   -1.2089   -1.4800 C   0  0  0  0  0  0  0  0  0  0  0  0
    5.9236   -0.2854   -0.3080 N   0  0  0  0  0  0  0  0  0  0  0  0
    6.5403    0.7127    0.5612 C   0  0  0  0  0  0  0  0  0  0  0  0
    7.9505    0.9258    0.0183 C   0  0  0  0  0  0  0  0  0  0  0  0
    8.7286   -0.2679    0.2367 N   0  0  0  0  0  0  0  0  0  0  0  0
   10.0926   -0.1163   -0.1621 C   0  0  0  0  0  0  0  0  0  0  0  0
    8.1115   -1.4377   -0.3168 C   0  0  0  0  0  0  0  0  0  0  0  0
    6.7952   -1.1868   -0.9880 C   0  0  0  0  0  0  0  0  0  0  0  0
   -0.4376    0.4297    1.2755 N   0  0  0  0  0  0  0  0  0  0  0  0
   -1.3814    0.7871    2.1537 C   0  0  0  0  0  0  0  0  0  0  0  0
   -2.6954    0.5974    1.7463 C   0  0  0  0  0  0  0  0  0  0  0  0
   -3.7872    0.9356    2.5869 N   0  0  0  0  0  0  0  0  0  0  0  0
   -3.5414    1.5008    3.9234 C   0  0  0  0  0  0  0  0  0  0  0  0
   -5.1177    0.7237    2.1295 C   0  0  0  0  0  0  0  0  0  0  0  0
   -6.0402    0.5285    2.9440 O   0  0  0  0  0  0  0  0  0  0  0  0
   -6.2861    2.8472    1.8028 H   0  0  0  0  0  0  0  0  0  0  0  0
   -6.9181    3.2564    0.1112 H   0  0  0  0  0  0  0  0  0  0  0  0
   -5.5720    4.1574    0.8391 H   0  0  0  0  0  0  0  0  0  0  0  0
   -5.0314    2.2670   -0.9184 H   0  0  0  0  0  0  0  0  0  0  0  0
   -4.0307    2.5449    0.5103 H   0  0  0  0  0  0  0  0  0  0  0  0
   -6.3552    0.5503    0.3657 H   0  0  0  0  0  0  0  0  0  0  0  0
   -3.6298   -1.6782   -1.1754 H   0  0  0  0  0  0  0  0  0  0  0  0
   -4.5612   -0.7841   -3.0182 H   0  0  0  0  0  0  0  0  0  0  0  0
   -5.6430    0.2844   -2.1087 H   0  0  0  0  0  0  0  0  0  0  0  0
   -7.2561   -1.1463   -2.8958 H   0  0  0  0  0  0  0  0  0  0  0  0
   -6.0464   -2.5436   -2.9581 H   0  0  0  0  0  0  0  0  0  0  0  0
   -7.3219   -3.1060   -1.0963 H   0  0  0  0  0  0  0  0  0  0  0  0
   -7.4550   -1.3490   -0.5734 H   0  0  0  0  0  0  0  0  0  0  0  0
   -5.0765   -3.2829   -0.6598 H   0  0  0  0  0  0  0  0  0  0  0  0
   -5.5123   -2.3498    0.7669 H   0  0  0  0  0  0  0  0  0  0  0  0
    0.0009   -0.9047   -1.8000 H   0  0  0  0  0  0  0  0  0  0  0  0
    1.7997    1.1425    0.8278 H   0  0  0  0  0  0  0  0  0  0  0  0
    4.1700    1.1471    1.0272 H   0  0  0  0  0  0  0  0  0  0  0  0
    4.4915   -1.8148   -1.9588 H   0  0  0  0  0  0  0  0  0  0  0  0
    2.1055   -1.8949   -2.2059 H   0  0  0  0  0  0  0  0  0  0  0  0
    6.0544    1.6911    0.5120 H   0  0  0  0  0  0  0  0  0  0  0  0
    6.5614    0.3877    1.6159 H   0  0  0  0  0  0  0  0  0  0  0  0
    8.4604    1.7740    0.5069 H   0  0  0  0  0  0  0  0  0  0  0  0
    7.8549    1.1605   -1.0643 H   0  0  0  0  0  0  0  0  0  0  0  0
   10.6961    0.0242    0.7760 H   0  0  0  0  0  0  0  0  0  0  0  0
   10.2722    0.8166   -0.7485 H   0  0  0  0  0  0  0  0  0  0  0  0
   10.4945   -1.0155   -0.6599 H   0  0  0  0  0  0  0  0  0  0  0  0
    8.7851   -1.8757   -1.1083 H   0  0  0  0  0  0  0  0  0  0  0  0
    8.0191   -2.2501    0.4594 H   0  0  0  0  0  0  0  0  0  0  0  0
    6.9894   -0.7885   -2.0192 H   0  0  0  0  0  0  0  0  0  0  0  0
    6.2991   -2.1856   -1.1823 H   0  0  0  0  0  0  0  0  0  0  0  0
   -1.1973    1.1957    3.1170 H   0  0  0  0  0  0  0  0  0  0  0  0
   -4.4724    1.4126    4.4949 H   0  0  0  0  0  0  0  0  0  0  0  0
   -3.1440    2.5186    3.8692 H   0  0  0  0  0  0  0  0  0  0  0  0
   -2.7791    0.8698    4.4329 H   0  0  0  0  0  0  0  0  0  0  0  0
  1  2  1  0
  2  3  1  0
  3  4  1  0
  4  5  1  0
  5  6  1  0
  6  7  1  0
  7  8  1  0
  8  9  1  0
  4 10  1  0
 10 11  2  0
 11 12  1  0
 12 13  1  0
 13 14  1  0
 14 15  2  0
 15 16  1  0
 16 17  2  0
 17 18  1  0
 18 19  2  0
 17 20  1  0
 20 21  1  0
 21 22  1  0
 22 23  1  0
 23 24  1  0
 23 25  1  0
 25 26  1  0
 12 27  2  0
 27 28  1  0
 28 29  2  0
 29 30  1  0
 30 31  1  0
 30 32  1  0
 32 33  2  0
 32  3  1  0
  9  5  1  0
 29 10  1  0
 19 14  1  0
 26 20  1  0
  1 34  1  0
  1 35  1  0
  1 36  1  0
  2 37  1  0
  2 38  1  0
  3 39  1  1
  5 40  1  0
  6 41  1  0
  6 42  1  0
  7 43  1  0
  7 44  1  0
  8 45  1  0
  8 46  1  0
  9 47  1  0
  9 48  1  0
 13 49  1  0
 15 50  1  0
 16 51  1  0
 18 52  1  0
 19 53  1  0
 21 54  1  0
 21 55  1  0
 22 56  1  0
 22 57  1  0
 24 58  1  0
 24 59  1  0
 24 60  1  0
 25 61  1  0
 25 62  1  0
 26 63  1  0
 26 64  1  0
 28 65  1  0
 31 66  1  0
 31 67  1  0
 31 68  1  0
M  END
$$$$
[H]c1nn([H])c([H])c1-c1c([H])c([H])c2c(nc([H])n2-c2sc(C(=O)N([H])[H])c(O[C@@]([H])(c3c([H])c([H])c([H])c([H])c3Cl)C([H])([H])[H])c2[H])c1[H]
     RDKit          3D

 50 54  0  0  0  0  0  0  0  0999 V2000
   -5.0841   -0.2844    1.7208 C   0  0  0  0  0  0  0  0  0  0  0  0
   -3.5887    0.0081    1.4347 C   0  0  1  0  0  0  0  0  0  0  0  0
   -3.0803   -0.9264    0.6457 O   0  0  0  0  0  0  0  0  0  0  0  0
   -2.0930   -1.4994   -0.0760 C   0  0  0  0  0  0  0  0  0  0  0  0
   -0.8789   -0.9623   -0.3257 C   0  0  0  0  0  0  0  0  0  0  0  0
    0.0223   -1.6480   -1.0695 C   0  0  0  0  0  0  0  0  0  0  0  0
   -0.7904   -3.0654   -1.4442 S   0  0  0  0  0  0  0  0  0  0  0  0
   -2.2773   -2.7795   -0.6517 C   0  0  0  0  0  0  0  0  0  0  0  0
   -3.4454   -3.6596   -0.5708 C   0  0  0  0  0  0  0  0  0  0  0  0
   -3.4268   -4.8952   -1.2465 N   0  0  0  0  0  0  0  0  0  0  0  0
   -4.4377   -3.3290    0.0828 O   0  0  0  0  0  0  0  0  0  0  0  0
    1.3464   -1.2443   -1.4800 N   0  0  0  0  0  0  0  0  0  0  0  0
    1.7921   -1.2904   -2.7702 C   0  0  0  0  0  0  0  0  0  0  0  0
    3.0333   -0.8483   -2.8386 N   0  0  0  0  0  0  0  0  0  0  0  0
    3.3855   -0.5146   -1.5661 C   0  0  0  0  0  0  0  0  0  0  0  0
    4.5460   -0.0041   -1.0232 C   0  0  0  0  0  0  0  0  0  0  0  0
    4.7154    0.2760    0.3309 C   0  0  0  0  0  0  0  0  0  0  0  0
    3.6300    0.0094    1.1380 C   0  0  0  0  0  0  0  0  0  0  0  0
    2.4411   -0.5065    0.6247 C   0  0  0  0  0  0  0  0  0  0  0  0
    2.3329   -0.7625   -0.7245 C   0  0  0  0  0  0  0  0  0  0  0  0
    5.9737    0.8160    0.8214 C   0  0  0  0  0  0  0  0  0  0  0  0
    7.2172    0.5236    0.2675 C   0  0  0  0  0  0  0  0  0  0  0  0
    8.1660    1.1979    0.9624 N   0  0  0  0  0  0  0  0  0  0  0  0
    7.5661    1.9066    1.9336 N   0  0  0  0  0  0  0  0  0  0  0  0
    6.2344    1.6758    1.8502 C   0  0  0  0  0  0  0  0  0  0  0  0
   -3.6485    1.3858    0.8011 C   0  0  0  0  0  0  0  0  0  0  0  0
   -4.6638    1.7366   -0.0561 C   0  0  0  0  0  0  0  0  0  0  0  0
   -4.6745    2.9511   -0.7518 C   0  0  0  0  0  0  0  0  0  0  0  0
   -3.6172    3.8066   -0.5533 C   0  0  0  0  0  0  0  0  0  0  0  0
   -2.6035    3.4767    0.2924 C   0  0  0  0  0  0  0  0  0  0  0  0
   -2.6173    2.2612    0.9777 C   0  0  0  0  0  0  0  0  0  0  0  0
   -1.3463    1.9615    2.1617 Cl  0  0  0  0  0  0  0  0  0  0  0  0
   -5.5942   -0.6474    0.7981 H   0  0  0  0  0  0  0  0  0  0  0  0
   -5.5135    0.6649    2.0770 H   0  0  0  0  0  0  0  0  0  0  0  0
   -5.1836   -1.0374    2.5168 H   0  0  0  0  0  0  0  0  0  0  0  0
   -3.0690    0.1410    2.3885 H   0  0  0  0  0  0  0  0  0  0  0  0
   -0.5888    0.0421    0.0549 H   0  0  0  0  0  0  0  0  0  0  0  0
   -4.0735   -5.6704   -1.0009 H   0  0  0  0  0  0  0  0  0  0  0  0
   -2.7514   -5.0497   -2.0202 H   0  0  0  0  0  0  0  0  0  0  0  0
    1.1703   -1.6454   -3.5909 H   0  0  0  0  0  0  0  0  0  0  0  0
    5.3886    0.2019   -1.6676 H   0  0  0  0  0  0  0  0  0  0  0  0
    3.7141    0.2152    2.2172 H   0  0  0  0  0  0  0  0  0  0  0  0
    1.5867   -0.7173    1.2724 H   0  0  0  0  0  0  0  0  0  0  0  0
    7.4521   -0.1138   -0.5689 H   0  0  0  0  0  0  0  0  0  0  0  0
    8.1118    2.5042    2.5945 H   0  0  0  0  0  0  0  0  0  0  0  0
    5.5002    2.1135    2.5097 H   0  0  0  0  0  0  0  0  0  0  0  0
   -5.4987    1.0940   -0.2371 H   0  0  0  0  0  0  0  0  0  0  0  0
   -5.4603    3.2298   -1.4244 H   0  0  0  0  0  0  0  0  0  0  0  0
   -3.5518    4.7749   -1.0671 H   0  0  0  0  0  0  0  0  0  0  0  0
   -1.7675    4.1272    0.4586 H   0  0  0  0  0  0  0  0  0  0  0  0
  1  2  1  0
  2  3  1  0
  3  4  1  0
  4  5  1  0
  5  6  2  0
  6  7  1  0
  7  8  1  0
  8  9  1  0
  9 10  1  0
  9 11  2  0
  6 12  1  0
 12 13  1  0
 13 14  2  0
 14 15  1  0
 15 16  2  0
 16 17  1  0
 17 18  2  0
 18 19  1  0
 19 20  2  0
 17 21  1  0
 21 22  1  0
 22 23  2  0
 23 24  1  0
 24 25  1  0
  2 26  1  0
 26 27  2  0
 27 28  1  0
 28 29  2  0
 29 30  1  0
 30 31  2  0
 31 32  1  0
  8  4  2  0
 20 12  1  0
 25 21  2  0
 31 26  1  0
 20 15  1  0
  1 33  1  0
  1 34  1  0
  1 35  1  0
  2 36  1  1
  5 37  1  0
 10 38  1  0
 10 39  1  0
 13 40  1  0
 16 41  1  0
 18 42  1  0
 19 43  1  0
 22 44  1  0
 24 45  1  0
 25 46  1  0
 27 47  1  0
 28 48  1  0
 29 49  1  0
 30 50  1  0
M  END
$$$$
[H]c1nc(N([H])c2c([H])c([H])c(N3C([H])([H])C([H])([H])N(C([H])([H])[H])C([H])([H])C3([H])[H])c([H])c2OC([H])([H])[H])nc2c1N(C([H])([H])[H])C(=O)[C@@]([H])(C([H])([H])C([H])([H])[H])N2C1([H])C([H])([H])C([H])([H])C([H])([H])C1([H])[H]
     RDKit          3D

 72 76  0  0  0  0  0  0  0  0999 V2000
   -6.9973    3.5156    0.6660 C   0  0  0  0  0  0  0  0  0  0  0  0
   -6.3707    2.1019    0.7381 C   0  0  0  0  0  0  0  0  0  0  0  0
   -4.9936    2.1697    0.1922 C   0  0  1  0  0  0  0  0  0  0  0  0
   -4.2302    0.9479    0.1917 N   0  0  0  0  0  0  0  0  0  0  0  0
   -4.7400   -0.3141    0.6447 C   0  0  0  0  0  0  0  0  0  0  0  0
   -3.8152   -1.4639    0.6263 C   0  0  0  0  0  0  0  0  0  0  0  0
   -4.8447   -2.6217    0.7862 C   0  0  0  0  0  0  0  0  0  0  0  0
   -5.6322   -2.2904   -0.4961 C   0  0  0  0  0  0  0  0  0  0  0  0
   -5.9046   -0.8045   -0.2134 C   0  0  0  0  0  0  0  0  0  0  0  0
   -2.8716    1.0675   -0.3160 C   0  0  0  0  0  0  0  0  0  0  0  0
   -1.9574    0.2626    0.2091 N   0  0  0  0  0  0  0  0  0  0  0  0
   -0.6591    0.3678   -0.2631 C   0  0  0  0  0  0  0  0  0  0  0  0
    0.2492   -0.5166    0.3529 N   0  0  0  0  0  0  0  0  0  0  0  0
    1.6133   -0.6280    0.0690 C   0  0  0  0  0  0  0  0  0  0  0  0
    2.3072    0.0615   -0.8870 C   0  0  0  0  0  0  0  0  0  0  0  0
    3.6795   -0.1036   -1.1253 C   0  0  0  0  0  0  0  0  0  0  0  0
    4.3819   -1.0114   -0.3575 C   0  0  0  0  0  0  0  0  0  0  0  0
    3.7228   -1.7360    0.6256 C   0  0  0  0  0  0  0  0  0  0  0  0
    2.3733   -1.5401    0.8238 C   0  0  0  0  0  0  0  0  0  0  0  0
    1.7015   -2.2583    1.8043 O   0  0  0  0  0  0  0  0  0  0  0  0
    2.3697   -3.1875    2.6043 C   0  0  0  0  0  0  0  0  0  0  0  0
    5.7523   -1.2349   -0.5412 N   0  0  0  0  0  0  0  0  0  0  0  0
    6.5721   -0.6974   -1.5976 C   0  0  0  0  0  0  0  0  0  0  0  0
    7.5779    0.2270   -0.9483 C   0  0  0  0  0  0  0  0  0  0  0  0
    8.2123   -0.3806    0.2035 N   0  0  0  0  0  0  0  0  0  0  0  0
    7.8336    0.2984    1.4288 C   0  0  0  0  0  0  0  0  0  0  0  0
    7.9582   -1.8077    0.2879 C   0  0  0  0  0  0  0  0  0  0  0  0
    6.4731   -2.0936    0.4189 C   0  0  0  0  0  0  0  0  0  0  0  0
   -0.4041    1.2649   -1.2109 N   0  0  0  0  0  0  0  0  0  0  0  0
   -1.2985    2.0983   -1.7686 C   0  0  0  0  0  0  0  0  0  0  0  0
   -2.5899    1.9964   -1.3012 C   0  0  0  0  0  0  0  0  0  0  0  0
   -3.6513    2.8063   -1.7757 N   0  0  0  0  0  0  0  0  0  0  0  0
   -3.4112    3.7948   -2.8381 C   0  0  0  0  0  0  0  0  0  0  0  0
   -4.9684    2.6542   -1.2317 C   0  0  0  0  0  0  0  0  0  0  0  0
   -5.9897    2.8999   -1.8763 O   0  0  0  0  0  0  0  0  0  0  0  0
   -7.5687    3.7324    1.5904 H   0  0  0  0  0  0  0  0  0  0  0  0
   -7.6374    3.6410   -0.2057 H   0  0  0  0  0  0  0  0  0  0  0  0
   -6.1601    4.2437    0.6320 H   0  0  0  0  0  0  0  0  0  0  0  0
   -7.0906    1.4920    0.1529 H   0  0  0  0  0  0  0  0  0  0  0  0
   -6.3306    1.8583    1.8149 H   0  0  0  0  0  0  0  0  0  0  0  0
   -4.4813    2.9929    0.7830 H   0  0  0  0  0  0  0  0  0  0  0  0
   -5.1001   -0.1949    1.6967 H   0  0  0  0  0  0  0  0  0  0  0  0
   -3.3810   -1.7163   -0.3763 H   0  0  0  0  0  0  0  0  0  0  0  0
   -3.1526   -1.6084    1.4736 H   0  0  0  0  0  0  0  0  0  0  0  0
   -4.3605   -3.5974    0.7189 H   0  0  0  0  0  0  0  0  0  0  0  0
   -5.4941   -2.4523    1.6453 H   0  0  0  0  0  0  0  0  0  0  0  0
   -4.9185   -2.3656   -1.3243 H   0  0  0  0  0  0  0  0  0  0  0  0
   -6.5456   -2.8734   -0.5926 H   0  0  0  0  0  0  0  0  0  0  0  0
   -5.9807   -0.3138   -1.1806 H   0  0  0  0  0  0  0  0  0  0  0  0
   -6.8500   -0.8327    0.3755 H   0  0  0  0  0  0  0  0  0  0  0  0
   -0.1291   -1.1768    1.1153 H   0  0  0  0  0  0  0  0  0  0  0  0
    1.8176    0.7743   -1.5129 H   0  0  0  0  0  0  0  0  0  0  0  0
    4.1830    0.4635   -1.8881 H   0  0  0  0  0  0  0  0  0  0  0  0
    4.2538   -2.4521    1.2367 H   0  0  0  0  0  0  0  0  0  0  0  0
    3.0191   -3.8914    2.0607 H   0  0  0  0  0  0  0  0  0  0  0  0
    1.6226   -3.7251    3.2386 H   0  0  0  0  0  0  0  0  0  0  0  0
    3.0224   -2.6332    3.3107 H   0  0  0  0  0  0  0  0  0  0  0  0
    6.0233   -0.1510   -2.3560 H   0  0  0  0  0  0  0  0  0  0  0  0
    7.1365   -1.5401   -2.0917 H   0  0  0  0  0  0  0  0  0  0  0  0
    8.3694    0.4872   -1.6725 H   0  0  0  0  0  0  0  0  0  0  0  0
    7.0332    1.1236   -0.5911 H   0  0  0  0  0  0  0  0  0  0  0  0
    8.0713   -0.3203    2.3098 H   0  0  0  0  0  0  0  0  0  0  0  0
    8.3111    1.2823    1.5151 H   0  0  0  0  0  0  0  0  0  0  0  0
    6.7314    0.4405    1.3988 H   0  0  0  0  0  0  0  0  0  0  0  0
    8.4612   -2.1819    1.1924 H   0  0  0  0  0  0  0  0  0  0  0  0
    8.3680   -2.3285   -0.5804 H   0  0  0  0  0  0  0  0  0  0  0  0
    6.2820   -3.1251    0.1113 H   0  0  0  0  0  0  0  0  0  0  0  0
    6.1900   -1.8942    1.4514 H   0  0  0  0  0  0  0  0  0  0  0  0
   -1.0699    2.8098   -2.5277 H   0  0  0  0  0  0  0  0  0  0  0  0
   -2.7894    3.3703   -3.6474 H   0  0  0  0  0  0  0  0  0  0  0  0
   -4.3692    4.1129   -3.2970 H   0  0  0  0  0  0  0  0  0  0  0  0
   -2.9345    4.7055   -2.4274 H   0  0  0  0  0  0  0  0  0  0  0  0
  1  2  1  0
  2  3  1  0
  3  4  1  0
  4  5  1  0
  5  6  1  0
  6  7  1  0
  7  8  1  0
  8  9  1  0
  4 10  1  0
 10 11  2  0
 11 12  1  0
 12 13  1  0
 13 14  1  0
 14 15  2  0
 15 16  1  0
 16 17  2  0
 17 18  1  0
 18 19  2  0
 19 20  1  0
 20 21  1  0
 17 22  1  0
 22 23  1  0
 23 24  1  0
 24 25  1  0
 25 26  1  0
 25 27  1  0
 27 28  1  0
 12 29  2  0
 29 30  1  0
 30 31  2  0
 31 32  1  0
 32 33  1  0
 32 34  1  0
 34 35  2  0
 34  3  1  0
  9  5  1  0
 31 10  1  0
 19 14  1  0
 28 22  1  0
  1 36  1  0
  1 37  1  0
  1 38  1  0
  2 39  1  0
  2 40  1  0
  3 41  1  1
  5 42  1  0
  6 43  1  0
  6 44  1  0
  7 45  1  0
  7 46  1  0
  8 47  1  0
  8 48  1  0
  9 49  1  0
  9 50  1  0
 13 51  1  0
 15 52  1  0
 16 53  1  0
 18 54  1  0
 21 55  1  0
 21 56  1  0
 21 57  1  0
 23 58  1  0
 23 59  1  0
 24 60  1  0
 24 61  1  0
 26 62  1  0
 26 63  1  0
 26 64  1  0
 27 65  1  0
 27 66  1  0
 28 67  1  0
 28 68  1  0
 30 69  1  0
 33 70  1  0
 33 71  1  0
 33 72  1  0
M  END
$$$$
[H]c1nc(N([H])c2c([H])c([H])c(N3C([H])([H])C([H])([H])N(C([H])([H])[H])C([H])([H])C3([H])[H])c([H])c2[H])nc2c1N(C([H])([H])[H])C(=O)[C@@]([H])(C([H])([H])[H])N2C1([H])C([H])([H])C([H])([H])C([H])([H])C1([H])[H]
     RDKit          3D

 65 69  0  0  0  0  0  0  0  0999 V2000
   -5.3906   -2.3048   -0.4971 C   0  0  0  0  0  0  0  0  0  0  0  0
   -5.5505   -0.8352   -0.8530 C   0  0  1  0  0  0  0  0  0  0  0  0
   -4.5371   -0.0987   -0.1500 N   0  0  0  0  0  0  0  0  0  0  0  0
   -4.7812    0.7816    0.9486 C   0  0  0  0  0  0  0  0  0  0  0  0
   -5.7025    1.9161    0.5530 C   0  0  0  0  0  0  0  0  0  0  0  0
   -6.3223    2.3303    1.8502 C   0  0  0  0  0  0  0  0  0  0  0  0
   -6.4290    1.0760    2.6922 C   0  0  0  0  0  0  0  0  0  0  0  0
   -5.4531    0.0909    2.1158 C   0  0  0  0  0  0  0  0  0  0  0  0
   -3.1745   -0.2659   -0.5928 C   0  0  0  0  0  0  0  0  0  0  0  0
   -2.1494   -0.0357    0.2358 N   0  0  0  0  0  0  0  0  0  0  0  0
   -0.8404   -0.1883   -0.1635 C   0  0  0  0  0  0  0  0  0  0  0  0
    0.1804    0.0571    0.7735 N   0  0  0  0  0  0  0  0  0  0  0  0
    1.5605   -0.0190    0.6003 C   0  0  0  0  0  0  0  0  0  0  0  0
    2.4093   -0.0862    1.7128 C   0  0  0  0  0  0  0  0  0  0  0  0
    3.7682   -0.1439    1.6196 C   0  0  0  0  0  0  0  0  0  0  0  0
    4.3870   -0.1386    0.3869 C   0  0  0  0  0  0  0  0  0  0  0  0
    3.5833   -0.0731   -0.7247 C   0  0  0  0  0  0  0  0  0  0  0  0
    2.1827   -0.0137   -0.6125 C   0  0  0  0  0  0  0  0  0  0  0  0
    5.8132   -0.1992    0.2692 N   0  0  0  0  0  0  0  0  0  0  0  0
    6.5945   -0.2666    1.4627 C   0  0  0  0  0  0  0  0  0  0  0  0
    8.0644   -0.1454    1.2459 C   0  0  0  0  0  0  0  0  0  0  0  0
    8.4049    0.5047   -0.0023 N   0  0  0  0  0  0  0  0  0  0  0  0
    7.9431    1.8552   -0.0761 C   0  0  0  0  0  0  0  0  0  0  0  0
    7.8608   -0.2669   -1.0787 C   0  0  0  0  0  0  0  0  0  0  0  0
    6.3654   -0.1876   -1.0686 C   0  0  0  0  0  0  0  0  0  0  0  0
   -0.6452   -0.5792   -1.4245 N   0  0  0  0  0  0  0  0  0  0  0  0
   -1.6235   -0.8302   -2.3178 C   0  0  0  0  0  0  0  0  0  0  0  0
   -2.9092   -0.6696   -1.8904 C   0  0  0  0  0  0  0  0  0  0  0  0
   -3.9771   -0.9198   -2.7871 N   0  0  0  0  0  0  0  0  0  0  0  0
   -3.7280   -1.3354   -4.1271 C   0  0  0  0  0  0  0  0  0  0  0  0
   -5.3113   -0.7515   -2.3376 C   0  0  0  0  0  0  0  0  0  0  0  0
   -6.2722   -0.5391   -3.1373 O   0  0  0  0  0  0  0  0  0  0  0  0
   -5.5656   -2.9525   -1.3984 H   0  0  0  0  0  0  0  0  0  0  0  0
   -6.1509   -2.6299    0.2590 H   0  0  0  0  0  0  0  0  0  0  0  0
   -4.3669   -2.4820   -0.1178 H   0  0  0  0  0  0  0  0  0  0  0  0
   -6.5703   -0.5327   -0.6147 H   0  0  0  0  0  0  0  0  0  0  0  0
   -3.8392    1.2120    1.3361 H   0  0  0  0  0  0  0  0  0  0  0  0
   -5.0766    2.7370    0.1347 H   0  0  0  0  0  0  0  0  0  0  0  0
   -6.4767    1.6097   -0.1683 H   0  0  0  0  0  0  0  0  0  0  0  0
   -5.6867    3.0617    2.3907 H   0  0  0  0  0  0  0  0  0  0  0  0
   -7.3051    2.8267    1.7074 H   0  0  0  0  0  0  0  0  0  0  0  0
   -7.4619    0.6673    2.6880 H   0  0  0  0  0  0  0  0  0  0  0  0
   -6.1499    1.3173    3.7464 H   0  0  0  0  0  0  0  0  0  0  0  0
   -6.0002   -0.8141    1.8209 H   0  0  0  0  0  0  0  0  0  0  0  0
   -4.7091   -0.2299    2.8842 H   0  0  0  0  0  0  0  0  0  0  0  0
   -0.1285    0.3495    1.7689 H   0  0  0  0  0  0  0  0  0  0  0  0
    1.9568   -0.0929    2.6985 H   0  0  0  0  0  0  0  0  0  0  0  0
    4.4049   -0.1960    2.5161 H   0  0  0  0  0  0  0  0  0  0  0  0
    4.0478   -0.0674   -1.7116 H   0  0  0  0  0  0  0  0  0  0  0  0
    1.6619    0.0467   -1.5375 H   0  0  0  0  0  0  0  0  0  0  0  0
    6.2847    0.6098    2.1035 H   0  0  0  0  0  0  0  0  0  0  0  0
    6.4049   -1.2195    1.9999 H   0  0  0  0  0  0  0  0  0  0  0  0
    8.5604   -1.1389    1.2294 H   0  0  0  0  0  0  0  0  0  0  0  0
    8.5330    0.4336    2.0681 H   0  0  0  0  0  0  0  0  0  0  0  0
    7.1413    2.0919    0.6517 H   0  0  0  0  0  0  0  0  0  0  0  0
    8.7905    2.5275    0.1704 H   0  0  0  0  0  0  0  0  0  0  0  0
    7.5808    2.0648   -1.0835 H   0  0  0  0  0  0  0  0  0  0  0  0
    8.2121    0.2134   -2.0364 H   0  0  0  0  0  0  0  0  0  0  0  0
    8.2285   -1.3044   -1.1137 H   0  0  0  0  0  0  0  0  0  0  0  0
    5.9867    0.6957   -1.6521 H   0  0  0  0  0  0  0  0  0  0  0  0
    5.9120   -1.0764   -1.5957 H   0  0  0  0  0  0  0  0  0  0  0  0
   -1.4401   -1.1461   -3.3348 H   0  0  0  0  0  0  0  0  0  0  0  0
   -3.4022   -0.4464   -4.7300 H   0  0  0  0  0  0  0  0  0  0  0  0
   -4.6774   -1.6768   -4.6148 H   0  0  0  0  0  0  0  0  0  0  0  0
   -3.0196   -2.1771   -4.2144 H   0  0  0  0  0  0  0  0  0  0  0  0
  1  2  1  0
  2  3  1  0
  3  4  1  0
  4  5  1  0
  5  6  1  0
  6  7  1  0
  7  8  1  0
  3  9  1  0
  9 10  2  0
 10 11  1  0
 11 12  1  0
 12 13  1  0
 13 14  2  0
 14 15  1  0
 15 16  2  0
 16 17  1  0
 17 18  2  0
 16 19  1  0
 19 20  1  0
 20 21  1  0
 21 22  1  0
 22 23  1  0
 22 24  1  0
 24 25  1  0
 11 26  2  0
 26 27  1  0
 27 28  2  0
 28 29  1  0
 29 30  1  0
 29 31  1  0
 31 32  2  0
 31  2  1  0
  8  4  1  0
 28  9  1  0
 18 13  1  0
 25 19  1  0
  1 33  1  0
  1 34  1  0
  1 35  1  0
  2 36  1  6
  4 37  1  0
  5 38  1  0
  5 39  1  0
  6 40  1  0
  6 41  1  0
  7 42  1  0
  7 43  1  0
  8 44  1  0
  8 45  1  0
 12 46  1  0
 14 47  1  0
 15 48  1  0
 17 49  1  0
 18 50  1  0
 20 51  1  0
 20 52  1  0
 21 53  1  0
 21 54  1  0
 23 55  1  0
 23 56  1  0
 23 57  1  0
 24 58  1  0
 24 59  1  0
 25 60  1  0
 25 61  1  0
 27 62  1  0
 30 63  1  0
 30 64  1  0
 30 65  1  0
M  END
$$$$
[H]c1nc(N([H])c2c([H])c([H])c(N3C([H])([H])C([H])([H])N(C([H])([H])[H])C([H])([H])C3([H])[H])c([H])c2OC([H])([H])[H])nc2c1N(C([H])([H])[H])C(=O)[C@]([H])(C([H])([H])[H])N2C1([H])C([H])([H])C([H])([H])C([H])([H])C1([H])[H]
     RDKit          3D

 69 73  0  0  0  0  0  0  0  0999 V2000
    1.8771    3.5203   -2.2854 C   0  0  0  0  0  0  0  0  0  0  0  0
    1.2103    2.5373   -1.5249 O   0  0  0  0  0  0  0  0  0  0  0  0
    1.8829    1.5939   -0.7634 C   0  0  0  0  0  0  0  0  0  0  0  0
    3.2528    1.6523   -0.7808 C   0  0  0  0  0  0  0  0  0  0  0  0
    4.0034    0.7494   -0.0523 C   0  0  0  0  0  0  0  0  0  0  0  0
    3.3500   -0.1825    0.6706 C   0  0  0  0  0  0  0  0  0  0  0  0
    1.9452   -0.2328    0.6815 C   0  0  0  0  0  0  0  0  0  0  0  0
    1.1725    0.6360   -0.0214 C   0  0  0  0  0  0  0  0  0  0  0  0
   -0.1988    0.6362   -0.0566 N   0  0  0  0  0  0  0  0  0  0  0  0
   -1.0875   -0.2355    0.6308 C   0  0  0  0  0  0  0  0  0  0  0  0
   -0.7595   -1.2194    1.4471 N   0  0  0  0  0  0  0  0  0  0  0  0
   -1.5755   -2.0520    2.1027 C   0  0  0  0  0  0  0  0  0  0  0  0
   -2.9222   -1.8574    1.8989 C   0  0  0  0  0  0  0  0  0  0  0  0
   -3.9180   -2.6394    2.5330 N   0  0  0  0  0  0  0  0  0  0  0  0
   -3.5134   -3.7312    3.4324 C   0  0  0  0  0  0  0  0  0  0  0  0
   -5.2839   -2.3520    2.2804 C   0  0  0  0  0  0  0  0  0  0  0  0
   -6.1375   -3.2611    2.3869 O   0  0  0  0  0  0  0  0  0  0  0  0
   -5.6018   -0.9380    1.8945 C   0  0  2  0  0  0  0  0  0  0  0  0
   -7.0585   -0.8280    1.6252 C   0  0  0  0  0  0  0  0  0  0  0  0
   -4.7233   -0.6065    0.7885 N   0  0  0  0  0  0  0  0  0  0  0  0
   -5.1759   -0.1002   -0.4361 C   0  0  0  0  0  0  0  0  0  0  0  0
   -5.8336    1.2272   -0.4789 C   0  0  0  0  0  0  0  0  0  0  0  0
   -6.1194    1.3910   -1.9796 C   0  0  0  0  0  0  0  0  0  0  0  0
   -5.2491    0.3391   -2.6799 C   0  0  0  0  0  0  0  0  0  0  0  0
   -4.2109   -0.0017   -1.5798 C   0  0  0  0  0  0  0  0  0  0  0  0
   -3.3081   -0.8438    1.0554 C   0  0  0  0  0  0  0  0  0  0  0  0
   -2.4411   -0.0590    0.4416 N   0  0  0  0  0  0  0  0  0  0  0  0
    5.4209    0.7923   -0.0792 N   0  0  0  0  0  0  0  0  0  0  0  0
    6.2090    1.4471   -1.0999 C   0  0  0  0  0  0  0  0  0  0  0  0
    7.0902    0.3919   -1.7299 C   0  0  0  0  0  0  0  0  0  0  0  0
    7.7955   -0.4032   -0.7803 N   0  0  0  0  0  0  0  0  0  0  0  0
    8.9684    0.2597   -0.2400 C   0  0  0  0  0  0  0  0  0  0  0  0
    6.9689   -0.9594    0.2731 C   0  0  0  0  0  0  0  0  0  0  0  0
    6.1875    0.1656    0.9722 C   0  0  0  0  0  0  0  0  0  0  0  0
    2.5843    3.0047   -2.9660 H   0  0  0  0  0  0  0  0  0  0  0  0
    2.5029    4.1875   -1.6575 H   0  0  0  0  0  0  0  0  0  0  0  0
    1.1986    4.1189   -2.8967 H   0  0  0  0  0  0  0  0  0  0  0  0
    3.7782    2.4103   -1.3668 H   0  0  0  0  0  0  0  0  0  0  0  0
    3.8796   -0.9417    1.2711 H   0  0  0  0  0  0  0  0  0  0  0  0
    1.5566   -1.0290    1.2996 H   0  0  0  0  0  0  0  0  0  0  0  0
   -0.6491    1.3985   -0.6898 H   0  0  0  0  0  0  0  0  0  0  0  0
   -1.2558   -2.8328    2.7529 H   0  0  0  0  0  0  0  0  0  0  0  0
   -2.8321   -3.4009    4.2148 H   0  0  0  0  0  0  0  0  0  0  0  0
   -4.4360   -4.1868    3.8180 H   0  0  0  0  0  0  0  0  0  0  0  0
   -3.0663   -4.4990    2.7451 H   0  0  0  0  0  0  0  0  0  0  0  0
   -5.3831   -0.2719    2.7868 H   0  0  0  0  0  0  0  0  0  0  0  0
   -7.4916    0.1240    1.9954 H   0  0  0  0  0  0  0  0  0  0  0  0
   -7.3259   -1.0906    0.6014 H   0  0  0  0  0  0  0  0  0  0  0  0
   -7.5512   -1.6087    2.2703 H   0  0  0  0  0  0  0  0  0  0  0  0
   -5.9605   -0.8343   -0.8192 H   0  0  0  0  0  0  0  0  0  0  0  0
   -6.8409    1.2181   -0.0158 H   0  0  0  0  0  0  0  0  0  0  0  0
   -5.2097    2.0626   -0.0956 H   0  0  0  0  0  0  0  0  0  0  0  0
   -7.1668    1.1263   -2.2225 H   0  0  0  0  0  0  0  0  0  0  0  0
   -5.9033    2.3944   -2.3423 H   0  0  0  0  0  0  0  0  0  0  0  0
   -4.7840    0.8272   -3.5362 H   0  0  0  0  0  0  0  0  0  0  0  0
   -5.7984   -0.5863   -2.8940 H   0  0  0  0  0  0  0  0  0  0  0  0
   -3.6735   -0.9215   -1.7852 H   0  0  0  0  0  0  0  0  0  0  0  0
   -3.5709    0.8982   -1.5839 H   0  0  0  0  0  0  0  0  0  0  0  0
    6.8687    2.1938   -0.5996 H   0  0  0  0  0  0  0  0  0  0  0  0
    5.6498    1.9562   -1.8753 H   0  0  0  0  0  0  0  0  0  0  0  0
    6.4793   -0.1990   -2.4241 H   0  0  0  0  0  0  0  0  0  0  0  0
    7.8644    0.9037   -2.3623 H   0  0  0  0  0  0  0  0  0  0  0  0
    9.8690    0.0005   -0.8149 H   0  0  0  0  0  0  0  0  0  0  0  0
    9.1080   -0.1444    0.7819 H   0  0  0  0  0  0  0  0  0  0  0  0
    8.7906    1.3585   -0.1686 H   0  0  0  0  0  0  0  0  0  0  0  0
    6.2939   -1.7101   -0.1546 H   0  0  0  0  0  0  0  0  0  0  0  0
    7.6517   -1.3646    1.0480 H   0  0  0  0  0  0  0  0  0  0  0  0
    6.9826    0.8658    1.3314 H   0  0  0  0  0  0  0  0  0  0  0  0
    5.6244   -0.2636    1.7883 H   0  0  0  0  0  0  0  0  0  0  0  0
  1  2  1  0
  2  3  1  0
  3  4  2  0
  4  5  1  0
  5  6  2  0
  6  7  1  0
  7  8  2  0
  8  9  1  0
  9 10  1  0
 10 11  2  0
 11 12  1  0
 12 13  2  0
 13 14  1  0
 14 15  1  0
 14 16  1  0
 16 17  2  0
 16 18  1  0
 18 19  1  0
 18 20  1  0
 20 21  1  0
 21 22  1  0
 22 23  1  0
 23 24  1  0
 24 25  1  0
 20 26  1  0
 26 27  2  0
  5 28  1  0
 28 29  1  0
 29 30  1  0
 30 31  1  0
 31 32  1  0
 31 33  1  0
 33 34  1  0
  8  3  1  0
 27 10  1  0
 34 28  1  0
 26 13  1  0
 25 21  1  0
  1 35  1  0
  1 36  1  0
  1 37  1  0
  4 38  1  0
  6 39  1  0
  7 40  1  0
  9 41  1  0
 12 42  1  0
 15 43  1  0
 15 44  1  0
 15 45  1  0
 18 46  1  1
 19 47  1  0
 19 48  1  0
 19 49  1  0
 21 50  1  0
 22 51  1  0
 22 52  1  0
 23 53  1  0
 23 54  1  0
 24 55  1  0
 24 56  1  0
 25 57  1  0
 25 58  1  0
 29 59  1  0
 29 60  1  0
 30 61  1  0
 30 62  1  0
 32 63  1  0
 32 64  1  0
 32 65  1  0
 33 66  1  0
 33 67  1  0
 34 68  1  0
 34 69  1  0
M  END
$$$$
[H]c1nc(N([H])c2c([H])c([H])c(N3C([H])([H])C([H])([H])N(C([H])([H])[H])C([H])([H])C3([H])[H])c([H])c2OC([H])([H])[H])nc2c1C([H])([H])C([H])([H])c1c(C(=O)N([H])[H])nn(C([H])([H])[H])c1-2
     RDKit          3D

 61 65  0  0  0  0  0  0  0  0999 V2000
    2.2719    3.5887   -0.7274 C   0  0  0  0  0  0  0  0  0  0  0  0
    1.3283    2.5675   -0.5175 O   0  0  0  0  0  0  0  0  0  0  0  0
    1.7612    1.2782   -0.3511 C   0  0  0  0  0  0  0  0  0  0  0  0
    3.0808    0.9601   -0.3837 C   0  0  0  0  0  0  0  0  0  0  0  0
    3.5394   -0.3263   -0.2193 C   0  0  0  0  0  0  0  0  0  0  0  0
    2.6165   -1.3192   -0.0149 C   0  0  0  0  0  0  0  0  0  0  0  0
    1.2613   -1.0147    0.0218 C   0  0  0  0  0  0  0  0  0  0  0  0
    0.8038    0.2741   -0.1430 C   0  0  0  0  0  0  0  0  0  0  0  0
   -0.5491    0.6400   -0.1156 N   0  0  0  0  0  0  0  0  0  0  0  0
   -1.6700   -0.1914    0.0770 C   0  0  0  0  0  0  0  0  0  0  0  0
   -1.6100   -1.5016    0.2694 N   0  0  0  0  0  0  0  0  0  0  0  0
   -2.6614   -2.3102    0.4544 C   0  0  0  0  0  0  0  0  0  0  0  0
   -3.9065   -1.7027    0.4394 C   0  0  0  0  0  0  0  0  0  0  0  0
   -5.0728   -2.5646    0.6413 C   0  0  0  0  0  0  0  0  0  0  0  0
   -6.3869   -1.8883    0.6114 C   0  0  0  0  0  0  0  0  0  0  0  0
   -6.4066   -0.4476    0.4002 C   0  0  0  0  0  0  0  0  0  0  0  0
   -7.4824    0.4455    0.3325 C   0  0  0  0  0  0  0  0  0  0  0  0
   -6.9698    1.6448    0.1237 N   0  0  0  0  0  0  0  0  0  0  0  0
   -5.6702    1.6117    0.0504 N   0  0  0  0  0  0  0  0  0  0  0  0
   -4.7390    2.6992   -0.1669 C   0  0  0  0  0  0  0  0  0  0  0  0
   -5.3085    0.3092    0.2219 C   0  0  0  0  0  0  0  0  0  0  0  0
   -3.9950   -0.3487    0.2421 C   0  0  0  0  0  0  0  0  0  0  0  0
   -2.9151    0.4276    0.0601 N   0  0  0  0  0  0  0  0  0  0  0  0
   -8.8788    0.0781    0.4711 C   0  0  0  0  0  0  0  0  0  0  0  0
   -9.8749    1.0877    0.3816 N   0  0  0  0  0  0  0  0  0  0  0  0
   -9.2472   -1.1011    0.6680 O   0  0  0  0  0  0  0  0  0  0  0  0
    4.9314   -0.5888   -0.2669 N   0  0  0  0  0  0  0  0  0  0  0  0
    5.8594    0.4941   -0.5558 C   0  0  0  0  0  0  0  0  0  0  0  0
    7.1950   -0.0818   -1.0444 C   0  0  0  0  0  0  0  0  0  0  0  0
    7.7798   -0.9032   -0.0345 N   0  0  0  0  0  0  0  0  0  0  0  0
    8.3188    0.0002    0.9946 C   0  0  0  0  0  0  0  0  0  0  0  0
    6.8730   -1.7866    0.6186 C   0  0  0  0  0  0  0  0  0  0  0  0
    5.5122   -1.8878   -0.0411 C   0  0  0  0  0  0  0  0  0  0  0  0
    2.9693    3.6866    0.1524 H   0  0  0  0  0  0  0  0  0  0  0  0
    2.9110    3.3016   -1.5865 H   0  0  0  0  0  0  0  0  0  0  0  0
    1.8101    4.5865   -0.8475 H   0  0  0  0  0  0  0  0  0  0  0  0
    3.7943    1.7836   -0.5492 H   0  0  0  0  0  0  0  0  0  0  0  0
    2.9719   -2.3277    0.1132 H   0  0  0  0  0  0  0  0  0  0  0  0
    0.6270   -1.8611    0.1868 H   0  0  0  0  0  0  0  0  0  0  0  0
   -0.7360    1.6976   -0.2625 H   0  0  0  0  0  0  0  0  0  0  0  0
   -2.4879   -3.3607    0.6011 H   0  0  0  0  0  0  0  0  0  0  0  0
   -4.9899   -3.3803   -0.1414 H   0  0  0  0  0  0  0  0  0  0  0  0
   -4.9487   -3.1381    1.6054 H   0  0  0  0  0  0  0  0  0  0  0  0
   -6.9216   -2.1733    1.5772 H   0  0  0  0  0  0  0  0  0  0  0  0
   -7.0081   -2.4285   -0.1636 H   0  0  0  0  0  0  0  0  0  0  0  0
   -4.0448    2.7663    0.6970 H   0  0  0  0  0  0  0  0  0  0  0  0
   -4.0875    2.4908   -1.0654 H   0  0  0  0  0  0  0  0  0  0  0  0
   -5.2629    3.6304   -0.3874 H   0  0  0  0  0  0  0  0  0  0  0  0
   -9.9182    1.6589   -0.4892 H   0  0  0  0  0  0  0  0  0  0  0  0
  -10.5541    1.2712    1.1507 H   0  0  0  0  0  0  0  0  0  0  0  0
    6.0578    1.1337    0.3067 H   0  0  0  0  0  0  0  0  0  0  0  0
    5.5034    1.1106   -1.4161 H   0  0  0  0  0  0  0  0  0  0  0  0
    7.0601   -0.6013   -2.0231 H   0  0  0  0  0  0  0  0  0  0  0  0
    7.8301    0.8026   -1.2599 H   0  0  0  0  0  0  0  0  0  0  0  0
    7.4347    0.2408    1.6457 H   0  0  0  0  0  0  0  0  0  0  0  0
    8.7292    0.9158    0.5699 H   0  0  0  0  0  0  0  0  0  0  0  0
    9.0031   -0.5944    1.6064 H   0  0  0  0  0  0  0  0  0  0  0  0
    6.7025   -1.5418    1.6752 H   0  0  0  0  0  0  0  0  0  0  0  0
    7.3152   -2.8238    0.5491 H   0  0  0  0  0  0  0  0  0  0  0  0
    5.5440   -2.4717   -0.9863 H   0  0  0  0  0  0  0  0  0  0  0  0
    4.9075   -2.5160    0.6761 H   0  0  0  0  0  0  0  0  0  0  0  0
  1  2  1  0
  2  3  1  0
  3  4  2  0
  4  5  1  0
  5  6  2  0
  6  7  1  0
  7  8  2  0
  8  9  1  0
  9 10  1  0
 10 11  2  0
 11 12  1  0
 12 13  2  0
 13 14  1  0
 14 15  1  0
 15 16  1  0
 16 17  1  0
 17 18  2  0
 18 19  1  0
 19 20  1  0
 19 21  1  0
 21 22  1  0
 22 23  2  0
 17 24  1  0
 24 25  1  0
 24 26  2  0
  5 27  1  0
 27 28  1  0
 28 29  1  0
 29 30  1  0
 30 31  1  0
 30 32  1  0
 32 33  1  0
  8  3  1  0
 23 10  1  0
 33 27  1  0
 22 13  1  0
 21 16  2  0
  1 34  1  0
  1 35  1  0
  1 36  1  0
  4 37  1  0
  6 38  1  0
  7 39  1  0
  9 40  1  0
 12 41  1  0
 14 42  1  0
 14 43  1  0
 15 44  1  0
 15 45  1  0
 20 46  1  0
 20 47  1  0
 20 48  1  0
 25 49  1  0
 25 50  1  0
 28 51  1  0
 28 52  1  0
 29 53  1  0
 29 54  1  0
 31 55  1  0
 31 56  1  0
 31 57  1  0
 32 58  1  0
 32 59  1  0
 33 60  1  0
 33 61  1  0
M  END
$$$$
[H]c1nn([H])c([H])c1-c1c([H])c([H])c2c(nc([H])n2-c2sc(C(=O)N([H])[H])c(O[C@@]([H])(c3c([H])c([H])c([H])c([H])c3C(F)(F)F)C([H])([H])[H])c2[H])c1[H]
     RDKit          3D

 53 57  0  0  0  0  0  0  0  0999 V2000
   -2.9258    1.3579    1.7662 C   0  0  0  0  0  0  0  0  0  0  0  0
   -3.3544    0.5251    0.5022 C   0  0  1  0  0  0  0  0  0  0  0  0
   -2.8211   -0.7293    0.5917 O   0  0  0  0  0  0  0  0  0  0  0  0
   -1.4833   -0.9889    0.1964 C   0  0  0  0  0  0  0  0  0  0  0  0
   -0.6100   -0.1014   -0.2727 C   0  0  0  0  0  0  0  0  0  0  0  0
    0.6517   -0.5460   -0.6071 C   0  0  0  0  0  0  0  0  0  0  0  0
    0.5671   -2.2077   -0.2476 S   0  0  0  0  0  0  0  0  0  0  0  0
   -1.0368   -2.3005    0.3082 C   0  0  0  0  0  0  0  0  0  0  0  0
   -1.7443   -3.4869    0.7812 C   0  0  0  0  0  0  0  0  0  0  0  0
   -1.1045   -4.7344    0.8169 N   0  0  0  0  0  0  0  0  0  0  0  0
   -2.9307   -3.3657    1.1528 O   0  0  0  0  0  0  0  0  0  0  0  0
    1.7370    0.2396   -1.1293 N   0  0  0  0  0  0  0  0  0  0  0  0
    1.7588    1.1324   -2.1233 C   0  0  0  0  0  0  0  0  0  0  0  0
    3.0030    1.6356   -2.2759 N   0  0  0  0  0  0  0  0  0  0  0  0
    3.7913    1.0662   -1.3765 C   0  0  0  0  0  0  0  0  0  0  0  0
    5.1307    1.1497   -1.0264 C   0  0  0  0  0  0  0  0  0  0  0  0
    5.7052    0.4199   -0.0174 C   0  0  0  0  0  0  0  0  0  0  0  0
    4.8850   -0.4455    0.6816 C   0  0  0  0  0  0  0  0  0  0  0  0
    3.5513   -0.5621    0.3705 C   0  0  0  0  0  0  0  0  0  0  0  0
    2.9849    0.1804   -0.6501 C   0  0  0  0  0  0  0  0  0  0  0  0
    7.1200    0.5568    0.2980 C   0  0  0  0  0  0  0  0  0  0  0  0
    7.6752    0.4003    1.5579 C   0  0  0  0  0  0  0  0  0  0  0  0
    8.9982    0.6057    1.4361 N   0  0  0  0  0  0  0  0  0  0  0  0
    9.3281    0.8823    0.1888 N   0  0  0  0  0  0  0  0  0  0  0  0
    8.1860    0.8571   -0.5284 C   0  0  0  0  0  0  0  0  0  0  0  0
   -4.7612    0.7251    0.2410 C   0  0  0  0  0  0  0  0  0  0  0  0
   -5.5474    1.4123    1.1819 C   0  0  0  0  0  0  0  0  0  0  0  0
   -6.8804    1.6740    1.0193 C   0  0  0  0  0  0  0  0  0  0  0  0
   -7.5113    1.2471   -0.1297 C   0  0  0  0  0  0  0  0  0  0  0  0
   -6.7659    0.5790   -1.0526 C   0  0  0  0  0  0  0  0  0  0  0  0
   -5.3879    0.3037   -0.8921 C   0  0  0  0  0  0  0  0  0  0  0  0
   -4.6780   -0.4421   -1.9157 C   0  0  0  0  0  0  0  0  0  0  0  0
   -5.5933   -0.6421   -2.9896 F   0  0  0  0  0  0  0  0  0  0  0  0
   -3.6290    0.1908   -2.5256 F   0  0  0  0  0  0  0  0  0  0  0  0
   -4.4348   -1.7686   -1.5852 F   0  0  0  0  0  0  0  0  0  0  0  0
   -3.3646    0.9833    2.6692 H   0  0  0  0  0  0  0  0  0  0  0  0
   -1.8189    1.3912    1.7530 H   0  0  0  0  0  0  0  0  0  0  0  0
   -3.2794    2.3761    1.5509 H   0  0  0  0  0  0  0  0  0  0  0  0
   -2.7698    1.0788   -0.2653 H   0  0  0  0  0  0  0  0  0  0  0  0
   -0.8641    0.9786   -0.3982 H   0  0  0  0  0  0  0  0  0  0  0  0
   -1.2979   -5.4253    1.5872 H   0  0  0  0  0  0  0  0  0  0  0  0
   -0.4126   -5.0504    0.0997 H   0  0  0  0  0  0  0  0  0  0  0  0
    0.8865    1.3894   -2.6998 H   0  0  0  0  0  0  0  0  0  0  0  0
    5.7488    1.8359   -1.5911 H   0  0  0  0  0  0  0  0  0  0  0  0
    5.3042   -1.0385    1.4849 H   0  0  0  0  0  0  0  0  0  0  0  0
    2.9324   -1.2410    0.9283 H   0  0  0  0  0  0  0  0  0  0  0  0
    7.0901    0.1549    2.4477 H   0  0  0  0  0  0  0  0  0  0  0  0
   10.3055    1.0847   -0.1749 H   0  0  0  0  0  0  0  0  0  0  0  0
    8.0601    1.0365   -1.5912 H   0  0  0  0  0  0  0  0  0  0  0  0
   -5.0977    1.7640    2.0975 H   0  0  0  0  0  0  0  0  0  0  0  0
   -7.4784    2.2030    1.7474 H   0  0  0  0  0  0  0  0  0  0  0  0
   -8.5591    1.4154   -0.3325 H   0  0  0  0  0  0  0  0  0  0  0  0
   -7.2584    0.2433   -1.9544 H   0  0  0  0  0  0  0  0  0  0  0  0
  1  2  1  0
  2  3  1  0
  3  4  1  0
  4  5  1  0
  5  6  2  0
  6  7  1  0
  7  8  1  0
  8  9  1  0
  9 10  1  0
  9 11  2  0
  6 12  1  0
 12 13  1  0
 13 14  2  0
 14 15  1  0
 15 16  2  0
 16 17  1  0
 17 18  2  0
 18 19  1  0
 19 20  2  0
 17 21  1  0
 21 22  1  0
 22 23  2  0
 23 24  1  0
 24 25  1  0
  2 26  1  0
 26 27  2  0
 27 28  1  0
 28 29  2  0
 29 30  1  0
 30 31  2  0
 31 32  1  0
 32 33  1  0
 32 34  1  0
 32 35  1  0
  8  4  2  0
 20 12  1  0
 25 21  2  0
 31 26  1  0
 20 15  1  0
  1 36  1  0
  1 37  1  0
  1 38  1  0
  2 39  1  6
  5 40  1  0
 10 41  1  0
 10 42  1  0
 13 43  1  0
 16 44  1  0
 18 45  1  0
 19 46  1  0
 22 47  1  0
 24 48  1  0
 25 49  1  0
 27 50  1  0
 28 51  1  0
 29 52  1  0
 30 53  1  0
M  END
$$$$
[H]c1nc(N([H])c2c([H])c([H])c(N3C([H])([H])C([H])([H])C([H])(N(C([H])([H])[H])C([H])([H])[H])C([H])([H])C3([H])[H])c([H])c2OC([H])([H])[H])nc2c1N(C([H])([H])[H])C(=O)[C@@]([H])(C([H])([H])[H])N2C1([H])C([H])([H])C([H])([H])C([H])([H])C1([H])[H]
     RDKit          3D

 75 79  0  0  0  0  0  0  0  0999 V2000
    1.9446   -3.9153    0.3122 C   0  0  0  0  0  0  0  0  0  0  0  0
    1.1010   -2.8033    0.3338 O   0  0  0  0  0  0  0  0  0  0  0  0
    1.5395   -1.5135    0.6214 C   0  0  0  0  0  0  0  0  0  0  0  0
    2.8765   -1.3604    0.8936 C   0  0  0  0  0  0  0  0  0  0  0  0
    3.4197   -0.1468    1.1883 C   0  0  0  0  0  0  0  0  0  0  0  0
    2.5679    0.9469    1.2051 C   0  0  0  0  0  0  0  0  0  0  0  0
    1.1981    0.7822    0.9250 C   0  0  0  0  0  0  0  0  0  0  0  0
    0.6674   -0.4382    0.6317 C   0  0  0  0  0  0  0  0  0  0  0  0
   -0.6741   -0.6428    0.3486 N   0  0  0  0  0  0  0  0  0  0  0  0
   -1.7598    0.2600    0.3020 C   0  0  0  0  0  0  0  0  0  0  0  0
   -1.7079    1.5717    0.5371 N   0  0  0  0  0  0  0  0  0  0  0  0
   -2.7423    2.4143    0.4904 C   0  0  0  0  0  0  0  0  0  0  0  0
   -4.0018    1.9283    0.1738 C   0  0  0  0  0  0  0  0  0  0  0  0
   -5.1256    2.7869    0.1168 N   0  0  0  0  0  0  0  0  0  0  0  0
   -4.9787    4.2240    0.3908 C   0  0  0  0  0  0  0  0  0  0  0  0
   -6.3875    2.2256   -0.2096 C   0  0  0  0  0  0  0  0  0  0  0  0
   -7.4425    2.8348    0.1148 O   0  0  0  0  0  0  0  0  0  0  0  0
   -6.4036    0.9253   -0.9301 C   0  0  1  0  0  0  0  0  0  0  0  0
   -6.1952    1.2453   -2.3957 C   0  0  0  0  0  0  0  0  0  0  0  0
   -5.3849    0.0239   -0.4129 N   0  0  0  0  0  0  0  0  0  0  0  0
   -5.5779   -1.3709   -0.2168 C   0  0  0  0  0  0  0  0  0  0  0  0
   -5.9293   -2.0168   -1.5607 C   0  0  0  0  0  0  0  0  0  0  0  0
   -7.3976   -2.3023   -1.5400 C   0  0  0  0  0  0  0  0  0  0  0  0
   -7.7156   -2.5316   -0.0994 C   0  0  0  0  0  0  0  0  0  0  0  0
   -6.7296   -1.7212    0.6767 C   0  0  0  0  0  0  0  0  0  0  0  0
   -4.0926    0.5765   -0.0755 C   0  0  0  0  0  0  0  0  0  0  0  0
   -3.0113   -0.2097   -0.0105 N   0  0  0  0  0  0  0  0  0  0  0  0
    4.7935   -0.0272    1.4678 N   0  0  0  0  0  0  0  0  0  0  0  0
    5.3448    1.3345    1.6417 C   0  0  0  0  0  0  0  0  0  0  0  0
    6.8302    1.2488    1.3657 C   0  0  0  0  0  0  0  0  0  0  0  0
    7.0370    0.4281    0.1208 C   0  0  0  0  0  0  0  0  0  0  0  0
    6.6732   -1.0176    0.3957 C   0  0  0  0  0  0  0  0  0  0  0  0
    5.7330   -1.0903    1.6099 C   0  0  0  0  0  0  0  0  0  0  0  0
    8.3953    0.5315   -0.3789 N   0  0  0  0  0  0  0  0  0  0  0  0
    8.4937   -0.3044   -1.5675 C   0  0  0  0  0  0  0  0  0  0  0  0
    8.6304    1.8937   -0.8182 C   0  0  0  0  0  0  0  0  0  0  0  0
    2.7251   -3.7534   -0.4611 H   0  0  0  0  0  0  0  0  0  0  0  0
    1.4148   -4.8624    0.1892 H   0  0  0  0  0  0  0  0  0  0  0  0
    2.4588   -3.9707    1.3136 H   0  0  0  0  0  0  0  0  0  0  0  0
    3.5187   -2.2589    0.8661 H   0  0  0  0  0  0  0  0  0  0  0  0
    2.9869    1.9075    1.4369 H   0  0  0  0  0  0  0  0  0  0  0  0
    0.6190    1.7060    0.9646 H   0  0  0  0  0  0  0  0  0  0  0  0
   -0.9478   -1.6602    0.1245 H   0  0  0  0  0  0  0  0  0  0  0  0
   -2.6746    3.4726    0.6850 H   0  0  0  0  0  0  0  0  0  0  0  0
   -4.3543    4.7287   -0.3473 H   0  0  0  0  0  0  0  0  0  0  0  0
   -5.9964    4.6640    0.5053 H   0  0  0  0  0  0  0  0  0  0  0  0
   -4.4980    4.3563    1.4038 H   0  0  0  0  0  0  0  0  0  0  0  0
   -7.4141    0.4878   -0.7403 H   0  0  0  0  0  0  0  0  0  0  0  0
   -6.4658    2.2849   -2.6484 H   0  0  0  0  0  0  0  0  0  0  0  0
   -6.9072    0.5977   -2.9580 H   0  0  0  0  0  0  0  0  0  0  0  0
   -5.1783    0.9724   -2.7389 H   0  0  0  0  0  0  0  0  0  0  0  0
   -4.6418   -1.8478    0.0964 H   0  0  0  0  0  0  0  0  0  0  0  0
   -5.6518   -1.3722   -2.4100 H   0  0  0  0  0  0  0  0  0  0  0  0
   -5.4087   -3.0023   -1.6780 H   0  0  0  0  0  0  0  0  0  0  0  0
   -7.6253   -3.2424   -2.0879 H   0  0  0  0  0  0  0  0  0  0  0  0
   -7.9942   -1.4786   -1.9844 H   0  0  0  0  0  0  0  0  0  0  0  0
   -7.6198   -3.6161    0.1342 H   0  0  0  0  0  0  0  0  0  0  0  0
   -8.7713   -2.2123    0.0683 H   0  0  0  0  0  0  0  0  0  0  0  0
   -6.3293   -2.3623    1.5042 H   0  0  0  0  0  0  0  0  0  0  0  0
   -7.2307   -0.8759    1.1381 H   0  0  0  0  0  0  0  0  0  0  0  0
    4.9112    1.9113    0.7780 H   0  0  0  0  0  0  0  0  0  0  0  0
    5.0927    1.7610    2.6109 H   0  0  0  0  0  0  0  0  0  0  0  0
    7.3554    0.8339    2.2503 H   0  0  0  0  0  0  0  0  0  0  0  0
    7.1778    2.2929    1.1856 H   0  0  0  0  0  0  0  0  0  0  0  0
    6.3412    0.7919   -0.6540 H   0  0  0  0  0  0  0  0  0  0  0  0
    7.5638   -1.6308    0.6366 H   0  0  0  0  0  0  0  0  0  0  0  0
    6.1198   -1.4843   -0.4414 H   0  0  0  0  0  0  0  0  0  0  0  0
    6.3988   -0.9619    2.4974 H   0  0  0  0  0  0  0  0  0  0  0  0
    5.3146   -2.0873    1.6732 H   0  0  0  0  0  0  0  0  0  0  0  0
    9.1772    0.1152   -2.3192 H   0  0  0  0  0  0  0  0  0  0  0  0
    7.5068   -0.4639   -2.0316 H   0  0  0  0  0  0  0  0  0  0  0  0
    8.9300   -1.2974   -1.2612 H   0  0  0  0  0  0  0  0  0  0  0  0
    8.8210    2.5935    0.0140 H   0  0  0  0  0  0  0  0  0  0  0  0
    9.5137    1.8566   -1.5099 H   0  0  0  0  0  0  0  0  0  0  0  0
    7.7743    2.2498   -1.4522 H   0  0  0  0  0  0  0  0  0  0  0  0
  1  2  1  0
  2  3  1  0
  3  4  2  0
  4  5  1  0
  5  6  2  0
  6  7  1  0
  7  8  2  0
  8  9  1  0
  9 10  1  0
 10 11  2  0
 11 12  1  0
 12 13  2  0
 13 14  1  0
 14 15  1  0
 14 16  1  0
 16 17  2  0
 16 18  1  0
 18 19  1  0
 18 20  1  0
 20 21  1  0
 21 22  1  0
 22 23  1  0
 23 24  1  0
 24 25  1  0
 20 26  1  0
 26 27  2  0
  5 28  1  0
 28 29  1  0
 29 30  1  0
 30 31  1  0
 31 32  1  0
 32 33  1  0
 31 34  1  0
 34 35  1  0
 34 36  1  0
  8  3  1  0
 27 10  1  0
 33 28  1  0
 26 13  1  0
 25 21  1  0
  1 37  1  0
  1 38  1  0
  1 39  1  0
  4 40  1  0
  6 41  1  0
  7 42  1  0
  9 43  1  0
 12 44  1  0
 15 45  1  0
 15 46  1  0
 15 47  1  0
 18 48  1  6
 19 49  1  0
 19 50  1  0
 19 51  1  0
 21 52  1  0
 22 53  1  0
 22 54  1  0
 23 55  1  0
 23 56  1  0
 24 57  1  0
 24 58  1  0
 25 59  1  0
 25 60  1  0
 29 61  1  0
 29 62  1  0
 30 63  1  0
 30 64  1  0
 31 65  1  0
 32 66  1  0
 32 67  1  0
 33 68  1  0
 33 69  1  0
 35 70  1  0
 35 71  1  0
 35 72  1  0
 36 73  1  0
 36 74  1  0
 36 75  1  0
M  END
$$$$
[H]c1nc(N([H])c2c([H])c([H])c(C(=O)N3C([H])([H])C([H])([H])N(C([H])([H])[H])C([H])([H])C3([H])[H])c([H])c2OC([H])([H])[H])nc2c1N(C([H])([H])[H])C(=O)[C@@]([H])(C([H])([H])[H])N2C1([H])C([H])([H])C([H])([H])C([H])([H])C1([H])[H]
     RDKit          3D

 71 75  0  0  0  0  0  0  0  0999 V2000
    1.7894   -3.7072    2.4448 C   0  0  0  0  0  0  0  0  0  0  0  0
    1.0168   -2.7545    1.7625 O   0  0  0  0  0  0  0  0  0  0  0  0
    1.6377   -1.7299    1.0422 C   0  0  0  0  0  0  0  0  0  0  0  0
    2.9919   -1.6337    0.9869 C   0  0  0  0  0  0  0  0  0  0  0  0
    3.6650   -0.6190    0.2737 C   0  0  0  0  0  0  0  0  0  0  0  0
    2.8753    0.2874   -0.3769 C   0  0  0  0  0  0  0  0  0  0  0  0
    1.4865    0.1796   -0.3136 C   0  0  0  0  0  0  0  0  0  0  0  0
    0.8279   -0.7957    0.3717 C   0  0  0  0  0  0  0  0  0  0  0  0
   -0.5610   -0.9313    0.4632 N   0  0  0  0  0  0  0  0  0  0  0  0
   -1.5681   -0.1539   -0.1344 C   0  0  0  0  0  0  0  0  0  0  0  0
   -1.3359    0.8923   -0.9330 N   0  0  0  0  0  0  0  0  0  0  0  0
   -2.2610    1.6618   -1.5232 C   0  0  0  0  0  0  0  0  0  0  0  0
   -3.5773    1.3036   -1.2527 C   0  0  0  0  0  0  0  0  0  0  0  0
   -4.6665    2.0179   -1.8045 N   0  0  0  0  0  0  0  0  0  0  0  0
   -4.4854    3.1621   -2.6835 C   0  0  0  0  0  0  0  0  0  0  0  0
   -5.9928    1.5740   -1.4709 C   0  0  0  0  0  0  0  0  0  0  0  0
   -6.9545    2.3505   -1.5035 O   0  0  0  0  0  0  0  0  0  0  0  0
   -6.2158    0.1396   -1.0760 C   0  0  1  0  0  0  0  0  0  0  0  0
   -5.9653   -0.6821   -2.3439 C   0  0  0  0  0  0  0  0  0  0  0  0
   -5.1802   -0.1828   -0.1108 N   0  0  0  0  0  0  0  0  0  0  0  0
   -5.5790   -0.8677    1.0596 C   0  0  0  0  0  0  0  0  0  0  0  0
   -4.5661   -1.2481    2.0520 C   0  0  0  0  0  0  0  0  0  0  0  0
   -5.4504   -1.7452    3.2120 C   0  0  0  0  0  0  0  0  0  0  0  0
   -6.7462   -0.9701    3.0881 C   0  0  0  0  0  0  0  0  0  0  0  0
   -6.5546   -0.0365    1.9109 C   0  0  0  0  0  0  0  0  0  0  0  0
   -3.8385    0.2292   -0.4316 C   0  0  0  0  0  0  0  0  0  0  0  0
   -2.8789   -0.4993    0.1270 N   0  0  0  0  0  0  0  0  0  0  0  0
    5.1011   -0.6151    0.2732 C   0  0  0  0  0  0  0  0  0  0  0  0
    5.6671   -1.6011    0.9156 O   0  0  0  0  0  0  0  0  0  0  0  0
    6.0043    0.2662   -0.2985 N   0  0  0  0  0  0  0  0  0  0  0  0
    5.7890    1.4617   -1.0659 C   0  0  0  0  0  0  0  0  0  0  0  0
    7.1338    2.1476   -1.3101 C   0  0  0  0  0  0  0  0  0  0  0  0
    8.0618    1.3078   -2.0296 N   0  0  0  0  0  0  0  0  0  0  0  0
    9.4065    1.8333   -1.7673 C   0  0  0  0  0  0  0  0  0  0  0  0
    8.0444   -0.0545   -1.5108 C   0  0  0  0  0  0  0  0  0  0  0  0
    7.4685   -0.0339   -0.1204 C   0  0  0  0  0  0  0  0  0  0  0  0
    1.0946   -4.4522    2.8979 H   0  0  0  0  0  0  0  0  0  0  0  0
    2.3478   -3.1800    3.2527 H   0  0  0  0  0  0  0  0  0  0  0  0
    2.4753   -4.2774    1.7945 H   0  0  0  0  0  0  0  0  0  0  0  0
    3.6116   -2.3638    1.5119 H   0  0  0  0  0  0  0  0  0  0  0  0
    3.2954    1.0879   -0.9463 H   0  0  0  0  0  0  0  0  0  0  0  0
    0.9636    0.9481   -0.8607 H   0  0  0  0  0  0  0  0  0  0  0  0
   -0.9220   -1.7357    1.0698 H   0  0  0  0  0  0  0  0  0  0  0  0
   -2.0834    2.4964   -2.1600 H   0  0  0  0  0  0  0  0  0  0  0  0
   -5.4019    3.7811   -2.6011 H   0  0  0  0  0  0  0  0  0  0  0  0
   -3.6332    3.7986   -2.4018 H   0  0  0  0  0  0  0  0  0  0  0  0
   -4.4336    2.8080   -3.7343 H   0  0  0  0  0  0  0  0  0  0  0  0
   -7.2264    0.0115   -0.6944 H   0  0  0  0  0  0  0  0  0  0  0  0
   -6.2598   -0.0888   -3.2340 H   0  0  0  0  0  0  0  0  0  0  0  0
   -4.9127   -0.9928   -2.4251 H   0  0  0  0  0  0  0  0  0  0  0  0
   -6.6317   -1.5906   -2.3565 H   0  0  0  0  0  0  0  0  0  0  0  0
   -6.1679   -1.7825    0.7880 H   0  0  0  0  0  0  0  0  0  0  0  0
   -3.9611   -2.1428    1.7917 H   0  0  0  0  0  0  0  0  0  0  0  0
   -3.9824   -0.4218    2.4826 H   0  0  0  0  0  0  0  0  0  0  0  0
   -5.0004   -1.5309    4.1870 H   0  0  0  0  0  0  0  0  0  0  0  0
   -5.6843   -2.8372    3.0707 H   0  0  0  0  0  0  0  0  0  0  0  0
   -6.9877   -0.4350    4.0295 H   0  0  0  0  0  0  0  0  0  0  0  0
   -7.6003   -1.6515    2.8110 H   0  0  0  0  0  0  0  0  0  0  0  0
   -7.4863    0.1632    1.3555 H   0  0  0  0  0  0  0  0  0  0  0  0
   -6.0086    0.8837    2.1874 H   0  0  0  0  0  0  0  0  0  0  0  0
    5.3008    1.3012   -2.0460 H   0  0  0  0  0  0  0  0  0  0  0  0
    5.2188    2.2263   -0.4670 H   0  0  0  0  0  0  0  0  0  0  0  0
    6.9119    3.0361   -1.9631 H   0  0  0  0  0  0  0  0  0  0  0  0
    7.5039    2.5485   -0.3709 H   0  0  0  0  0  0  0  0  0  0  0  0
    9.5747    2.7083   -2.4191 H   0  0  0  0  0  0  0  0  0  0  0  0
    9.4326    2.0864   -0.6859 H   0  0  0  0  0  0  0  0  0  0  0  0
   10.1671    1.0301   -1.9362 H   0  0  0  0  0  0  0  0  0  0  0  0
    9.0491   -0.5015   -1.5174 H   0  0  0  0  0  0  0  0  0  0  0  0
    7.3627   -0.6318   -2.1719 H   0  0  0  0  0  0  0  0  0  0  0  0
    7.5908   -1.0192    0.3605 H   0  0  0  0  0  0  0  0  0  0  0  0
    7.8932    0.7670    0.4733 H   0  0  0  0  0  0  0  0  0  0  0  0
  1  2  1  0
  2  3  1  0
  3  4  2  0
  4  5  1  0
  5  6  2  0
  6  7  1  0
  7  8  2  0
  8  9  1  0
  9 10  1  0
 10 11  2  0
 11 12  1  0
 12 13  2  0
 13 14  1  0
 14 15  1  0
 14 16  1  0
 16 17  2  0
 16 18  1  0
 18 19  1  0
 18 20  1  0
 20 21  1  0
 21 22  1  0
 22 23  1  0
 23 24  1  0
 24 25  1  0
 20 26  1  0
 26 27  2  0
  5 28  1  0
 28 29  2  0
 28 30  1  0
 30 31  1  0
 31 32  1  0
 32 33  1  0
 33 34  1  0
 33 35  1  0
 35 36  1  0
  8  3  1  0
 27 10  1  0
 36 30  1  0
 26 13  1  0
 25 21  1  0
  1 37  1  0
  1 38  1  0
  1 39  1  0
  4 40  1  0
  6 41  1  0
  7 42  1  0
  9 43  1  0
 12 44  1  0
 15 45  1  0
 15 46  1  0
 15 47  1  0
 18 48  1  1
 19 49  1  0
 19 50  1  0
 19 51  1  0
 21 52  1  0
 22 53  1  0
 22 54  1  0
 23 55  1  0
 23 56  1  0
 24 57  1  0
 24 58  1  0
 25 59  1  0
 25 60  1  0
 31 61  1  0
 31 62  1  0
 32 63  1  0
 32 64  1  0
 34 65  1  0
 34 66  1  0
 34 67  1  0
 35 68  1  0
 35 69  1  0
 36 70  1  0
 36 71  1  0
M  END
$$$$
[H]c1nc(N([H])c2c([H])c([H])c(C(=O)N([H])C3([H])C([H])([H])N(C([H])([H])[H])C([H])([H])C3([H])[H])c([H])c2OC([H])([H])[H])nc2c1N(C([H])([H])[H])C(=O)[C@@]([H])(C([H])([H])[H])N2C1([H])C([H])([H])C([H])([H])C([H])([H])C1([H])[H]
     RDKit          3D

 71 75  0  0  0  0  0  0  0  0999 V2000
    2.8368    0.6242   -4.5313 C   0  0  0  0  0  0  0  0  0  0  0  0
    1.6418    0.7464   -3.8197 O   0  0  0  0  0  0  0  0  0  0  0  0
    1.5597    0.4244   -2.4581 C   0  0  0  0  0  0  0  0  0  0  0  0
    2.6692   -0.0258   -1.7812 C   0  0  0  0  0  0  0  0  0  0  0  0
    2.6422   -0.3541   -0.4500 C   0  0  0  0  0  0  0  0  0  0  0  0
    1.4243   -0.2050    0.1782 C   0  0  0  0  0  0  0  0  0  0  0  0
    0.2831    0.2521   -0.4942 C   0  0  0  0  0  0  0  0  0  0  0  0
    0.3143    0.5799   -1.8284 C   0  0  0  0  0  0  0  0  0  0  0  0
   -0.7805    1.0477   -2.5816 N   0  0  0  0  0  0  0  0  0  0  0  0
   -2.1065    1.2564   -2.1759 C   0  0  0  0  0  0  0  0  0  0  0  0
   -2.9637    1.7263   -3.1413 N   0  0  0  0  0  0  0  0  0  0  0  0
   -4.2483    1.9765   -2.9445 C   0  0  0  0  0  0  0  0  0  0  0  0
   -4.7590    1.7495   -1.6845 C   0  0  0  0  0  0  0  0  0  0  0  0
   -6.1244    1.9810   -1.3723 N   0  0  0  0  0  0  0  0  0  0  0  0
   -7.0678    2.4750   -2.3835 C   0  0  0  0  0  0  0  0  0  0  0  0
   -6.5619    1.7147   -0.0485 C   0  0  0  0  0  0  0  0  0  0  0  0
   -7.7505    1.4203    0.1993 O   0  0  0  0  0  0  0  0  0  0  0  0
   -5.5501    1.7990    1.0376 C   0  0  1  0  0  0  0  0  0  0  0  0
   -6.1847    1.5962    2.3519 C   0  0  0  0  0  0  0  0  0  0  0  0
   -4.4365    1.0189    0.6637 N   0  0  0  0  0  0  0  0  0  0  0  0
   -3.7436    0.0093    1.4314 C   0  0  0  0  0  0  0  0  0  0  0  0
   -3.2048    0.4960    2.7466 C   0  0  0  0  0  0  0  0  0  0  0  0
   -3.4142   -0.6300    3.7362 C   0  0  0  0  0  0  0  0  0  0  0  0
   -4.0727   -1.7427    2.9936 C   0  0  0  0  0  0  0  0  0  0  0  0
   -4.4748   -1.2689    1.6320 C   0  0  0  0  0  0  0  0  0  0  0  0
   -3.9481    1.2771   -0.6689 C   0  0  0  0  0  0  0  0  0  0  0  0
   -2.6450    1.0530   -0.9765 N   0  0  0  0  0  0  0  0  0  0  0  0
    3.8118   -0.8350    0.2800 C   0  0  0  0  0  0  0  0  0  0  0  0
    3.7193   -1.0497    1.5062 O   0  0  0  0  0  0  0  0  0  0  0  0
    5.0332   -1.0552   -0.3906 N   0  0  0  0  0  0  0  0  0  0  0  0
    6.1669   -1.5350    0.3861 C   0  0  0  0  0  0  0  0  0  0  0  0
    6.5438   -2.9003   -0.1582 C   0  0  0  0  0  0  0  0  0  0  0  0
    8.0032   -2.9864    0.2379 C   0  0  0  0  0  0  0  0  0  0  0  0
    8.5001   -1.6445    0.2883 N   0  0  0  0  0  0  0  0  0  0  0  0
    9.2451   -1.3499    1.4956 C   0  0  0  0  0  0  0  0  0  0  0  0
    7.4057   -0.7356    0.1435 C   0  0  0  0  0  0  0  0  0  0  0  0
    2.8192    1.2163   -5.4890 H   0  0  0  0  0  0  0  0  0  0  0  0
    3.7165    1.0214   -3.9770 H   0  0  0  0  0  0  0  0  0  0  0  0
    3.0628   -0.4248   -4.8317 H   0  0  0  0  0  0  0  0  0  0  0  0
    3.6115   -0.1322   -2.3054 H   0  0  0  0  0  0  0  0  0  0  0  0
    1.3581   -0.4534    1.2285 H   0  0  0  0  0  0  0  0  0  0  0  0
   -0.6404    0.3471    0.0569 H   0  0  0  0  0  0  0  0  0  0  0  0
   -0.5467    1.2706   -3.6040 H   0  0  0  0  0  0  0  0  0  0  0  0
   -4.9056    2.3422   -3.7039 H   0  0  0  0  0  0  0  0  0  0  0  0
   -8.0525    2.5574   -1.9124 H   0  0  0  0  0  0  0  0  0  0  0  0
   -7.0962    1.6866   -3.1740 H   0  0  0  0  0  0  0  0  0  0  0  0
   -6.7159    3.4354   -2.8102 H   0  0  0  0  0  0  0  0  0  0  0  0
   -5.2276    2.8907    1.0373 H   0  0  0  0  0  0  0  0  0  0  0  0
   -6.1375    0.6317    2.8276 H   0  0  0  0  0  0  0  0  0  0  0  0
   -7.2874    1.8330    2.2399 H   0  0  0  0  0  0  0  0  0  0  0  0
   -5.8477    2.3519    3.1229 H   0  0  0  0  0  0  0  0  0  0  0  0
   -2.8024   -0.3023    0.8698 H   0  0  0  0  0  0  0  0  0  0  0  0
   -3.6286    1.4490    3.0958 H   0  0  0  0  0  0  0  0  0  0  0  0
   -2.0893    0.6763    2.7351 H   0  0  0  0  0  0  0  0  0  0  0  0
   -2.4927   -0.9269    4.2616 H   0  0  0  0  0  0  0  0  0  0  0  0
   -4.1705   -0.2569    4.4890 H   0  0  0  0  0  0  0  0  0  0  0  0
   -3.3187   -2.5689    2.9220 H   0  0  0  0  0  0  0  0  0  0  0  0
   -4.9878   -2.1168    3.4978 H   0  0  0  0  0  0  0  0  0  0  0  0
   -5.5646   -1.2258    1.4708 H   0  0  0  0  0  0  0  0  0  0  0  0
   -4.1468   -2.0794    0.9068 H   0  0  0  0  0  0  0  0  0  0  0  0
    5.2189   -0.9105   -1.4012 H   0  0  0  0  0  0  0  0  0  0  0  0
    5.8983   -1.6594    1.4346 H   0  0  0  0  0  0  0  0  0  0  0  0
    6.0014   -3.7145    0.3513 H   0  0  0  0  0  0  0  0  0  0  0  0
    6.3902   -2.9463   -1.2510 H   0  0  0  0  0  0  0  0  0  0  0  0
    8.5571   -3.6425   -0.4412 H   0  0  0  0  0  0  0  0  0  0  0  0
    8.0615   -3.3973    1.2840 H   0  0  0  0  0  0  0  0  0  0  0  0
   10.3217   -1.3766    1.2240 H   0  0  0  0  0  0  0  0  0  0  0  0
    8.9825   -2.0076    2.3391 H   0  0  0  0  0  0  0  0  0  0  0  0
    9.0550   -0.3008    1.8441 H   0  0  0  0  0  0  0  0  0  0  0  0
    7.3459   -0.2733   -0.8629 H   0  0  0  0  0  0  0  0  0  0  0  0
    7.4951    0.1008    0.8621 H   0  0  0  0  0  0  0  0  0  0  0  0
  1  2  1  0
  2  3  1  0
  3  4  2  0
  4  5  1  0
  5  6  2  0
  6  7  1  0
  7  8  2  0
  8  9  1  0
  9 10  1  0
 10 11  2  0
 11 12  1  0
 12 13  2  0
 13 14  1  0
 14 15  1  0
 14 16  1  0
 16 17  2  0
 16 18  1  0
 18 19  1  0
 18 20  1  0
 20 21  1  0
 21 22  1  0
 22 23  1  0
 23 24  1  0
 24 25  1  0
 20 26  1  0
 26 27  2  0
  5 28  1  0
 28 29  2  0
 28 30  1  0
 30 31  1  0
 31 32  1  0
 32 33  1  0
 33 34  1  0
 34 35  1  0
 34 36  1  0
  8  3  1  0
 27 10  1  0
 36 31  1  0
 26 13  1  0
 25 21  1  0
  1 37  1  0
  1 38  1  0
  1 39  1  0
  4 40  1  0
  6 41  1  0
  7 42  1  0
  9 43  1  0
 12 44  1  0
 15 45  1  0
 15 46  1  0
 15 47  1  0
 18 48  1  1
 19 49  1  0
 19 50  1  0
 19 51  1  0
 21 52  1  0
 22 53  1  0
 22 54  1  0
 23 55  1  0
 23 56  1  0
 24 57  1  0
 24 58  1  0
 25 59  1  0
 25 60  1  0
 30 61  1  0
 31 62  1  0
 32 63  1  0
 32 64  1  0
 33 65  1  0
 33 66  1  0
 35 67  1  0
 35 68  1  0
 35 69  1  0
 36 70  1  0
 36 71  1  0
M  END
$$$$
[H]c1nc(N([H])c2c([H])c([H])c(-n3c([H])nc([H])c3[H])c([H])c2OC([H])([H])[H])nc2c1C([H])([H])C([H])([H])c1c(C(=O)N([H])[H])nn(C([H])([H])[H])c1-2
     RDKit          3D

 51 55  0  0  0  0  0  0  0  0999 V2000
   -3.9404   -3.3298   -0.4896 C   0  0  0  0  0  0  0  0  0  0  0  0
   -2.9197   -2.3699   -0.3048 O   0  0  0  0  0  0  0  0  0  0  0  0
   -3.2854   -1.0678   -0.0207 C   0  0  0  0  0  0  0  0  0  0  0  0
   -4.6010   -0.7025    0.0821 C   0  0  0  0  0  0  0  0  0  0  0  0
   -4.9973    0.5839    0.3635 C   0  0  0  0  0  0  0  0  0  0  0  0
   -3.9893    1.4950    0.5382 C   0  0  0  0  0  0  0  0  0  0  0  0
   -2.6353    1.1361    0.4360 C   0  0  0  0  0  0  0  0  0  0  0  0
   -2.2418   -0.1379    0.1573 C   0  0  0  0  0  0  0  0  0  0  0  0
   -0.9012   -0.5704    0.0397 N   0  0  0  0  0  0  0  0  0  0  0  0
    0.2760    0.1575    0.1723 C   0  0  0  0  0  0  0  0  0  0  0  0
    0.3433    1.4450    0.4450 N   0  0  0  0  0  0  0  0  0  0  0  0
    1.4514    2.1596    0.5758 C   0  0  0  0  0  0  0  0  0  0  0  0
    2.6868    1.4795    0.4073 C   0  0  0  0  0  0  0  0  0  0  0  0
    3.9253    2.2478    0.5319 C   0  0  0  0  0  0  0  0  0  0  0  0
    5.1669    1.4965    0.4158 C   0  0  0  0  0  0  0  0  0  0  0  0
    5.0837    0.0741    0.0955 C   0  0  0  0  0  0  0  0  0  0  0  0
    6.0790   -0.9005   -0.1276 C   0  0  0  0  0  0  0  0  0  0  0  0
    5.4329   -2.0265   -0.3689 N   0  0  0  0  0  0  0  0  0  0  0  0
    4.1287   -1.8803   -0.3248 N   0  0  0  0  0  0  0  0  0  0  0  0
    3.0906   -2.8575   -0.5296 C   0  0  0  0  0  0  0  0  0  0  0  0
    3.8986   -0.5819   -0.0378 C   0  0  0  0  0  0  0  0  0  0  0  0
    2.6362    0.1532    0.1264 C   0  0  0  0  0  0  0  0  0  0  0  0
    1.4576   -0.5218    0.0052 N   0  0  0  0  0  0  0  0  0  0  0  0
    7.5006   -0.6108   -0.0741 C   0  0  0  0  0  0  0  0  0  0  0  0
    7.9643    0.6900    0.2195 N   0  0  0  0  0  0  0  0  0  0  0  0
    8.3804   -1.4955   -0.2844 O   0  0  0  0  0  0  0  0  0  0  0  0
   -6.3536    0.9825    0.4742 N   0  0  0  0  0  0  0  0  0  0  0  0
   -7.4067    0.4076   -0.1351 C   0  0  0  0  0  0  0  0  0  0  0  0
   -8.5709    1.0527    0.1981 C   0  0  0  0  0  0  0  0  0  0  0  0
   -8.2091    2.0453    1.0323 N   0  0  0  0  0  0  0  0  0  0  0  0
   -6.8549    1.9981    1.1975 C   0  0  0  0  0  0  0  0  0  0  0  0
   -3.5653   -4.2865   -0.8844 H   0  0  0  0  0  0  0  0  0  0  0  0
   -4.5068   -3.4620    0.4671 H   0  0  0  0  0  0  0  0  0  0  0  0
   -4.7009   -2.9670   -1.2292 H   0  0  0  0  0  0  0  0  0  0  0  0
   -5.3894   -1.4342   -0.0586 H   0  0  0  0  0  0  0  0  0  0  0  0
   -4.2217    2.5248    0.7618 H   0  0  0  0  0  0  0  0  0  0  0  0
   -1.9004    1.9178    0.5883 H   0  0  0  0  0  0  0  0  0  0  0  0
   -0.8059   -1.6244   -0.1864 H   0  0  0  0  0  0  0  0  0  0  0  0
    1.4465    3.2106    0.7996 H   0  0  0  0  0  0  0  0  0  0  0  0
    3.9181    2.8310    1.5213 H   0  0  0  0  0  0  0  0  0  0  0  0
    3.9488    3.0727   -0.2672 H   0  0  0  0  0  0  0  0  0  0  0  0
    5.7353    1.6271    1.4096 H   0  0  0  0  0  0  0  0  0  0  0  0
    5.8332    2.0245   -0.3399 H   0  0  0  0  0  0  0  0  0  0  0  0
    3.5997   -3.8457   -0.6706 H   0  0  0  0  0  0  0  0  0  0  0  0
    2.4409   -2.6025   -1.3978 H   0  0  0  0  0  0  0  0  0  0  0  0
    2.5006   -2.9236    0.4153 H   0  0  0  0  0  0  0  0  0  0  0  0
    8.0406    0.9938    1.1990 H   0  0  0  0  0  0  0  0  0  0  0  0
    8.2302    1.3467   -0.5405 H   0  0  0  0  0  0  0  0  0  0  0  0
   -7.3446   -0.4548   -0.8036 H   0  0  0  0  0  0  0  0  0  0  0  0
   -9.5970    0.8305   -0.1298 H   0  0  0  0  0  0  0  0  0  0  0  0
   -6.2577    2.6699    1.8148 H   0  0  0  0  0  0  0  0  0  0  0  0
  1  2  1  0
  2  3  1  0
  3  4  2  0
  4  5  1  0
  5  6  2  0
  6  7  1  0
  7  8  2  0
  8  9  1  0
  9 10  1  0
 10 11  2  0
 11 12  1  0
 12 13  2  0
 13 14  1  0
 14 15  1  0
 15 16  1  0
 16 17  1  0
 17 18  2  0
 18 19  1  0
 19 20  1  0
 19 21  1  0
 21 22  1  0
 22 23  2  0
 17 24  1  0
 24 25  1  0
 24 26  2  0
  5 27  1  0
 27 28  1  0
 28 29  2  0
 29 30  1  0
 30 31  2  0
  8  3  1  0
 23 10  1  0
 31 27  1  0
 22 13  1  0
 21 16  2  0
  1 32  1  0
  1 33  1  0
  1 34  1  0
  4 35  1  0
  6 36  1  0
  7 37  1  0
  9 38  1  0
 12 39  1  0
 14 40  1  0
 14 41  1  0
 15 42  1  0
 15 43  1  0
 20 44  1  0
 20 45  1  0
 20 46  1  0
 25 47  1  0
 25 48  1  0
 28 49  1  0
 29 50  1  0
 31 51  1  0
M  END
$$$$
[H]c1nc(N([H])c2c([H])c([H])c(N3C([H])([H])C([H])([H])C4(OC([H])([H])C([H])([H])O4)C([H])([H])C3([H])[H])c([H])c2OC([H])([H])[H])nc2c1N(C([H])([H])[H])C(=O)[C@@]([H])(C([H])([H])[H])N2C1([H])C([H])([H])C([H])([H])C([H])([H])C1([H])[H]
     RDKit          3D

 73 78  0  0  0  0  0  0  0  0999 V2000
    1.6345    3.6861   -1.1628 C   0  0  0  0  0  0  0  0  0  0  0  0
    0.8708    2.5191   -0.8964 O   0  0  0  0  0  0  0  0  0  0  0  0
    1.5144    1.2950   -0.7357 C   0  0  0  0  0  0  0  0  0  0  0  0
    2.8847    1.2180   -0.8347 C   0  0  0  0  0  0  0  0  0  0  0  0
    3.5517    0.0300   -0.6821 C   0  0  0  0  0  0  0  0  0  0  0  0
    2.8183   -1.0923   -0.4262 C   0  0  0  0  0  0  0  0  0  0  0  0
    1.4177   -1.0097   -0.3257 C   0  0  0  0  0  0  0  0  0  0  0  0
    0.7217    0.1555   -0.4719 C   0  0  0  0  0  0  0  0  0  0  0  0
   -0.6589    0.3217   -0.3867 N   0  0  0  0  0  0  0  0  0  0  0  0
   -1.6176   -0.6871   -0.1351 C   0  0  0  0  0  0  0  0  0  0  0  0
   -1.3627   -1.9740    0.0636 N   0  0  0  0  0  0  0  0  0  0  0  0
   -2.2475   -2.9116    0.2971 C   0  0  0  0  0  0  0  0  0  0  0  0
   -3.5735   -2.5631    0.3474 C   0  0  0  0  0  0  0  0  0  0  0  0
   -4.6302   -3.4770    0.5957 N   0  0  0  0  0  0  0  0  0  0  0  0
   -4.3412   -4.8975    0.8127 C   0  0  0  0  0  0  0  0  0  0  0  0
   -5.9543   -2.9802    0.6257 C   0  0  0  0  0  0  0  0  0  0  0  0
   -6.9186   -3.7265    0.3882 O   0  0  0  0  0  0  0  0  0  0  0  0
   -6.1770   -1.5591    0.9438 C   0  0  1  0  0  0  0  0  0  0  0  0
   -5.7904   -1.3733    2.4119 C   0  0  0  0  0  0  0  0  0  0  0  0
   -5.2418   -0.7746    0.1721 N   0  0  0  0  0  0  0  0  0  0  0  0
   -5.6423    0.4167   -0.5446 C   0  0  0  0  0  0  0  0  0  0  0  0
   -6.2148    1.4648    0.3844 C   0  0  0  0  0  0  0  0  0  0  0  0
   -7.1498    2.2410   -0.4862 C   0  0  0  0  0  0  0  0  0  0  0  0
   -7.5937    1.3297   -1.5951 C   0  0  0  0  0  0  0  0  0  0  0  0
   -6.6426    0.1618   -1.6193 C   0  0  0  0  0  0  0  0  0  0  0  0
   -3.8789   -1.2328    0.1453 C   0  0  0  0  0  0  0  0  0  0  0  0
   -2.9470   -0.3057   -0.0902 N   0  0  0  0  0  0  0  0  0  0  0  0
    4.9743   -0.0451   -0.7849 N   0  0  0  0  0  0  0  0  0  0  0  0
    5.8491    1.0507   -1.0438 C   0  0  0  0  0  0  0  0  0  0  0  0
    6.9324    1.1791    0.0361 C   0  0  0  0  0  0  0  0  0  0  0  0
    7.6287   -0.1237    0.2538 C   0  0  0  0  0  0  0  0  0  0  0  0
    7.1180   -1.1595   -0.6986 C   0  0  0  0  0  0  0  0  0  0  0  0
    5.6209   -1.3554   -0.6126 C   0  0  0  0  0  0  0  0  0  0  0  0
    8.9883    0.0418    0.0200 O   0  0  0  0  0  0  0  0  0  0  0  0
    9.6263    0.1167    1.2332 C   0  0  0  0  0  0  0  0  0  0  0  0
    8.4593    0.2670    2.2064 C   0  0  0  0  0  0  0  0  0  0  0  0
    7.4987   -0.5507    1.5711 O   0  0  0  0  0  0  0  0  0  0  0  0
    2.1805    3.5643   -2.1438 H   0  0  0  0  0  0  0  0  0  0  0  0
    0.9848    4.5715   -1.2959 H   0  0  0  0  0  0  0  0  0  0  0  0
    2.3382    3.9204   -0.3434 H   0  0  0  0  0  0  0  0  0  0  0  0
    3.3961    2.1460   -1.0387 H   0  0  0  0  0  0  0  0  0  0  0  0
    3.3399   -2.0322   -0.3049 H   0  0  0  0  0  0  0  0  0  0  0  0
    0.9488   -1.9527   -0.1225 H   0  0  0  0  0  0  0  0  0  0  0  0
   -1.0474    1.3020   -0.5224 H   0  0  0  0  0  0  0  0  0  0  0  0
   -2.0327   -3.9616    0.4587 H   0  0  0  0  0  0  0  0  0  0  0  0
   -3.6235   -5.2753    0.0558 H   0  0  0  0  0  0  0  0  0  0  0  0
   -4.0654   -5.1230    1.8416 H   0  0  0  0  0  0  0  0  0  0  0  0
   -5.3026   -5.4355    0.6104 H   0  0  0  0  0  0  0  0  0  0  0  0
   -7.2258   -1.2392    0.7949 H   0  0  0  0  0  0  0  0  0  0  0  0
   -5.1145   -0.5071    2.5484 H   0  0  0  0  0  0  0  0  0  0  0  0
   -6.7072   -1.2741    3.0502 H   0  0  0  0  0  0  0  0  0  0  0  0
   -5.2530   -2.2564    2.8101 H   0  0  0  0  0  0  0  0  0  0  0  0
   -4.7488    0.8877   -1.0234 H   0  0  0  0  0  0  0  0  0  0  0  0
   -6.6692    1.0467    1.2805 H   0  0  0  0  0  0  0  0  0  0  0  0
   -5.4146    2.1827    0.7270 H   0  0  0  0  0  0  0  0  0  0  0  0
   -6.6972    3.1690   -0.9085 H   0  0  0  0  0  0  0  0  0  0  0  0
   -8.0175    2.6083    0.1308 H   0  0  0  0  0  0  0  0  0  0  0  0
   -8.6428    1.0204   -1.3598 H   0  0  0  0  0  0  0  0  0  0  0  0
   -7.6459    1.8545   -2.5789 H   0  0  0  0  0  0  0  0  0  0  0  0
   -6.1782    0.1308   -2.6331 H   0  0  0  0  0  0  0  0  0  0  0  0
   -7.2215   -0.7628   -1.5139 H   0  0  0  0  0  0  0  0  0  0  0  0
    6.3891    0.8183   -2.0047 H   0  0  0  0  0  0  0  0  0  0  0  0
    5.4023    2.0341   -1.1394 H   0  0  0  0  0  0  0  0  0  0  0  0
    7.6070    1.9882   -0.3251 H   0  0  0  0  0  0  0  0  0  0  0  0
    6.4554    1.5196    0.9816 H   0  0  0  0  0  0  0  0  0  0  0  0
    7.4503   -0.9010   -1.7305 H   0  0  0  0  0  0  0  0  0  0  0  0
    7.6090   -2.1410   -0.4455 H   0  0  0  0  0  0  0  0  0  0  0  0
    5.4010   -1.7560    0.3904 H   0  0  0  0  0  0  0  0  0  0  0  0
    5.3388   -2.0429   -1.4319 H   0  0  0  0  0  0  0  0  0  0  0  0
   10.2756    1.0035    1.3561 H   0  0  0  0  0  0  0  0  0  0  0  0
   10.1635   -0.8420    1.4695 H   0  0  0  0  0  0  0  0  0  0  0  0
    8.0994    1.3159    2.1716 H   0  0  0  0  0  0  0  0  0  0  0  0
    8.7012   -0.0773    3.2127 H   0  0  0  0  0  0  0  0  0  0  0  0
  1  2  1  0
  2  3  1  0
  3  4  2  0
  4  5  1  0
  5  6  2  0
  6  7  1  0
  7  8  2  0
  8  9  1  0
  9 10  1  0
 10 11  2  0
 11 12  1  0
 12 13  2  0
 13 14  1  0
 14 15  1  0
 14 16  1  0
 16 17  2  0
 16 18  1  0
 18 19  1  0
 18 20  1  0
 20 21  1  0
 21 22  1  0
 22 23  1  0
 23 24  1  0
 24 25  1  0
 20 26  1  0
 26 27  2  0
  5 28  1  0
 28 29  1  0
 29 30  1  0
 30 31  1  0
 31 32  1  0
 32 33  1  0
 31 34  1  0
 34 35  1  0
 35 36  1  0
 36 37  1  0
  8  3  1  0
 27 10  1  0
 33 28  1  0
 26 13  1  0
 37 31  1  0
 25 21  1  0
  1 38  1  0
  1 39  1  0
  1 40  1  0
  4 41  1  0
  6 42  1  0
  7 43  1  0
  9 44  1  0
 12 45  1  0
 15 46  1  0
 15 47  1  0
 15 48  1  0
 18 49  1  1
 19 50  1  0
 19 51  1  0
 19 52  1  0
 21 53  1  0
 22 54  1  0
 22 55  1  0
 23 56  1  0
 23 57  1  0
 24 58  1  0
 24 59  1  0
 25 60  1  0
 25 61  1  0
 29 62  1  0
 29 63  1  0
 30 64  1  0
 30 65  1  0
 32 66  1  0
 32 67  1  0
 33 68  1  0
 33 69  1  0
 35 70  1  0
 35 71  1  0
 36 72  1  0
 36 73  1  0
M  END
$$$$
