[H]c1nc(N([H])C([H])([H])C([H])([H])N(C([H])([H])C([H])([H])[H])C([H])([H])C([H])([H])[H])nc2c1C([H])([H])C([H])([H])c1c(C(=O)N([H])[H])nn(C#N)c1-2
     RDKit          3D

 48 50  0  0  0  0  0  0  0  0999 V2000
   -4.7204    1.9908    0.0604 C   0  0  0  0  0  0  0  0  0  0  0  0
   -4.7588    0.8678    1.0345 C   0  0  0  0  0  0  0  0  0  0  0  0
   -4.2977   -0.4147    0.4821 N   0  0  0  0  0  0  0  0  0  0  0  0
   -5.2723   -0.8884   -0.4925 C   0  0  0  0  0  0  0  0  0  0  0  0
   -6.5347   -1.2403    0.3143 C   0  0  0  0  0  0  0  0  0  0  0  0
   -2.9705   -0.2346   -0.0910 C   0  0  0  0  0  0  0  0  0  0  0  0
   -2.4024   -1.5754   -0.4584 C   0  0  0  0  0  0  0  0  0  0  0  0
   -1.0951   -1.4568   -1.0341 N   0  0  0  0  0  0  0  0  0  0  0  0
    0.0043   -0.9417   -0.3187 C   0  0  0  0  0  0  0  0  0  0  0  0
   -0.0959   -0.5322    0.9519 N   0  0  0  0  0  0  0  0  0  0  0  0
    0.9019   -0.0263    1.6753 C   0  0  0  0  0  0  0  0  0  0  0  0
    2.1588    0.0767    1.0244 C   0  0  0  0  0  0  0  0  0  0  0  0
    3.2828    0.6330    1.7727 C   0  0  0  0  0  0  0  0  0  0  0  0
    4.5915    0.7435    1.1171 C   0  0  0  0  0  0  0  0  0  0  0  0
    4.6735    0.3008   -0.2750 C   0  0  0  0  0  0  0  0  0  0  0  0
    5.7711    0.3022   -1.1347 C   0  0  0  0  0  0  0  0  0  0  0  0
    5.2903   -0.2212   -2.2901 N   0  0  0  0  0  0  0  0  0  0  0  0
    4.0062   -0.5213   -2.1595 N   0  0  0  0  0  0  0  0  0  0  0  0
    3.2192   -1.0863   -3.1839 C   0  0  0  0  0  0  0  0  0  0  0  0
    2.5890   -1.5642   -4.0340 N   0  0  0  0  0  0  0  0  0  0  0  0
    3.5809   -0.2155   -0.9280 C   0  0  0  0  0  0  0  0  0  0  0  0
    2.2866   -0.3351   -0.2720 C   0  0  0  0  0  0  0  0  0  0  0  0
    1.2154   -0.8383   -0.9301 N   0  0  0  0  0  0  0  0  0  0  0  0
    7.1266    0.7688   -0.8847 C   0  0  0  0  0  0  0  0  0  0  0  0
    7.4186    1.3446    0.3729 N   0  0  0  0  0  0  0  0  0  0  0  0
    8.0160    0.6725   -1.7460 O   0  0  0  0  0  0  0  0  0  0  0  0
   -3.6793    2.3306   -0.1987 H   0  0  0  0  0  0  0  0  0  0  0  0
   -5.2772    1.8304   -0.8787 H   0  0  0  0  0  0  0  0  0  0  0  0
   -5.1744    2.8805    0.5901 H   0  0  0  0  0  0  0  0  0  0  0  0
   -4.1135    1.0917    1.8881 H   0  0  0  0  0  0  0  0  0  0  0  0
   -5.7938    0.7247    1.3584 H   0  0  0  0  0  0  0  0  0  0  0  0
   -5.4826   -0.1461   -1.2888 H   0  0  0  0  0  0  0  0  0  0  0  0
   -4.9229   -1.8565   -0.8814 H   0  0  0  0  0  0  0  0  0  0  0  0
   -7.1786   -0.3647    0.3309 H   0  0  0  0  0  0  0  0  0  0  0  0
   -6.2189   -1.5195    1.3407 H   0  0  0  0  0  0  0  0  0  0  0  0
   -7.0164   -2.1532   -0.1064 H   0  0  0  0  0  0  0  0  0  0  0  0
   -2.4032    0.3182    0.6705 H   0  0  0  0  0  0  0  0  0  0  0  0
   -2.9928    0.4472   -0.9762 H   0  0  0  0  0  0  0  0  0  0  0  0
   -3.0515   -2.1640   -1.1530 H   0  0  0  0  0  0  0  0  0  0  0  0
   -2.3201   -2.2215    0.4641 H   0  0  0  0  0  0  0  0  0  0  0  0
   -0.9448   -1.7667   -2.0369 H   0  0  0  0  0  0  0  0  0  0  0  0
    0.8112    0.2986    2.6902 H   0  0  0  0  0  0  0  0  0  0  0  0
    3.3852   -0.0346    2.6898 H   0  0  0  0  0  0  0  0  0  0  0  0
    2.9875    1.6180    2.2377 H   0  0  0  0  0  0  0  0  0  0  0  0
    4.9690    1.7961    1.2505 H   0  0  0  0  0  0  0  0  0  0  0  0
    5.3607    0.1319    1.6850 H   0  0  0  0  0  0  0  0  0  0  0  0
    7.2278    2.3579    0.5902 H   0  0  0  0  0  0  0  0  0  0  0  0
    7.8436    0.7923    1.1608 H   0  0  0  0  0  0  0  0  0  0  0  0
  1  2  1  0
  2  3  1  0
  3  4  1  0
  4  5  1  0
  3  6  1  0
  6  7  1  0
  7  8  1  0
  8  9  1  0
  9 10  2  0
 10 11  1  0
 11 12  2  0
 12 13  1  0
 13 14  1  0
 14 15  1  0
 15 16  1  0
 16 17  2  0
 17 18  1  0
 18 19  1  0
 19 20  3  0
 18 21  1  0
 21 22  1  0
 22 23  2  0
 16 24  1  0
 24 25  1  0
 24 26  2  0
 23  9  1  0
 22 12  1  0
 21 15  2  0
  1 27  1  0
  1 28  1  0
  1 29  1  0
  2 30  1  0
  2 31  1  0
  4 32  1  0
  4 33  1  0
  5 34  1  0
  5 35  1  0
  5 36  1  0
  6 37  1  0
  6 38  1  0
  7 39  1  0
  7 40  1  0
  8 41  1  0
 11 42  1  0
 13 43  1  0
 13 44  1  0
 14 45  1  0
 14 46  1  0
 25 47  1  0
 25 48  1  0
M  END
$$$$
[H]OC1(c2c([H])c(C(=O)N([H])C3(C(F)(F)F)C([H])([H])C3([H])[H])c([H])c([H])c2Oc2c([H])c([H])nc3c([H])c(OC([H])([H])C([H])([H])C([H])([H])N(C([H])([H])[H])C([H])([H])[H])c(OC([H])([H])[H])c([H])c23)C([H])([H])C([H])([H])N(C([H])([H])[H])C([H])([H])C1([H])[H]
     RDKit          3D

 83 87  0  0  0  0  0  0  0  0999 V2000
    2.4949   -2.0906   -1.2728 C   0  0  0  0  0  0  0  0  0  0  0  0
    3.5200   -1.3233   -0.7148 O   0  0  0  0  0  0  0  0  0  0  0  0
    3.2608   -0.1291   -0.0777 C   0  0  0  0  0  0  0  0  0  0  0  0
    1.9875    0.3677    0.0466 C   0  0  0  0  0  0  0  0  0  0  0  0
    1.7143    1.5565    0.6751 C   0  0  0  0  0  0  0  0  0  0  0  0
    0.4264    2.0506    0.7808 C   0  0  0  0  0  0  0  0  0  0  0  0
   -0.6204    1.3713    0.2626 O   0  0  0  0  0  0  0  0  0  0  0  0
   -1.8978    1.7411   -0.0681 C   0  0  0  0  0  0  0  0  0  0  0  0
   -2.3334    3.0333   -0.2966 C   0  0  0  0  0  0  0  0  0  0  0  0
   -3.6314    3.3798   -0.6097 C   0  0  0  0  0  0  0  0  0  0  0  0
   -4.6129    2.4138   -0.7204 C   0  0  0  0  0  0  0  0  0  0  0  0
   -4.2044    1.1300   -0.5015 C   0  0  0  0  0  0  0  0  0  0  0  0
   -2.8921    0.7605   -0.1822 C   0  0  0  0  0  0  0  0  0  0  0  0
   -2.5902   -0.6542    0.0153 C   0  0  0  0  0  0  0  0  0  0  0  0
   -3.8128   -1.3842   -0.1351 O   0  0  0  0  0  0  0  0  0  0  0  0
   -2.0357   -1.0356    1.3426 C   0  0  0  0  0  0  0  0  0  0  0  0
   -2.3754   -2.4964    1.5981 C   0  0  0  0  0  0  0  0  0  0  0  0
   -2.2733   -3.2100    0.3586 N   0  0  0  0  0  0  0  0  0  0  0  0
   -1.8227   -4.5578    0.6508 C   0  0  0  0  0  0  0  0  0  0  0  0
   -1.3148   -2.6220   -0.5605 C   0  0  0  0  0  0  0  0  0  0  0  0
   -1.7097   -1.2677   -1.0616 C   0  0  0  0  0  0  0  0  0  0  0  0
   -5.9922    2.7852   -1.0391 C   0  0  0  0  0  0  0  0  0  0  0  0
   -6.3832    3.9661   -0.8774 O   0  0  0  0  0  0  0  0  0  0  0  0
   -6.8819    1.8258   -1.5257 N   0  0  0  0  0  0  0  0  0  0  0  0
   -8.2643    1.9930   -1.8849 C   0  0  0  0  0  0  0  0  0  0  0  0
   -8.6498    2.9657   -2.9430 C   0  0  0  0  0  0  0  0  0  0  0  0
   -9.0963    3.1569   -1.4820 C   0  0  0  0  0  0  0  0  0  0  0  0
   -9.0525    0.6595   -1.8462 C   0  0  0  0  0  0  0  0  0  0  0  0
   -8.9528    0.2081   -0.5409 F   0  0  0  0  0  0  0  0  0  0  0  0
  -10.3732    0.8520   -2.1134 F   0  0  0  0  0  0  0  0  0  0  0  0
   -8.5050   -0.2282   -2.7302 F   0  0  0  0  0  0  0  0  0  0  0  0
    0.3214    3.2512    1.4255 C   0  0  0  0  0  0  0  0  0  0  0  0
    1.4065    3.9481    1.9427 C   0  0  0  0  0  0  0  0  0  0  0  0
    2.6282    3.4429    1.8215 N   0  0  0  0  0  0  0  0  0  0  0  0
    2.7868    2.2809    1.2070 C   0  0  0  0  0  0  0  0  0  0  0  0
    4.0926    1.8122    1.1036 C   0  0  0  0  0  0  0  0  0  0  0  0
    4.2990    0.6234    0.4663 C   0  0  0  0  0  0  0  0  0  0  0  0
    5.5839    0.0879    0.3234 O   0  0  0  0  0  0  0  0  0  0  0  0
    6.6926    0.8115    0.8580 C   0  0  0  0  0  0  0  0  0  0  0  0
    7.9384    0.0100    0.5685 C   0  0  0  0  0  0  0  0  0  0  0  0
    7.7933   -1.3389    1.2437 C   0  0  0  0  0  0  0  0  0  0  0  0
    8.9329   -2.1777    1.0273 N   0  0  0  0  0  0  0  0  0  0  0  0
    8.7444   -3.4328    1.6955 C   0  0  0  0  0  0  0  0  0  0  0  0
    9.2904   -2.3112   -0.3602 C   0  0  0  0  0  0  0  0  0  0  0  0
    2.0037   -2.7060   -0.4611 H   0  0  0  0  0  0  0  0  0  0  0  0
    1.6955   -1.4916   -1.7399 H   0  0  0  0  0  0  0  0  0  0  0  0
    2.8895   -2.8163   -2.0391 H   0  0  0  0  0  0  0  0  0  0  0  0
    1.1384   -0.1639   -0.3444 H   0  0  0  0  0  0  0  0  0  0  0  0
   -1.5837    3.8289   -0.2797 H   0  0  0  0  0  0  0  0  0  0  0  0
   -3.9080    4.4195   -0.7753 H   0  0  0  0  0  0  0  0  0  0  0  0
   -4.9750    0.3456   -0.5786 H   0  0  0  0  0  0  0  0  0  0  0  0
   -4.3042   -1.2631    0.7319 H   0  0  0  0  0  0  0  0  0  0  0  0
   -0.9081   -0.9851    1.3681 H   0  0  0  0  0  0  0  0  0  0  0  0
   -2.4824   -0.3643    2.1122 H   0  0  0  0  0  0  0  0  0  0  0  0
   -1.6625   -2.8522    2.3768 H   0  0  0  0  0  0  0  0  0  0  0  0
   -3.3820   -2.5375    2.0534 H   0  0  0  0  0  0  0  0  0  0  0  0
   -0.8447   -4.4418    1.1913 H   0  0  0  0  0  0  0  0  0  0  0  0
   -2.5045   -5.0912    1.3201 H   0  0  0  0  0  0  0  0  0  0  0  0
   -1.5744   -5.1149   -0.2770 H   0  0  0  0  0  0  0  0  0  0  0  0
   -0.3249   -2.6574   -0.0836 H   0  0  0  0  0  0  0  0  0  0  0  0
   -1.2804   -3.3171   -1.4451 H   0  0  0  0  0  0  0  0  0  0  0  0
   -2.3642   -1.4252   -1.9749 H   0  0  0  0  0  0  0  0  0  0  0  0
   -0.8822   -0.6488   -1.3718 H   0  0  0  0  0  0  0  0  0  0  0  0
   -6.5086    0.8384   -1.6691 H   0  0  0  0  0  0  0  0  0  0  0  0
   -9.4102    2.6452   -3.6547 H   0  0  0  0  0  0  0  0  0  0  0  0
   -7.9113    3.6706   -3.3492 H   0  0  0  0  0  0  0  0  0  0  0  0
  -10.1926    2.9884   -1.3221 H   0  0  0  0  0  0  0  0  0  0  0  0
   -8.7335    4.0105   -0.9153 H   0  0  0  0  0  0  0  0  0  0  0  0
   -0.6788    3.6829    1.6052 H   0  0  0  0  0  0  0  0  0  0  0  0
    1.1997    4.8958    2.4333 H   0  0  0  0  0  0  0  0  0  0  0  0
    4.9262    2.3925    1.5284 H   0  0  0  0  0  0  0  0  0  0  0  0
    6.7223    1.8127    0.3878 H   0  0  0  0  0  0  0  0  0  0  0  0
    6.5650    0.8834    1.9707 H   0  0  0  0  0  0  0  0  0  0  0  0
    8.0336   -0.0627   -0.5227 H   0  0  0  0  0  0  0  0  0  0  0  0
    8.7801    0.5356    1.0602 H   0  0  0  0  0  0  0  0  0  0  0  0
    6.8871   -1.8592    0.8865 H   0  0  0  0  0  0  0  0  0  0  0  0
    7.7043   -1.1416    2.3318 H   0  0  0  0  0  0  0  0  0  0  0  0
    8.1881   -3.2296    2.6573 H   0  0  0  0  0  0  0  0  0  0  0  0
    9.6754   -3.9431    1.9787 H   0  0  0  0  0  0  0  0  0  0  0  0
    8.0780   -4.0850    1.0988 H   0  0  0  0  0  0  0  0  0  0  0  0
    8.4350   -2.4449   -1.0371 H   0  0  0  0  0  0  0  0  0  0  0  0
    9.8656   -1.3772   -0.6264 H   0  0  0  0  0  0  0  0  0  0  0  0
    9.9929   -3.1557   -0.4949 H   0  0  0  0  0  0  0  0  0  0  0  0
  1  2  1  0
  2  3  1  0
  3  4  2  0
  4  5  1  0
  5  6  2  0
  6  7  1  0
  7  8  1  0
  8  9  2  0
  9 10  1  0
 10 11  2  0
 11 12  1  0
 12 13  2  0
 13 14  1  0
 14 15  1  0
 14 16  1  0
 16 17  1  0
 17 18  1  0
 18 19  1  0
 18 20  1  0
 20 21  1  0
 11 22  1  0
 22 23  2  0
 22 24  1  0
 24 25  1  0
 25 26  1  0
 26 27  1  0
 25 28  1  0
 28 29  1  0
 28 30  1  0
 28 31  1  0
  6 32  1  0
 32 33  2  0
 33 34  1  0
 34 35  2  0
 35 36  1  0
 36 37  2  0
 37 38  1  0
 38 39  1  0
 39 40  1  0
 40 41  1  0
 41 42  1  0
 42 43  1  0
 42 44  1  0
 37  3  1  0
 35  5  1  0
 13  8  1  0
 21 14  1  0
 27 25  1  0
  1 45  1  0
  1 46  1  0
  1 47  1  0
  4 48  1  0
  9 49  1  0
 10 50  1  0
 12 51  1  0
 15 52  1  0
 16 53  1  0
 16 54  1  0
 17 55  1  0
 17 56  1  0
 19 57  1  0
 19 58  1  0
 19 59  1  0
 20 60  1  0
 20 61  1  0
 21 62  1  0
 21 63  1  0
 24 64  1  0
 26 65  1  0
 26 66  1  0
 27 67  1  0
 27 68  1  0
 32 69  1  0
 33 70  1  0
 36 71  1  0
 39 72  1  0
 39 73  1  0
 40 74  1  0
 40 75  1  0
 41 76  1  0
 41 77  1  0
 43 78  1  0
 43 79  1  0
 43 80  1  0
 44 81  1  0
 44 82  1  0
 44 83  1  0
M  END
$$$$
[H]c1nc(C([H])([H])[H])c([H])c([H])c1-c1c([H])c([H])c2nc(N([H])C(=O)C([H])([H])[H])n([C@@]3([H])O[C@@]([H])(OC([H])([H])[H])[C@@]([H])(OC([H])([H])[H])C3([H])[H])c2c1[H]
     RDKit          3D

 53 56  0  0  0  0  0  0  0  0999 V2000
   -1.1944   -3.9685   -1.7675 C   0  0  0  0  0  0  0  0  0  0  0  0
   -0.9906   -3.0185   -0.7445 O   0  0  0  0  0  0  0  0  0  0  0  0
   -1.8085   -1.9135   -0.9684 C   0  0  2  0  0  0  0  0  0  0  0  0
   -1.0801   -0.7531   -1.1352 O   0  0  0  0  0  0  0  0  0  0  0  0
   -1.8175    0.2895   -0.5735 C   0  0  1  0  0  0  0  0  0  0  0  0
   -2.2566   -0.3695    0.7345 C   0  0  0  0  0  0  0  0  0  0  0  0
   -2.7946   -1.6899    0.1563 C   0  0  2  0  0  0  0  0  0  0  0  0
   -2.8357   -2.6956    1.0838 O   0  0  0  0  0  0  0  0  0  0  0  0
   -4.1576   -3.1343    1.2055 C   0  0  0  0  0  0  0  0  0  0  0  0
   -1.0599    1.4765   -0.3899 N   0  0  0  0  0  0  0  0  0  0  0  0
   -1.4865    2.7542   -0.4943 C   0  0  0  0  0  0  0  0  0  0  0  0
   -2.7858    3.2289   -0.8100 N   0  0  0  0  0  0  0  0  0  0  0  0
   -3.0987    4.5938   -0.8858 C   0  0  0  0  0  0  0  0  0  0  0  0
   -4.4753    5.0131   -1.2200 C   0  0  0  0  0  0  0  0  0  0  0  0
   -2.2398    5.4791   -0.6772 O   0  0  0  0  0  0  0  0  0  0  0  0
   -0.4604    3.5913   -0.2463 N   0  0  0  0  0  0  0  0  0  0  0  0
    0.6295    2.8567    0.0185 C   0  0  0  0  0  0  0  0  0  0  0  0
    1.9153    3.2489    0.3297 C   0  0  0  0  0  0  0  0  0  0  0  0
    2.8739    2.3103    0.5629 C   0  0  0  0  0  0  0  0  0  0  0  0
    2.5246    0.9779    0.4795 C   0  0  0  0  0  0  0  0  0  0  0  0
    1.2368    0.5967    0.1677 C   0  0  0  0  0  0  0  0  0  0  0  0
    0.2431    1.5341   -0.0741 C   0  0  0  0  0  0  0  0  0  0  0  0
    3.5392   -0.0281    0.7261 C   0  0  0  0  0  0  0  0  0  0  0  0
    4.8471    0.2815    0.3713 C   0  0  0  0  0  0  0  0  0  0  0  0
    5.7879   -0.6899    0.6178 C   0  0  0  0  0  0  0  0  0  0  0  0
    5.3908   -1.8786    1.1855 C   0  0  0  0  0  0  0  0  0  0  0  0
    6.3798   -2.9690    1.4743 C   0  0  0  0  0  0  0  0  0  0  0  0
    4.1073   -2.1425    1.5170 N   0  0  0  0  0  0  0  0  0  0  0  0
    3.1729   -1.2155    1.2879 C   0  0  0  0  0  0  0  0  0  0  0  0
   -2.2700   -4.2445   -1.7139 H   0  0  0  0  0  0  0  0  0  0  0  0
   -0.5160   -4.8160   -1.6797 H   0  0  0  0  0  0  0  0  0  0  0  0
   -1.0636   -3.3960   -2.7204 H   0  0  0  0  0  0  0  0  0  0  0  0
   -2.4069   -2.0897   -1.9079 H   0  0  0  0  0  0  0  0  0  0  0  0
   -2.7695    0.4563   -1.1443 H   0  0  0  0  0  0  0  0  0  0  0  0
   -3.1320    0.1270    1.1736 H   0  0  0  0  0  0  0  0  0  0  0  0
   -1.4249   -0.5492    1.4165 H   0  0  0  0  0  0  0  0  0  0  0  0
   -3.8201   -1.4737   -0.2663 H   0  0  0  0  0  0  0  0  0  0  0  0
   -4.4803   -3.5016    0.2085 H   0  0  0  0  0  0  0  0  0  0  0  0
   -4.2689   -3.9369    1.9444 H   0  0  0  0  0  0  0  0  0  0  0  0
   -4.8494   -2.2783    1.4522 H   0  0  0  0  0  0  0  0  0  0  0  0
   -3.5275    2.5246   -0.9901 H   0  0  0  0  0  0  0  0  0  0  0  0
   -4.4172    5.5299   -2.2212 H   0  0  0  0  0  0  0  0  0  0  0  0
   -5.1408    4.1279   -1.3915 H   0  0  0  0  0  0  0  0  0  0  0  0
   -4.9059    5.7170   -0.4809 H   0  0  0  0  0  0  0  0  0  0  0  0
    2.1612    4.3093    0.3885 H   0  0  0  0  0  0  0  0  0  0  0  0
    3.8770    2.6408    0.8056 H   0  0  0  0  0  0  0  0  0  0  0  0
    1.0190   -0.4405    0.1159 H   0  0  0  0  0  0  0  0  0  0  0  0
    5.0947    1.2231   -0.0671 H   0  0  0  0  0  0  0  0  0  0  0  0
    6.8300   -0.5105    0.3634 H   0  0  0  0  0  0  0  0  0  0  0  0
    7.3421   -2.7758    0.9726 H   0  0  0  0  0  0  0  0  0  0  0  0
    6.4767   -3.1289    2.5705 H   0  0  0  0  0  0  0  0  0  0  0  0
    5.9543   -3.8932    1.0278 H   0  0  0  0  0  0  0  0  0  0  0  0
    2.1317   -1.3868    1.5388 H   0  0  0  0  0  0  0  0  0  0  0  0
  1  2  1  0
  2  3  1  0
  3  4  1  0
  4  5  1  0
  5  6  1  0
  6  7  1  0
  7  8  1  0
  8  9  1  0
  5 10  1  0
 10 11  1  0
 11 12  1  0
 12 13  1  0
 13 14  1  0
 13 15  2  0
 11 16  2  0
 16 17  1  0
 17 18  2  0
 18 19  1  0
 19 20  2  0
 20 21  1  0
 21 22  2  0
 20 23  1  0
 23 24  2  0
 24 25  1  0
 25 26  2  0
 26 27  1  0
 26 28  1  0
 28 29  2  0
  7  3  1  0
 22 10  1  0
 29 23  1  0
 22 17  1  0
  1 30  1  0
  1 31  1  0
  1 32  1  0
  3 33  1  6
  5 34  1  6
  6 35  1  0
  6 36  1  0
  7 37  1  6
  9 38  1  0
  9 39  1  0
  9 40  1  0
 12 41  1  0
 14 42  1  0
 14 43  1  0
 14 44  1  0
 18 45  1  0
 19 46  1  0
 21 47  1  0
 24 48  1  0
 25 49  1  0
 27 50  1  0
 27 51  1  0
 27 52  1  0
 29 53  1  0
M  END
$$$$
[H]c1nc(N([H])c2c([H])c([H])c3c([H])c([H])c([H])c([H])c3c2[H])nc(N2C(=O)N([H])C([H])(c3c([H])c([H])c([H])c([H])c3[H])C([H])([H])C2([H])[H])c1Cl
     RDKit          3D

 51 55  0  0  0  0  0  0  0  0999 V2000
    2.1498    1.3417   -1.8670 O   0  0  0  0  0  0  0  0  0  0  0  0
    2.6157    0.6675   -0.9074 C   0  0  0  0  0  0  0  0  0  0  0  0
    1.7810   -0.0207    0.0131 N   0  0  0  0  0  0  0  0  0  0  0  0
    2.2589   -1.1808    0.7360 C   0  0  0  0  0  0  0  0  0  0  0  0
    3.6866   -1.5209    0.3584 C   0  0  0  0  0  0  0  0  0  0  0  0
    4.4779   -0.2552    0.3654 C   0  0  0  0  0  0  0  0  0  0  0  0
    4.0215    0.5806   -0.7238 N   0  0  0  0  0  0  0  0  0  0  0  0
    5.9318   -0.4355    0.2028 C   0  0  0  0  0  0  0  0  0  0  0  0
    6.6738    0.7060   -0.0757 C   0  0  0  0  0  0  0  0  0  0  0  0
    8.0399    0.6770   -0.2526 C   0  0  0  0  0  0  0  0  0  0  0  0
    8.7023   -0.5264   -0.1508 C   0  0  0  0  0  0  0  0  0  0  0  0
    7.9646   -1.6528    0.1247 C   0  0  0  0  0  0  0  0  0  0  0  0
    6.5932   -1.6320    0.3037 C   0  0  0  0  0  0  0  0  0  0  0  0
    0.4650    0.4369    0.2185 C   0  0  0  0  0  0  0  0  0  0  0  0
   -0.5343   -0.3915    0.0066 N   0  0  0  0  0  0  0  0  0  0  0  0
   -1.8318   -0.0162    0.1849 C   0  0  0  0  0  0  0  0  0  0  0  0
   -2.8312   -0.9814   -0.0428 N   0  0  0  0  0  0  0  0  0  0  0  0
   -4.2119   -0.7402    0.0822 C   0  0  0  0  0  0  0  0  0  0  0  0
   -5.0506   -1.8364    0.4088 C   0  0  0  0  0  0  0  0  0  0  0  0
   -6.3834   -1.6094    0.5021 C   0  0  0  0  0  0  0  0  0  0  0  0
   -6.9803   -0.3867    0.3016 C   0  0  0  0  0  0  0  0  0  0  0  0
   -8.3429   -0.2306    0.4144 C   0  0  0  0  0  0  0  0  0  0  0  0
   -8.8987    1.0195    0.2038 C   0  0  0  0  0  0  0  0  0  0  0  0
   -8.0449    2.0799   -0.1176 C   0  0  0  0  0  0  0  0  0  0  0  0
   -6.6775    1.9089   -0.2277 C   0  0  0  0  0  0  0  0  0  0  0  0
   -6.1454    0.6711   -0.0170 C   0  0  0  0  0  0  0  0  0  0  0  0
   -4.7657    0.4937   -0.1264 C   0  0  0  0  0  0  0  0  0  0  0  0
   -2.0162    1.2401    0.5862 N   0  0  0  0  0  0  0  0  0  0  0  0
   -1.0362    2.1287    0.8179 C   0  0  0  0  0  0  0  0  0  0  0  0
    0.2678    1.7241    0.6301 C   0  0  0  0  0  0  0  0  0  0  0  0
    1.6349    2.7801    0.8966 Cl  0  0  0  0  0  0  0  0  0  0  0  0
    1.5767   -2.0223    0.4822 H   0  0  0  0  0  0  0  0  0  0  0  0
    2.2123   -0.9998    1.8317 H   0  0  0  0  0  0  0  0  0  0  0  0
    3.6325   -1.9875   -0.6547 H   0  0  0  0  0  0  0  0  0  0  0  0
    4.0635   -2.2428    1.1116 H   0  0  0  0  0  0  0  0  0  0  0  0
    4.2303    0.2738    1.3287 H   0  0  0  0  0  0  0  0  0  0  0  0
    4.6541    1.1088   -1.3645 H   0  0  0  0  0  0  0  0  0  0  0  0
    6.2034    1.6803   -0.1671 H   0  0  0  0  0  0  0  0  0  0  0  0
    8.5895    1.6025   -0.4712 H   0  0  0  0  0  0  0  0  0  0  0  0
    9.7826   -0.5349   -0.2923 H   0  0  0  0  0  0  0  0  0  0  0  0
    8.5315   -2.5844    0.1966 H   0  0  0  0  0  0  0  0  0  0  0  0
    6.0316   -2.5238    0.5188 H   0  0  0  0  0  0  0  0  0  0  0  0
   -2.5666   -1.9746   -0.3351 H   0  0  0  0  0  0  0  0  0  0  0  0
   -4.5776   -2.8076    0.5679 H   0  0  0  0  0  0  0  0  0  0  0  0
   -7.0505   -2.4489    0.7544 H   0  0  0  0  0  0  0  0  0  0  0  0
   -8.9460   -1.0803    0.6635 H   0  0  0  0  0  0  0  0  0  0  0  0
   -9.9564    1.1836    0.2824 H   0  0  0  0  0  0  0  0  0  0  0  0
   -8.4657    3.0830   -0.2896 H   0  0  0  0  0  0  0  0  0  0  0  0
   -6.0447    2.7465   -0.4771 H   0  0  0  0  0  0  0  0  0  0  0  0
   -4.2081    1.3533   -0.3913 H   0  0  0  0  0  0  0  0  0  0  0  0
   -1.2062    3.1366    1.1416 H   0  0  0  0  0  0  0  0  0  0  0  0
  1  2  2  0
  2  3  1  0
  3  4  1  0
  4  5  1  0
  5  6  1  0
  6  7  1  0
  6  8  1  0
  8  9  2  0
  9 10  1  0
 10 11  2  0
 11 12  1  0
 12 13  2  0
  3 14  1  0
 14 15  2  0
 15 16  1  0
 16 17  1  0
 17 18  1  0
 18 19  2  0
 19 20  1  0
 20 21  2  0
 21 22  1  0
 22 23  2  0
 23 24  1  0
 24 25  2  0
 25 26  1  0
 26 27  2  0
 16 28  2  0
 28 29  1  0
 29 30  2  0
 30 31  1  0
  7  2  1  0
 13  8  1  0
 30 14  1  0
 27 18  1  0
 26 21  1  0
  4 32  1  0
  4 33  1  0
  5 34  1  0
  5 35  1  0
  6 36  1  0
  7 37  1  0
  9 38  1  0
 10 39  1  0
 11 40  1  0
 12 41  1  0
 13 42  1  0
 17 43  1  0
 19 44  1  0
 20 45  1  0
 22 46  1  0
 23 47  1  0
 24 48  1  0
 25 49  1  0
 27 50  1  0
 29 51  1  0
M  END
$$$$
[H]C1=C(OC([H])([H])[H])c2c([H])c(OC([H])([H])[H])c(OC([H])([H])[H])c([H])c2OC([H])([H])C2(C([H])([H])c3c([H])c([H])c([H])c([H])c3[H])C(=O)N12
     RDKit          3D

 48 51  0  0  0  0  0  0  0  0999 V2000
    2.9668    4.4559    0.0906 C   0  0  0  0  0  0  0  0  0  0  0  0
    3.6439    3.2506   -0.1788 O   0  0  0  0  0  0  0  0  0  0  0  0
    2.9701    2.0397   -0.0341 C   0  0  0  0  0  0  0  0  0  0  0  0
    1.6519    1.9846    0.3675 C   0  0  0  0  0  0  0  0  0  0  0  0
    1.0434    0.7538    0.4912 C   0  0  0  0  0  0  0  0  0  0  0  0
   -0.2636    0.9701    0.9032 O   0  0  0  0  0  0  0  0  0  0  0  0
   -1.3939    0.2789    1.3236 C   0  0  0  0  0  0  0  0  0  0  0  0
   -1.7587   -0.9299    0.5589 C   0  0  0  0  0  0  0  0  0  0  0  0
   -2.4474   -0.7488   -0.7802 C   0  0  0  0  0  0  0  0  0  0  0  0
   -3.7394   -0.0233   -0.6688 C   0  0  0  0  0  0  0  0  0  0  0  0
   -4.9215   -0.7042   -0.4604 C   0  0  0  0  0  0  0  0  0  0  0  0
   -6.1411   -0.0354   -0.3554 C   0  0  0  0  0  0  0  0  0  0  0  0
   -6.1930    1.3435   -0.4593 C   0  0  0  0  0  0  0  0  0  0  0  0
   -4.9940    2.0326   -0.6706 C   0  0  0  0  0  0  0  0  0  0  0  0
   -3.8002    1.3512   -0.7712 C   0  0  0  0  0  0  0  0  0  0  0  0
   -2.3687   -2.0386    1.3442 C   0  0  0  0  0  0  0  0  0  0  0  0
   -3.2792   -2.6132    1.9924 O   0  0  0  0  0  0  0  0  0  0  0  0
   -1.0299   -2.1111    0.8359 N   0  0  0  0  0  0  0  0  0  0  0  0
    0.3064   -2.5186    0.4913 C   0  0  0  0  0  0  0  0  0  0  0  0
    1.4191   -1.8443    0.2429 C   0  0  0  0  0  0  0  0  0  0  0  0
    2.5127   -2.6361   -0.0565 O   0  0  0  0  0  0  0  0  0  0  0  0
    2.5952   -4.0076    0.1664 C   0  0  0  0  0  0  0  0  0  0  0  0
    1.7282   -0.4144    0.2213 C   0  0  0  0  0  0  0  0  0  0  0  0
    3.0562   -0.3740   -0.1841 C   0  0  0  0  0  0  0  0  0  0  0  0
    3.6440    0.8538   -0.3016 C   0  0  0  0  0  0  0  0  0  0  0  0
    4.9592    0.9555   -0.6999 O   0  0  0  0  0  0  0  0  0  0  0  0
    5.6814   -0.2241   -0.9818 C   0  0  0  0  0  0  0  0  0  0  0  0
    2.1846    4.5893   -0.6869 H   0  0  0  0  0  0  0  0  0  0  0  0
    3.7021    5.2747    0.0329 H   0  0  0  0  0  0  0  0  0  0  0  0
    2.4828    4.3491    1.0754 H   0  0  0  0  0  0  0  0  0  0  0  0
    1.1051    2.8802    0.5811 H   0  0  0  0  0  0  0  0  0  0  0  0
   -1.2032   -0.0298    2.3947 H   0  0  0  0  0  0  0  0  0  0  0  0
   -2.2670    0.9609    1.3833 H   0  0  0  0  0  0  0  0  0  0  0  0
   -2.6299   -1.7786   -1.2038 H   0  0  0  0  0  0  0  0  0  0  0  0
   -1.8188   -0.1495   -1.4890 H   0  0  0  0  0  0  0  0  0  0  0  0
   -4.9459   -1.7650   -0.3721 H   0  0  0  0  0  0  0  0  0  0  0  0
   -7.0708   -0.5627   -0.1922 H   0  0  0  0  0  0  0  0  0  0  0  0
   -7.1244    1.8805   -0.3812 H   0  0  0  0  0  0  0  0  0  0  0  0
   -5.0143    3.1061   -0.7541 H   0  0  0  0  0  0  0  0  0  0  0  0
   -2.9014    1.9578   -0.9368 H   0  0  0  0  0  0  0  0  0  0  0  0
    0.4566   -3.5672    0.4146 H   0  0  0  0  0  0  0  0  0  0  0  0
    2.4822   -4.3106    1.2246 H   0  0  0  0  0  0  0  0  0  0  0  0
    3.6446   -4.3194   -0.1125 H   0  0  0  0  0  0  0  0  0  0  0  0
    1.9431   -4.6036   -0.5209 H   0  0  0  0  0  0  0  0  0  0  0  0
    3.5538   -1.3105   -0.3848 H   0  0  0  0  0  0  0  0  0  0  0  0
    5.2586   -0.7409   -1.8725 H   0  0  0  0  0  0  0  0  0  0  0  0
    6.7555    0.0132   -1.0882 H   0  0  0  0  0  0  0  0  0  0  0  0
    5.5584   -0.9206   -0.1256 H   0  0  0  0  0  0  0  0  0  0  0  0
  1  2  1  0
  2  3  1  0
  3  4  2  0
  4  5  1  0
  5  6  1  0
  6  7  1  0
  7  8  1  0
  8  9  1  0
  9 10  1  0
 10 11  2  0
 11 12  1  0
 12 13  2  0
 13 14  1  0
 14 15  2  0
  8 16  1  0
 16 17  2  0
 16 18  1  0
 18 19  1  0
 19 20  2  0
 20 21  1  0
 21 22  1  0
 20 23  1  0
 23 24  1  0
 24 25  2  0
 25 26  1  0
 26 27  1  0
 25  3  1  0
 23  5  2  0
 18  8  1  0
 15 10  1  0
  1 28  1  0
  1 29  1  0
  1 30  1  0
  4 31  1  0
  7 32  1  0
  7 33  1  0
  9 34  1  0
  9 35  1  0
 11 36  1  0
 12 37  1  0
 13 38  1  0
 14 39  1  0
 15 40  1  0
 19 41  1  0
 22 42  1  0
 22 43  1  0
 22 44  1  0
 24 45  1  0
 27 46  1  0
 27 47  1  0
 27 48  1  0
M  END
$$$$
[H]c1nc(N([H])c2c([H])c([H])c(C(=O)N([H])C3([H])C([H])([H])C([H])([H])N(C([H])([H])[H])C([H])([H])C3([H])[H])c([H])c2OC([H])(C([H])([H])[H])C([H])([H])[H])nc2c1N(C([H])([H])[H])C(=O)[C@@]([H])(C([H])([H])c1c([H])c([H])c([H])c([H])c1[H])N2C1([H])C([H])([H])C([H])([H])C([H])([H])C1([H])[H]
     RDKit          3D

 90 95  0  0  0  0  0  0  0  0999 V2000
    1.6633   -4.9955   -2.5146 C   0  0  0  0  0  0  0  0  0  0  0  0
    2.0122   -3.5614   -2.9236 C   0  0  0  0  0  0  0  0  0  0  0  0
    1.4302   -3.4330   -4.3473 C   0  0  0  0  0  0  0  0  0  0  0  0
    1.4602   -2.6253   -2.0807 O   0  0  0  0  0  0  0  0  0  0  0  0
    2.1573   -1.6614   -1.3811 C   0  0  0  0  0  0  0  0  0  0  0  0
    3.5258   -1.5339   -1.4563 C   0  0  0  0  0  0  0  0  0  0  0  0
    4.2178   -0.5569   -0.7458 C   0  0  0  0  0  0  0  0  0  0  0  0
    3.4790    0.2799    0.0375 C   0  0  0  0  0  0  0  0  0  0  0  0
    2.0874    0.1439    0.1089 C   0  0  0  0  0  0  0  0  0  0  0  0
    1.3726   -0.7975   -0.5692 C   0  0  0  0  0  0  0  0  0  0  0  0
   -0.0050   -1.0175   -0.5514 N   0  0  0  0  0  0  0  0  0  0  0  0
   -0.9484   -0.2316    0.1475 C   0  0  0  0  0  0  0  0  0  0  0  0
   -0.7193    0.8429    0.8955 N   0  0  0  0  0  0  0  0  0  0  0  0
   -1.6623    1.5451    1.5376 C   0  0  0  0  0  0  0  0  0  0  0  0
   -2.9951    1.1460    1.4352 C   0  0  0  0  0  0  0  0  0  0  0  0
   -4.0271    1.8640    2.1017 N   0  0  0  0  0  0  0  0  0  0  0  0
   -3.7336    3.0424    2.9149 C   0  0  0  0  0  0  0  0  0  0  0  0
   -5.3553    1.3817    1.9387 C   0  0  0  0  0  0  0  0  0  0  0  0
   -6.2257    1.6725    2.8036 O   0  0  0  0  0  0  0  0  0  0  0  0
   -5.6476    0.5613    0.7593 C   0  0  1  0  0  0  0  0  0  0  0  0
   -5.8649    1.4416   -0.4263 C   0  0  0  0  0  0  0  0  0  0  0  0
   -7.0129    2.3396   -0.1398 C   0  0  0  0  0  0  0  0  0  0  0  0
   -6.8674    3.5864    0.4540 C   0  0  0  0  0  0  0  0  0  0  0  0
   -7.9704    4.3730    0.6947 C   0  0  0  0  0  0  0  0  0  0  0  0
   -9.2504    3.9830    0.3707 C   0  0  0  0  0  0  0  0  0  0  0  0
   -9.3944    2.7400   -0.2212 C   0  0  0  0  0  0  0  0  0  0  0  0
   -8.3006    1.9438   -0.4673 C   0  0  0  0  0  0  0  0  0  0  0  0
   -4.6157   -0.4482    0.5103 N   0  0  0  0  0  0  0  0  0  0  0  0
   -4.9683   -1.7656    0.1516 C   0  0  0  0  0  0  0  0  0  0  0  0
   -5.8242   -2.4833    1.1685 C   0  0  0  0  0  0  0  0  0  0  0  0
   -5.8093   -3.8977    0.6881 C   0  0  0  0  0  0  0  0  0  0  0  0
   -4.7379   -4.0115   -0.3660 C   0  0  0  0  0  0  0  0  0  0  0  0
   -3.9050   -2.7174   -0.2336 C   0  0  0  0  0  0  0  0  0  0  0  0
   -3.2653    0.0349    0.6667 C   0  0  0  0  0  0  0  0  0  0  0  0
   -2.2822   -0.5987    0.0685 N   0  0  0  0  0  0  0  0  0  0  0  0
    5.6487   -0.4954   -0.8837 C   0  0  0  0  0  0  0  0  0  0  0  0
    6.2380   -1.1999   -1.7370 O   0  0  0  0  0  0  0  0  0  0  0  0
    6.4069    0.3643   -0.0536 N   0  0  0  0  0  0  0  0  0  0  0  0
    7.8547    0.4625   -0.1543 C   0  0  0  0  0  0  0  0  0  0  0  0
    8.5358    0.0894    1.1294 C   0  0  0  0  0  0  0  0  0  0  0  0
    8.9879    1.2930    1.9241 C   0  0  0  0  0  0  0  0  0  0  0  0
    9.9744    2.0725    1.2039 N   0  0  0  0  0  0  0  0  0  0  0  0
    9.7991    3.4594    1.5762 C   0  0  0  0  0  0  0  0  0  0  0  0
    9.7633    1.9827   -0.2395 C   0  0  0  0  0  0  0  0  0  0  0  0
    8.2855    1.8577   -0.5421 C   0  0  0  0  0  0  0  0  0  0  0  0
    1.8394   -5.6228   -3.4100 H   0  0  0  0  0  0  0  0  0  0  0  0
    2.3619   -5.3650   -1.7364 H   0  0  0  0  0  0  0  0  0  0  0  0
    0.6251   -5.1029   -2.1996 H   0  0  0  0  0  0  0  0  0  0  0  0
    3.0982   -3.5546   -3.0690 H   0  0  0  0  0  0  0  0  0  0  0  0
    2.0776   -3.9968   -5.0411 H   0  0  0  0  0  0  0  0  0  0  0  0
    0.4331   -3.9186   -4.3283 H   0  0  0  0  0  0  0  0  0  0  0  0
    1.3948   -2.3523   -4.5582 H   0  0  0  0  0  0  0  0  0  0  0  0
    4.1163   -2.2165   -2.0944 H   0  0  0  0  0  0  0  0  0  0  0  0
    3.9612    1.0665    0.6178 H   0  0  0  0  0  0  0  0  0  0  0  0
    1.5590    0.8516    0.7640 H   0  0  0  0  0  0  0  0  0  0  0  0
   -0.3926   -1.8481   -1.1070 H   0  0  0  0  0  0  0  0  0  0  0  0
   -1.4121    2.4154    2.1339 H   0  0  0  0  0  0  0  0  0  0  0  0
   -4.6842    3.4977    3.2068 H   0  0  0  0  0  0  0  0  0  0  0  0
   -3.0755    3.7421    2.3649 H   0  0  0  0  0  0  0  0  0  0  0  0
   -3.1520    2.6640    3.7959 H   0  0  0  0  0  0  0  0  0  0  0  0
   -6.6169    0.0174    0.9404 H   0  0  0  0  0  0  0  0  0  0  0  0
   -6.1155    0.8784   -1.3512 H   0  0  0  0  0  0  0  0  0  0  0  0
   -4.9818    2.1141   -0.6101 H   0  0  0  0  0  0  0  0  0  0  0  0
   -5.8668    3.8917    0.7073 H   0  0  0  0  0  0  0  0  0  0  0  0
   -7.8328    5.3356    1.1562 H   0  0  0  0  0  0  0  0  0  0  0  0
  -10.1272    4.5802    0.5494 H   0  0  0  0  0  0  0  0  0  0  0  0
  -10.4099    2.4237   -0.4816 H   0  0  0  0  0  0  0  0  0  0  0  0
   -8.4817    0.9865   -0.9314 H   0  0  0  0  0  0  0  0  0  0  0  0
   -5.6423   -1.6798   -0.7593 H   0  0  0  0  0  0  0  0  0  0  0  0
   -6.8763   -2.0972    1.0805 H   0  0  0  0  0  0  0  0  0  0  0  0
   -5.5167   -2.3316    2.1985 H   0  0  0  0  0  0  0  0  0  0  0  0
   -6.8138   -4.2057    0.2794 H   0  0  0  0  0  0  0  0  0  0  0  0
   -5.6147   -4.5716    1.5424 H   0  0  0  0  0  0  0  0  0  0  0  0
   -5.1890   -4.0673   -1.3831 H   0  0  0  0  0  0  0  0  0  0  0  0
   -4.1177   -4.8995   -0.1944 H   0  0  0  0  0  0  0  0  0  0  0  0
   -3.4121   -2.5139   -1.2071 H   0  0  0  0  0  0  0  0  0  0  0  0
   -3.1449   -2.9643    0.5062 H   0  0  0  0  0  0  0  0  0  0  0  0
    5.9613    0.9603    0.6631 H   0  0  0  0  0  0  0  0  0  0  0  0
    8.1620   -0.2273   -0.9805 H   0  0  0  0  0  0  0  0  0  0  0  0
    9.4078   -0.5570    0.8687 H   0  0  0  0  0  0  0  0  0  0  0  0
    7.8727   -0.5146    1.7684 H   0  0  0  0  0  0  0  0  0  0  0  0
    8.1258    1.9031    2.2044 H   0  0  0  0  0  0  0  0  0  0  0  0
    9.5038    0.8833    2.8341 H   0  0  0  0  0  0  0  0  0  0  0  0
    9.6801    3.5697    2.6868 H   0  0  0  0  0  0  0  0  0  0  0  0
    8.8347    3.7985    1.1459 H   0  0  0  0  0  0  0  0  0  0  0  0
   10.6512    4.0916    1.2057 H   0  0  0  0  0  0  0  0  0  0  0  0
   10.2235    2.8411   -0.7664 H   0  0  0  0  0  0  0  0  0  0  0  0
   10.2303    1.0202   -0.5528 H   0  0  0  0  0  0  0  0  0  0  0  0
    8.1694    1.9644   -1.6436 H   0  0  0  0  0  0  0  0  0  0  0  0
    7.6752    2.6384   -0.0677 H   0  0  0  0  0  0  0  0  0  0  0  0
  1  2  1  0
  2  3  1  0
  2  4  1  0
  4  5  1  0
  5  6  2  0
  6  7  1  0
  7  8  2  0
  8  9  1  0
  9 10  2  0
 10 11  1  0
 11 12  1  0
 12 13  2  0
 13 14  1  0
 14 15  2  0
 15 16  1  0
 16 17  1  0
 16 18  1  0
 18 19  2  0
 18 20  1  0
 20 21  1  0
 21 22  1  0
 22 23  2  0
 23 24  1  0
 24 25  2  0
 25 26  1  0
 26 27  2  0
 20 28  1  0
 28 29  1  0
 29 30  1  0
 30 31  1  0
 31 32  1  0
 32 33  1  0
 28 34  1  0
 34 35  2  0
  7 36  1  0
 36 37  2  0
 36 38  1  0
 38 39  1  0
 39 40  1  0
 40 41  1  0
 41 42  1  0
 42 43  1  0
 42 44  1  0
 44 45  1  0
 10  5  1  0
 35 12  1  0
 45 39  1  0
 34 15  1  0
 27 22  1  0
 33 29  1  0
  1 46  1  0
  1 47  1  0
  1 48  1  0
  2 49  1  0
  3 50  1  0
  3 51  1  0
  3 52  1  0
  6 53  1  0
  8 54  1  0
  9 55  1  0
 11 56  1  0
 14 57  1  0
 17 58  1  0
 17 59  1  0
 17 60  1  0
 20 61  1  1
 21 62  1  0
 21 63  1  0
 23 64  1  0
 24 65  1  0
 25 66  1  0
 26 67  1  0
 27 68  1  0
 29 69  1  0
 30 70  1  0
 30 71  1  0
 31 72  1  0
 31 73  1  0
 32 74  1  0
 32 75  1  0
 33 76  1  0
 33 77  1  0
 38 78  1  0
 39 79  1  0
 40 80  1  0
 40 81  1  0
 41 82  1  0
 41 83  1  0
 43 84  1  0
 43 85  1  0
 43 86  1  0
 44 87  1  0
 44 88  1  0
 45 89  1  0
 45 90  1  0
M  END
$$$$
[H]c1c(N([H])c2c([H])c(C([H])([H])[H])nn2[H])nc(N([H])c2c([H])c([H])c3c(c2[H])OC(F)(F)O3)nc1N1C([H])([H])C([H])([H])N(C([H])([H])[H])C([H])([H])C1([H])[H]
     RDKit          3D

 54 58  0  0  0  0  0  0  0  0999 V2000
   -5.8502   -3.4567   -0.9066 C   0  0  0  0  0  0  0  0  0  0  0  0
   -4.7259   -3.3236   -0.0225 N   0  0  0  0  0  0  0  0  0  0  0  0
   -3.5049   -3.6742   -0.6771 C   0  0  0  0  0  0  0  0  0  0  0  0
   -2.3149   -3.2680    0.1831 C   0  0  0  0  0  0  0  0  0  0  0  0
   -2.3144   -1.8184    0.2164 N   0  0  0  0  0  0  0  0  0  0  0  0
   -3.6006   -1.1557    0.2965 C   0  0  0  0  0  0  0  0  0  0  0  0
   -4.7023   -2.0851    0.6872 C   0  0  0  0  0  0  0  0  0  0  0  0
   -1.0999   -1.1070    0.1716 C   0  0  0  0  0  0  0  0  0  0  0  0
   -1.1350    0.2970    0.2047 C   0  0  0  0  0  0  0  0  0  0  0  0
    0.0164    1.0302    0.1635 C   0  0  0  0  0  0  0  0  0  0  0  0
    0.1823    2.4168    0.1860 N   0  0  0  0  0  0  0  0  0  0  0  0
   -0.7561    3.4617    0.2558 C   0  0  0  0  0  0  0  0  0  0  0  0
   -0.4010    4.8398    0.2687 C   0  0  0  0  0  0  0  0  0  0  0  0
   -1.5217    5.6143    0.3414 C   0  0  0  0  0  0  0  0  0  0  0  0
   -1.6373    7.1009    0.3800 C   0  0  0  0  0  0  0  0  0  0  0  0
   -2.5436    4.7666    0.3732 N   0  0  0  0  0  0  0  0  0  0  0  0
   -2.0806    3.5004    0.3222 N   0  0  0  0  0  0  0  0  0  0  0  0
    1.1614    0.2805    0.0896 N   0  0  0  0  0  0  0  0  0  0  0  0
    1.2443   -1.0180    0.0564 C   0  0  0  0  0  0  0  0  0  0  0  0
    2.4760   -1.6932   -0.0201 N   0  0  0  0  0  0  0  0  0  0  0  0
    3.7456   -1.1202   -0.0830 C   0  0  0  0  0  0  0  0  0  0  0  0
    4.0573    0.1674   -0.4278 C   0  0  0  0  0  0  0  0  0  0  0  0
    5.3732    0.6517   -0.4359 C   0  0  0  0  0  0  0  0  0  0  0  0
    6.4121   -0.1671   -0.0918 C   0  0  0  0  0  0  0  0  0  0  0  0
    7.7977    0.0186   -0.0056 O   0  0  0  0  0  0  0  0  0  0  0  0
    8.2922   -1.0531    0.7684 C   0  0  0  0  0  0  0  0  0  0  0  0
    9.5606   -1.4271    0.3436 F   0  0  0  0  0  0  0  0  0  0  0  0
    8.3170   -0.6801    2.1136 F   0  0  0  0  0  0  0  0  0  0  0  0
    7.3528   -2.0756    0.5597 O   0  0  0  0  0  0  0  0  0  0  0  0
    6.1280   -1.4660    0.2583 C   0  0  0  0  0  0  0  0  0  0  0  0
    4.8338   -1.9205    0.2602 C   0  0  0  0  0  0  0  0  0  0  0  0
    0.0710   -1.7236    0.0993 N   0  0  0  0  0  0  0  0  0  0  0  0
   -6.1271   -2.4702   -1.3451 H   0  0  0  0  0  0  0  0  0  0  0  0
   -5.5675   -4.2019   -1.6899 H   0  0  0  0  0  0  0  0  0  0  0  0
   -6.7363   -3.8980   -0.3928 H   0  0  0  0  0  0  0  0  0  0  0  0
   -3.4744   -3.1875   -1.6662 H   0  0  0  0  0  0  0  0  0  0  0  0
   -3.4493   -4.7722   -0.8319 H   0  0  0  0  0  0  0  0  0  0  0  0
   -1.3873   -3.6992   -0.1939 H   0  0  0  0  0  0  0  0  0  0  0  0
   -2.5633   -3.6091    1.2201 H   0  0  0  0  0  0  0  0  0  0  0  0
   -3.5204   -0.3845    1.1141 H   0  0  0  0  0  0  0  0  0  0  0  0
   -3.7880   -0.6648   -0.6583 H   0  0  0  0  0  0  0  0  0  0  0  0
   -4.6218   -2.2898    1.7702 H   0  0  0  0  0  0  0  0  0  0  0  0
   -5.6685   -1.5443    0.5187 H   0  0  0  0  0  0  0  0  0  0  0  0
   -2.0848    0.7873    0.2631 H   0  0  0  0  0  0  0  0  0  0  0  0
    1.2330    2.7586    0.1416 H   0  0  0  0  0  0  0  0  0  0  0  0
    0.5984    5.2069    0.2274 H   0  0  0  0  0  0  0  0  0  0  0  0
   -1.9443    7.4961   -0.6037 H   0  0  0  0  0  0  0  0  0  0  0  0
   -2.3215    7.4096    1.2028 H   0  0  0  0  0  0  0  0  0  0  0  0
   -0.6483    7.5787    0.6089 H   0  0  0  0  0  0  0  0  0  0  0  0
   -2.7413    2.7120    0.3374 H   0  0  0  0  0  0  0  0  0  0  0  0
    2.4036   -2.7650   -0.0357 H   0  0  0  0  0  0  0  0  0  0  0  0
    3.3251    0.8818   -0.7265 H   0  0  0  0  0  0  0  0  0  0  0  0
    5.5925    1.6741   -0.7119 H   0  0  0  0  0  0  0  0  0  0  0  0
    4.6580   -2.9312    0.5376 H   0  0  0  0  0  0  0  0  0  0  0  0
  1  2  1  0
  2  3  1  0
  3  4  1  0
  4  5  1  0
  5  6  1  0
  6  7  1  0
  5  8  1  0
  8  9  2  0
  9 10  1  0
 10 11  1  0
 11 12  1  0
 12 13  2  0
 13 14  1  0
 14 15  1  0
 14 16  2  0
 16 17  1  0
 10 18  2  0
 18 19  1  0
 19 20  1  0
 20 21  1  0
 21 22  2  0
 22 23  1  0
 23 24  2  0
 24 25  1  0
 25 26  1  0
 26 27  1  0
 26 28  1  0
 26 29  1  0
 29 30  1  0
 30 31  2  0
 19 32  2  0
  7  2  1  0
 32  8  1  0
 17 12  1  0
 31 21  1  0
 30 24  1  0
  1 33  1  0
  1 34  1  0
  1 35  1  0
  3 36  1  0
  3 37  1  0
  4 38  1  0
  4 39  1  0
  6 40  1  0
  6 41  1  0
  7 42  1  0
  7 43  1  0
  9 44  1  0
 11 45  1  0
 13 46  1  0
 15 47  1  0
 15 48  1  0
 15 49  1  0
 17 50  1  0
 20 51  1  0
 22 52  1  0
 23 53  1  0
 31 54  1  0
M  END
$$$$
[H]/C(=C(/[H])c1c([H])c([H])c(C(=O)N2C([H])([H])C([H])([H])N([H])C([H])([H])C2([H])[H])c([H])c1-c1c([H])c([H])c([H])c([H])c1[H])c1nc(-c2c([H])c([H])c([H])c([H])c2[H])n([H])n1
     RDKit          3D

 58 62  0  0  0  0  0  0  0  0999 V2000
   -4.9474   -1.1424   -1.0053 O   0  0  0  0  0  0  0  0  0  0  0  0
   -4.4287   -0.1260   -0.3135 C   0  0  0  0  0  0  0  0  0  0  0  0
   -5.4117    0.7443    0.1194 N   0  0  0  0  0  0  0  0  0  0  0  0
   -6.8360    0.4523   -0.2171 C   0  0  0  0  0  0  0  0  0  0  0  0
   -7.4058    1.6382   -0.9470 C   0  0  0  0  0  0  0  0  0  0  0  0
   -7.1185    2.8526   -0.2538 N   0  0  0  0  0  0  0  0  0  0  0  0
   -6.5827    2.6099    1.0585 C   0  0  0  0  0  0  0  0  0  0  0  0
   -5.2195    1.9325    0.8761 C   0  0  0  0  0  0  0  0  0  0  0  0
   -2.9923   -0.1610   -0.1747 C   0  0  0  0  0  0  0  0  0  0  0  0
   -2.2767    0.7780    0.4991 C   0  0  0  0  0  0  0  0  0  0  0  0
   -0.9166    0.6570    0.5793 C   0  0  0  0  0  0  0  0  0  0  0  0
   -0.2061   -0.4088   -0.0104 C   0  0  0  0  0  0  0  0  0  0  0  0
    1.2177   -0.3687    0.1683 C   0  0  0  0  0  0  0  0  0  0  0  0
    2.1154   -1.3114    0.1221 C   0  0  0  0  0  0  0  0  0  0  0  0
    3.5287   -1.0057    0.3342 C   0  0  0  0  0  0  0  0  0  0  0  0
    4.5434   -1.8784    0.3126 N   0  0  0  0  0  0  0  0  0  0  0  0
    5.6861   -1.2720    0.5415 N   0  0  0  0  0  0  0  0  0  0  0  0
    5.4243    0.0316    0.7189 C   0  0  0  0  0  0  0  0  0  0  0  0
    4.0991    0.1793    0.5891 N   0  0  0  0  0  0  0  0  0  0  0  0
    6.3943    1.0786    0.9982 C   0  0  0  0  0  0  0  0  0  0  0  0
    7.7427    0.7673    1.1050 C   0  0  0  0  0  0  0  0  0  0  0  0
    8.6764    1.7419    1.3685 C   0  0  0  0  0  0  0  0  0  0  0  0
    8.2855    3.0442    1.5306 C   0  0  0  0  0  0  0  0  0  0  0  0
    6.9473    3.3579    1.4254 C   0  0  0  0  0  0  0  0  0  0  0  0
    6.0070    2.3917    1.1625 C   0  0  0  0  0  0  0  0  0  0  0  0
   -0.8976   -1.3534   -0.6916 C   0  0  0  0  0  0  0  0  0  0  0  0
   -2.2865   -1.2255   -0.7676 C   0  0  0  0  0  0  0  0  0  0  0  0
   -0.2922   -2.4406   -1.4897 C   0  0  0  0  0  0  0  0  0  0  0  0
    0.5229   -2.2052   -2.5785 C   0  0  0  0  0  0  0  0  0  0  0  0
    1.0332   -3.2559   -3.3041 C   0  0  0  0  0  0  0  0  0  0  0  0
    0.7602   -4.5654   -2.9846 C   0  0  0  0  0  0  0  0  0  0  0  0
   -0.0487   -4.8174   -1.9049 C   0  0  0  0  0  0  0  0  0  0  0  0
   -0.5585   -3.7710   -1.1801 C   0  0  0  0  0  0  0  0  0  0  0  0
   -6.8880   -0.4618   -0.8485 H   0  0  0  0  0  0  0  0  0  0  0  0
   -7.3499    0.3286    0.7485 H   0  0  0  0  0  0  0  0  0  0  0  0
   -7.0291    1.6641   -2.0115 H   0  0  0  0  0  0  0  0  0  0  0  0
   -8.5086    1.5544   -1.0480 H   0  0  0  0  0  0  0  0  0  0  0  0
   -6.4333    3.4242   -0.7845 H   0  0  0  0  0  0  0  0  0  0  0  0
   -7.2377    2.0722    1.7376 H   0  0  0  0  0  0  0  0  0  0  0  0
   -6.3259    3.6124    1.5122 H   0  0  0  0  0  0  0  0  0  0  0  0
   -4.8133    1.6651    1.8954 H   0  0  0  0  0  0  0  0  0  0  0  0
   -4.6126    2.7144    0.3628 H   0  0  0  0  0  0  0  0  0  0  0  0
   -2.7158    1.6324    0.9883 H   0  0  0  0  0  0  0  0  0  0  0  0
   -0.3818    1.4302    1.1302 H   0  0  0  0  0  0  0  0  0  0  0  0
    1.6667    0.6395    0.3674 H   0  0  0  0  0  0  0  0  0  0  0  0
    1.8354   -2.3187   -0.0123 H   0  0  0  0  0  0  0  0  0  0  0  0
    6.6542   -1.7142    0.5830 H   0  0  0  0  0  0  0  0  0  0  0  0
    8.0208   -0.2517    0.9749 H   0  0  0  0  0  0  0  0  0  0  0  0
    9.7338    1.5123    1.4545 H   0  0  0  0  0  0  0  0  0  0  0  0
    9.0018    3.8488    1.7418 H   0  0  0  0  0  0  0  0  0  0  0  0
    6.6244    4.3986    1.5537 H   0  0  0  0  0  0  0  0  0  0  0  0
    4.9460    2.6554    1.0814 H   0  0  0  0  0  0  0  0  0  0  0  0
   -2.8039   -1.9855   -1.3056 H   0  0  0  0  0  0  0  0  0  0  0  0
    0.7287   -1.1670   -2.8174 H   0  0  0  0  0  0  0  0  0  0  0  0
    1.6772   -3.0313   -4.1628 H   0  0  0  0  0  0  0  0  0  0  0  0
    1.1491   -5.4083   -3.5392 H   0  0  0  0  0  0  0  0  0  0  0  0
   -0.2858   -5.8239   -1.6226 H   0  0  0  0  0  0  0  0  0  0  0  0
   -1.2115   -3.9385   -0.3071 H   0  0  0  0  0  0  0  0  0  0  0  0
  1  2  2  0
  2  3  1  0
  3  4  1  0
  4  5  1  0
  5  6  1  0
  6  7  1  0
  7  8  1  0
  2  9  1  0
  9 10  2  0
 10 11  1  0
 11 12  2  0
 12 13  1  0
 13 14  2  0
 14 15  1  0
 15 16  2  0
 16 17  1  0
 17 18  1  0
 18 19  2  0
 18 20  1  0
 20 21  2  0
 21 22  1  0
 22 23  2  0
 23 24  1  0
 24 25  2  0
 12 26  1  0
 26 27  2  0
 26 28  1  0
 28 29  2  0
 29 30  1  0
 30 31  2  0
 31 32  1  0
 32 33  2  0
  8  3  1  0
 27  9  1  0
 33 28  1  0
 19 15  1  0
 25 20  1  0
  4 34  1  0
  4 35  1  0
  5 36  1  0
  5 37  1  0
  6 38  1  0
  7 39  1  0
  7 40  1  0
  8 41  1  0
  8 42  1  0
 10 43  1  0
 11 44  1  0
 13 45  1  0
 14 46  1  0
 17 47  1  0
 21 48  1  0
 22 49  1  0
 23 50  1  0
 24 51  1  0
 25 52  1  0
 27 53  1  0
 29 54  1  0
 30 55  1  0
 31 56  1  0
 32 57  1  0
 33 58  1  0
M  END
$$$$
[H]OC1([H])c2c([H])c(N([H])c3nc4c([H])c([H])c5c(c4n3C([H])([H])[H])C3(C(=O)N(C(=O)OC([H])([H])C([H])([H])[H])C5=O)C([H])([H])C3([H])[H])c([H])c([H])c2C([H])([H])C1([H])[H]
     RDKit          3D

 58 63  0  0  0  0  0  0  0  0999 V2000
    9.0106    0.5251   -0.0714 C   0  0  0  0  0  0  0  0  0  0  0  0
    8.1649    1.7654   -0.2767 C   0  0  0  0  0  0  0  0  0  0  0  0
    6.8014    1.5325   -0.0226 O   0  0  0  0  0  0  0  0  0  0  0  0
    6.0390    0.6175   -0.7001 C   0  0  0  0  0  0  0  0  0  0  0  0
    6.5580   -0.0680   -1.6053 O   0  0  0  0  0  0  0  0  0  0  0  0
    4.6361    0.3890   -0.4271 N   0  0  0  0  0  0  0  0  0  0  0  0
    3.8845   -0.5489   -1.2080 C   0  0  0  0  0  0  0  0  0  0  0  0
    4.1969   -0.7806   -2.3889 O   0  0  0  0  0  0  0  0  0  0  0  0
    2.7227   -1.2103   -0.5050 C   0  0  0  0  0  0  0  0  0  0  0  0
    3.3527   -1.8438    0.8160 C   0  0  0  0  0  0  0  0  0  0  0  0
    2.7024   -2.6090   -0.2107 C   0  0  0  0  0  0  0  0  0  0  0  0
    1.8411   -0.1084   -0.0314 C   0  0  0  0  0  0  0  0  0  0  0  0
    2.5075    0.8297    0.7360 C   0  0  0  0  0  0  0  0  0  0  0  0
    1.7394    1.7489    1.4815 C   0  0  0  0  0  0  0  0  0  0  0  0
    0.3753    1.6810    1.4064 C   0  0  0  0  0  0  0  0  0  0  0  0
   -0.2520    0.7403    0.6193 C   0  0  0  0  0  0  0  0  0  0  0  0
   -1.5404    0.4821    0.3297 N   0  0  0  0  0  0  0  0  0  0  0  0
   -1.6628   -0.5156   -0.5331 C   0  0  0  0  0  0  0  0  0  0  0  0
   -2.8060   -1.1262   -1.1090 N   0  0  0  0  0  0  0  0  0  0  0  0
   -4.1534   -0.7868   -0.8642 C   0  0  0  0  0  0  0  0  0  0  0  0
   -5.1669   -1.3027   -1.6865 C   0  0  0  0  0  0  0  0  0  0  0  0
   -6.4896   -0.9964   -1.4591 C   0  0  0  0  0  0  0  0  0  0  0  0
   -6.8793   -0.1761   -0.4230 C   0  0  0  0  0  0  0  0  0  0  0  0
   -8.1977    0.3161    0.0468 C   0  0  0  0  0  0  0  0  0  0  0  0
   -7.8538    1.5786    0.8236 C   0  0  0  0  0  0  0  0  0  0  0  0
   -6.5390    1.1984    1.4533 C   0  0  0  0  0  0  0  0  0  0  0  0
   -5.7407    2.3345    1.6946 O   0  0  0  0  0  0  0  0  0  0  0  0
   -5.9201    0.3397    0.3922 C   0  0  0  0  0  0  0  0  0  0  0  0
   -4.5734    0.0172    0.1469 C   0  0  0  0  0  0  0  0  0  0  0  0
   -0.3860   -0.9459   -0.8352 N   0  0  0  0  0  0  0  0  0  0  0  0
   -0.0437   -1.9454   -1.7986 C   0  0  0  0  0  0  0  0  0  0  0  0
    0.4678   -0.1915   -0.1332 C   0  0  0  0  0  0  0  0  0  0  0  0
    3.9464    1.1136    0.5802 C   0  0  0  0  0  0  0  0  0  0  0  0
    4.5282    1.9423    1.2908 O   0  0  0  0  0  0  0  0  0  0  0  0
    8.6923   -0.0749    0.7928 H   0  0  0  0  0  0  0  0  0  0  0  0
    9.0028   -0.0991   -0.9826 H   0  0  0  0  0  0  0  0  0  0  0  0
   10.0686    0.8319    0.0949 H   0  0  0  0  0  0  0  0  0  0  0  0
    8.5084    2.4997    0.4962 H   0  0  0  0  0  0  0  0  0  0  0  0
    8.3483    2.1621   -1.2885 H   0  0  0  0  0  0  0  0  0  0  0  0
    2.8248   -1.6826    1.7547 H   0  0  0  0  0  0  0  0  0  0  0  0
    4.4284   -1.9089    0.8957 H   0  0  0  0  0  0  0  0  0  0  0  0
    1.8016   -3.1507    0.0622 H   0  0  0  0  0  0  0  0  0  0  0  0
    3.3419   -3.2434   -0.9092 H   0  0  0  0  0  0  0  0  0  0  0  0
    2.2582    2.4823    2.0923 H   0  0  0  0  0  0  0  0  0  0  0  0
   -0.2608    2.3775    1.9738 H   0  0  0  0  0  0  0  0  0  0  0  0
   -2.6848   -1.9397   -1.8021 H   0  0  0  0  0  0  0  0  0  0  0  0
   -4.8711   -1.9494   -2.5067 H   0  0  0  0  0  0  0  0  0  0  0  0
   -7.2169   -1.4357   -2.1408 H   0  0  0  0  0  0  0  0  0  0  0  0
   -8.5980   -0.4621    0.7386 H   0  0  0  0  0  0  0  0  0  0  0  0
   -8.8788    0.5616   -0.7671 H   0  0  0  0  0  0  0  0  0  0  0  0
   -8.6248    1.8504    1.5522 H   0  0  0  0  0  0  0  0  0  0  0  0
   -7.6725    2.3776    0.0812 H   0  0  0  0  0  0  0  0  0  0  0  0
   -6.6387    0.5693    2.3422 H   0  0  0  0  0  0  0  0  0  0  0  0
   -5.0507    2.3484    0.9971 H   0  0  0  0  0  0  0  0  0  0  0  0
   -3.8953    0.4609    0.8423 H   0  0  0  0  0  0  0  0  0  0  0  0
   -0.8648   -1.8900   -2.5899 H   0  0  0  0  0  0  0  0  0  0  0  0
   -0.1196   -2.9864   -1.4665 H   0  0  0  0  0  0  0  0  0  0  0  0
    0.8315   -1.6950   -2.4324 H   0  0  0  0  0  0  0  0  0  0  0  0
  1  2  1  0
  2  3  1  0
  3  4  1  0
  4  5  2  0
  4  6  1  0
  6  7  1  0
  7  8  2  0
  7  9  1  0
  9 10  1  0
 10 11  1  0
  9 12  1  0
 12 13  2  0
 13 14  1  0
 14 15  2  0
 15 16  1  0
 16 17  1  0
 17 18  2  0
 18 19  1  0
 19 20  1  0
 20 21  2  0
 21 22  1  0
 22 23  2  0
 23 24  1  0
 24 25  1  0
 25 26  1  0
 26 27  1  0
 26 28  1  0
 28 29  2  0
 18 30  1  0
 30 31  1  0
 30 32  1  0
 13 33  1  0
 33 34  2  0
 33  6  1  0
 11  9  1  0
 32 12  1  0
 32 16  2  0
 29 20  1  0
 28 23  1  0
  1 35  1  0
  1 36  1  0
  1 37  1  0
  2 38  1  0
  2 39  1  0
 10 40  1  0
 10 41  1  0
 11 42  1  0
 11 43  1  0
 14 44  1  0
 15 45  1  0
 19 46  1  0
 21 47  1  0
 22 48  1  0
 24 49  1  0
 24 50  1  0
 25 51  1  0
 25 52  1  0
 26 53  1  0
 27 54  1  0
 29 55  1  0
 31 56  1  0
 31 57  1  0
 31 58  1  0
M  END
$$$$
[H]c1nc(N([H])c2nc(N([H])[H])nc(OC([H])([H])C([H])([H])N(C([H])([H])[H])C([H])([H])[H])c2[H])sc1-c1c([H])c([H])c(OC([H])([H])C2([H])C([H])([H])OC2([H])[H])c([H])c1[H]
     RDKit          3D

 57 60  0  0  0  0  0  0  0  0999 V2000
   10.0020   -0.0645    1.3106 C   0  0  0  0  0  0  0  0  0  0  0  0
    8.8229    0.7242    1.1452 N   0  0  0  0  0  0  0  0  0  0  0  0
    8.9125    1.7661    0.1710 C   0  0  0  0  0  0  0  0  0  0  0  0
    7.5910   -0.0358    1.1020 C   0  0  0  0  0  0  0  0  0  0  0  0
    7.4716   -0.8777   -0.1224 C   0  0  0  0  0  0  0  0  0  0  0  0
    6.2963   -1.6205   -0.1843 O   0  0  0  0  0  0  0  0  0  0  0  0
    5.0015   -1.1881   -0.2197 C   0  0  0  0  0  0  0  0  0  0  0  0
    3.9174   -2.0497   -0.2734 C   0  0  0  0  0  0  0  0  0  0  0  0
    2.6132   -1.5738   -0.3096 C   0  0  0  0  0  0  0  0  0  0  0  0
    1.5012   -2.4396   -0.3573 N   0  0  0  0  0  0  0  0  0  0  0  0
    0.1909   -1.8311   -0.3937 C   0  0  0  0  0  0  0  0  0  0  0  0
   -0.1121   -0.5400   -0.4004 N   0  0  0  0  0  0  0  0  0  0  0  0
   -1.3508   -0.1740   -0.4279 C   0  0  0  0  0  0  0  0  0  0  0  0
   -2.3073   -1.1572   -0.4494 C   0  0  0  0  0  0  0  0  0  0  0  0
   -1.3474   -2.5682   -0.4286 S   0  0  0  0  0  0  0  0  0  0  0  0
   -3.7725   -0.9957   -0.4766 C   0  0  0  0  0  0  0  0  0  0  0  0
   -4.6073   -2.0618   -0.4816 C   0  0  0  0  0  0  0  0  0  0  0  0
   -5.9667   -1.8716   -0.5076 C   0  0  0  0  0  0  0  0  0  0  0  0
   -6.5502   -0.5874   -0.5294 C   0  0  0  0  0  0  0  0  0  0  0  0
   -7.9082   -0.5108   -0.5560 O   0  0  0  0  0  0  0  0  0  0  0  0
   -8.7007    0.6196   -0.5595 C   0  0  0  0  0  0  0  0  0  0  0  0
   -8.5949    1.4893    0.6539 C   0  0  0  0  0  0  0  0  0  0  0  0
   -8.9664    0.7680    1.9339 C   0  0  0  0  0  0  0  0  0  0  0  0
  -10.3088    1.0952    1.6481 O   0  0  0  0  0  0  0  0  0  0  0  0
   -9.9278    2.2179    0.9265 C   0  0  0  0  0  0  0  0  0  0  0  0
   -5.6840    0.4784   -0.5245 C   0  0  0  0  0  0  0  0  0  0  0  0
   -4.3138    0.2656   -0.4979 C   0  0  0  0  0  0  0  0  0  0  0  0
    2.4637   -0.2314   -0.2897 N   0  0  0  0  0  0  0  0  0  0  0  0
    3.4880    0.6366   -0.2379 C   0  0  0  0  0  0  0  0  0  0  0  0
    3.2618    2.0592   -0.2201 N   0  0  0  0  0  0  0  0  0  0  0  0
    4.7234    0.1192   -0.2048 N   0  0  0  0  0  0  0  0  0  0  0  0
    9.8121   -1.1569    1.3660 H   0  0  0  0  0  0  0  0  0  0  0  0
   10.4986    0.2220    2.2814 H   0  0  0  0  0  0  0  0  0  0  0  0
   10.7784    0.1541    0.5215 H   0  0  0  0  0  0  0  0  0  0  0  0
    8.0284    2.4320    0.3045 H   0  0  0  0  0  0  0  0  0  0  0  0
    9.0587    1.4134   -0.8601 H   0  0  0  0  0  0  0  0  0  0  0  0
    9.7874    2.4084    0.4747 H   0  0  0  0  0  0  0  0  0  0  0  0
    7.6284   -0.7216    1.9920 H   0  0  0  0  0  0  0  0  0  0  0  0
    6.7632    0.6778    1.1642 H   0  0  0  0  0  0  0  0  0  0  0  0
    7.4883   -0.2493   -1.0627 H   0  0  0  0  0  0  0  0  0  0  0  0
    8.3173   -1.5910   -0.2395 H   0  0  0  0  0  0  0  0  0  0  0  0
    4.0870   -3.1060   -0.2873 H   0  0  0  0  0  0  0  0  0  0  0  0
    1.5993   -3.4627   -0.3664 H   0  0  0  0  0  0  0  0  0  0  0  0
   -1.6550    0.8963   -0.4350 H   0  0  0  0  0  0  0  0  0  0  0  0
   -4.1816   -3.0782   -0.4641 H   0  0  0  0  0  0  0  0  0  0  0  0
   -6.6383   -2.7346   -0.5122 H   0  0  0  0  0  0  0  0  0  0  0  0
   -9.7731    0.2583   -0.6681 H   0  0  0  0  0  0  0  0  0  0  0  0
   -8.5665    1.2253   -1.5094 H   0  0  0  0  0  0  0  0  0  0  0  0
   -7.8063    2.2212    0.7392 H   0  0  0  0  0  0  0  0  0  0  0  0
   -8.7500   -0.3044    1.8897 H   0  0  0  0  0  0  0  0  0  0  0  0
   -8.6136    1.2688    2.8552 H   0  0  0  0  0  0  0  0  0  0  0  0
  -10.4310    2.3754   -0.0363 H   0  0  0  0  0  0  0  0  0  0  0  0
   -9.8085    3.1519    1.4986 H   0  0  0  0  0  0  0  0  0  0  0  0
   -6.0833    1.4929   -0.5573 H   0  0  0  0  0  0  0  0  0  0  0  0
   -3.6911    1.1480   -0.4947 H   0  0  0  0  0  0  0  0  0  0  0  0
    3.7939    2.7115    0.3723 H   0  0  0  0  0  0  0  0  0  0  0  0
    2.5186    2.4871   -0.8349 H   0  0  0  0  0  0  0  0  0  0  0  0
  1  2  1  0
  2  3  1  0
  2  4  1  0
  4  5  1  0
  5  6  1  0
  6  7  1  0
  7  8  2  0
  8  9  1  0
  9 10  1  0
 10 11  1  0
 11 12  2  0
 12 13  1  0
 13 14  2  0
 14 15  1  0
 14 16  1  0
 16 17  2  0
 17 18  1  0
 18 19  2  0
 19 20  1  0
 20 21  1  0
 21 22  1  0
 22 23  1  0
 23 24  1  0
 24 25  1  0
 19 26  1  0
 26 27  2  0
  9 28  2  0
 28 29  1  0
 29 30  1  0
 29 31  2  0
 31  7  1  0
 15 11  1  0
 27 16  1  0
 25 22  1  0
  1 32  1  0
  1 33  1  0
  1 34  1  0
  3 35  1  0
  3 36  1  0
  3 37  1  0
  4 38  1  0
  4 39  1  0
  5 40  1  0
  5 41  1  0
  8 42  1  0
 10 43  1  0
 13 44  1  0
 17 45  1  0
 18 46  1  0
 21 47  1  0
 21 48  1  0
 22 49  1  0
 23 50  1  0
 23 51  1  0
 25 52  1  0
 25 53  1  0
 26 54  1  0
 27 55  1  0
 30 56  1  0
 30 57  1  0
M  END
$$$$
[H]c1nc(-c2c([H])c([H])c([H])c(C#N)c2[H])nc2c1N([H])C(=O)[C@@]([H])(C([H])([H])C([H])([H])[H])N2C1([H])C([H])([H])C([H])([H])C([H])([H])C1([H])[H]
     RDKit          3D

 47 50  0  0  0  0  0  0  0  0999 V2000
   -2.9321    3.5719   -0.5065 C   0  0  0  0  0  0  0  0  0  0  0  0
   -1.9297    2.4447   -0.5807 C   0  0  0  0  0  0  0  0  0  0  0  0
   -2.3827    1.2592    0.2809 C   0  0  1  0  0  0  0  0  0  0  0  0
   -1.4120    0.2144    0.1862 N   0  0  0  0  0  0  0  0  0  0  0  0
   -1.6454   -1.0799   -0.3981 C   0  0  0  0  0  0  0  0  0  0  0  0
   -2.0518   -0.9612   -1.8703 C   0  0  0  0  0  0  0  0  0  0  0  0
   -2.7164   -2.3048   -2.0901 C   0  0  0  0  0  0  0  0  0  0  0  0
   -3.5988   -2.4231   -0.8696 C   0  0  0  0  0  0  0  0  0  0  0  0
   -2.7409   -1.8569    0.2360 C   0  0  0  0  0  0  0  0  0  0  0  0
   -0.1073    0.4838    0.7161 C   0  0  0  0  0  0  0  0  0  0  0  0
    0.9950   -0.1390    0.2247 N   0  0  0  0  0  0  0  0  0  0  0  0
    2.2128    0.1221    0.7299 C   0  0  0  0  0  0  0  0  0  0  0  0
    2.3294    1.0184    1.7405 N   0  0  0  0  0  0  0  0  0  0  0  0
    1.2840    1.6672    2.2709 C   0  0  0  0  0  0  0  0  0  0  0  0
    0.0444    1.3905    1.7444 C   0  0  0  0  0  0  0  0  0  0  0  0
   -1.1103    2.0396    2.2556 N   0  0  0  0  0  0  0  0  0  0  0  0
   -2.3935    1.7341    1.6896 C   0  0  0  0  0  0  0  0  0  0  0  0
   -3.4473    1.8690    2.3667 O   0  0  0  0  0  0  0  0  0  0  0  0
    3.4236   -0.5313    0.2240 C   0  0  0  0  0  0  0  0  0  0  0  0
    3.3713   -1.4503   -0.8001 C   0  0  0  0  0  0  0  0  0  0  0  0
    4.5297   -2.0702   -1.2784 C   0  0  0  0  0  0  0  0  0  0  0  0
    5.7585   -1.7798   -0.7387 C   0  0  0  0  0  0  0  0  0  0  0  0
    5.8167   -0.8613    0.2860 C   0  0  0  0  0  0  0  0  0  0  0  0
    4.6588   -0.2445    0.7609 C   0  0  0  0  0  0  0  0  0  0  0  0
    7.1039   -0.5687    0.8384 C   0  0  0  0  0  0  0  0  0  0  0  0
    8.1391   -0.3323    1.2987 N   0  0  0  0  0  0  0  0  0  0  0  0
   -2.4713    4.5661   -0.6438 H   0  0  0  0  0  0  0  0  0  0  0  0
   -3.3448    3.5653    0.5369 H   0  0  0  0  0  0  0  0  0  0  0  0
   -3.8021    3.4036   -1.1695 H   0  0  0  0  0  0  0  0  0  0  0  0
   -0.9585    2.8348   -0.2745 H   0  0  0  0  0  0  0  0  0  0  0  0
   -1.8063    2.0676   -1.6350 H   0  0  0  0  0  0  0  0  0  0  0  0
   -3.3813    0.9896   -0.0836 H   0  0  0  0  0  0  0  0  0  0  0  0
   -0.7255   -1.6973   -0.3974 H   0  0  0  0  0  0  0  0  0  0  0  0
   -2.7931   -0.1595   -2.0081 H   0  0  0  0  0  0  0  0  0  0  0  0
   -1.1637   -0.8467   -2.5049 H   0  0  0  0  0  0  0  0  0  0  0  0
   -1.9896   -3.1260   -2.0595 H   0  0  0  0  0  0  0  0  0  0  0  0
   -3.3212   -2.3135   -3.0243 H   0  0  0  0  0  0  0  0  0  0  0  0
   -3.8852   -3.4912   -0.6774 H   0  0  0  0  0  0  0  0  0  0  0  0
   -4.5151   -1.8274   -1.0469 H   0  0  0  0  0  0  0  0  0  0  0  0
   -3.3907   -1.2713    0.9104 H   0  0  0  0  0  0  0  0  0  0  0  0
   -2.3841   -2.7303    0.8408 H   0  0  0  0  0  0  0  0  0  0  0  0
    1.4548    2.3669    3.0740 H   0  0  0  0  0  0  0  0  0  0  0  0
   -1.0353    2.7352    3.0377 H   0  0  0  0  0  0  0  0  0  0  0  0
    2.4090   -1.6903   -1.2366 H   0  0  0  0  0  0  0  0  0  0  0  0
    4.5019   -2.7925   -2.0810 H   0  0  0  0  0  0  0  0  0  0  0  0
    6.6655   -2.2622   -1.1100 H   0  0  0  0  0  0  0  0  0  0  0  0
    4.7374    0.4678    1.5614 H   0  0  0  0  0  0  0  0  0  0  0  0
  1  2  1  0
  2  3  1  0
  3  4  1  0
  4  5  1  0
  5  6  1  0
  6  7  1  0
  7  8  1  0
  8  9  1  0
  4 10  1  0
 10 11  2  0
 11 12  1  0
 12 13  2  0
 13 14  1  0
 14 15  2  0
 15 16  1  0
 16 17  1  0
 17 18  2  0
 12 19  1  0
 19 20  2  0
 20 21  1  0
 21 22  2  0
 22 23  1  0
 23 24  2  0
 23 25  1  0
 25 26  3  0
 17  3  1  0
 24 19  1  0
  9  5  1  0
 15 10  1  0
  1 27  1  0
  1 28  1  0
  1 29  1  0
  2 30  1  0
  2 31  1  0
  3 32  1  6
  5 33  1  0
  6 34  1  0
  6 35  1  0
  7 36  1  0
  7 37  1  0
  8 38  1  0
  8 39  1  0
  9 40  1  0
  9 41  1  0
 14 42  1  0
 16 43  1  0
 20 44  1  0
 21 45  1  0
 22 46  1  0
 24 47  1  0
M  END
$$$$
[H]c1nn([H])c([H])c1-c1c([H])c([H])c2c(nc([H])n2-c2sc(C(=O)N([H])[H])c(O[C@@]([H])(c3c([H])c([H])c([H])c([H])c3C(F)(F)F)C([H])([H])[H])c2[H])c1[H]
     RDKit          3D

 53 57  0  0  0  0  0  0  0  0999 V2000
   -2.9258    1.3579    1.7662 C   0  0  0  0  0  0  0  0  0  0  0  0
   -3.3544    0.5251    0.5022 C   0  0  1  0  0  0  0  0  0  0  0  0
   -2.8211   -0.7293    0.5917 O   0  0  0  0  0  0  0  0  0  0  0  0
   -1.4833   -0.9889    0.1964 C   0  0  0  0  0  0  0  0  0  0  0  0
   -0.6100   -0.1014   -0.2727 C   0  0  0  0  0  0  0  0  0  0  0  0
    0.6517   -0.5460   -0.6071 C   0  0  0  0  0  0  0  0  0  0  0  0
    0.5671   -2.2077   -0.2476 S   0  0  0  0  0  0  0  0  0  0  0  0
   -1.0368   -2.3005    0.3082 C   0  0  0  0  0  0  0  0  0  0  0  0
   -1.7443   -3.4869    0.7812 C   0  0  0  0  0  0  0  0  0  0  0  0
   -1.1045   -4.7344    0.8169 N   0  0  0  0  0  0  0  0  0  0  0  0
   -2.9307   -3.3657    1.1528 O   0  0  0  0  0  0  0  0  0  0  0  0
    1.7370    0.2396   -1.1293 N   0  0  0  0  0  0  0  0  0  0  0  0
    1.7588    1.1324   -2.1233 C   0  0  0  0  0  0  0  0  0  0  0  0
    3.0030    1.6356   -2.2759 N   0  0  0  0  0  0  0  0  0  0  0  0
    3.7913    1.0662   -1.3765 C   0  0  0  0  0  0  0  0  0  0  0  0
    5.1307    1.1497   -1.0264 C   0  0  0  0  0  0  0  0  0  0  0  0
    5.7052    0.4199   -0.0174 C   0  0  0  0  0  0  0  0  0  0  0  0
    4.8850   -0.4455    0.6816 C   0  0  0  0  0  0  0  0  0  0  0  0
    3.5513   -0.5621    0.3705 C   0  0  0  0  0  0  0  0  0  0  0  0
    2.9849    0.1804   -0.6501 C   0  0  0  0  0  0  0  0  0  0  0  0
    7.1200    0.5568    0.2980 C   0  0  0  0  0  0  0  0  0  0  0  0
    7.6752    0.4003    1.5579 C   0  0  0  0  0  0  0  0  0  0  0  0
    8.9982    0.6057    1.4361 N   0  0  0  0  0  0  0  0  0  0  0  0
    9.3281    0.8823    0.1888 N   0  0  0  0  0  0  0  0  0  0  0  0
    8.1860    0.8571   -0.5284 C   0  0  0  0  0  0  0  0  0  0  0  0
   -4.7612    0.7251    0.2410 C   0  0  0  0  0  0  0  0  0  0  0  0
   -5.5474    1.4123    1.1819 C   0  0  0  0  0  0  0  0  0  0  0  0
   -6.8804    1.6740    1.0193 C   0  0  0  0  0  0  0  0  0  0  0  0
   -7.5113    1.2471   -0.1297 C   0  0  0  0  0  0  0  0  0  0  0  0
   -6.7659    0.5790   -1.0526 C   0  0  0  0  0  0  0  0  0  0  0  0
   -5.3879    0.3037   -0.8921 C   0  0  0  0  0  0  0  0  0  0  0  0
   -4.6780   -0.4421   -1.9157 C   0  0  0  0  0  0  0  0  0  0  0  0
   -5.5933   -0.6421   -2.9896 F   0  0  0  0  0  0  0  0  0  0  0  0
   -3.6290    0.1908   -2.5256 F   0  0  0  0  0  0  0  0  0  0  0  0
   -4.4348   -1.7686   -1.5852 F   0  0  0  0  0  0  0  0  0  0  0  0
   -3.3646    0.9833    2.6692 H   0  0  0  0  0  0  0  0  0  0  0  0
   -1.8189    1.3912    1.7530 H   0  0  0  0  0  0  0  0  0  0  0  0
   -3.2794    2.3761    1.5509 H   0  0  0  0  0  0  0  0  0  0  0  0
   -2.7698    1.0788   -0.2653 H   0  0  0  0  0  0  0  0  0  0  0  0
   -0.8641    0.9786   -0.3982 H   0  0  0  0  0  0  0  0  0  0  0  0
   -1.2979   -5.4253    1.5872 H   0  0  0  0  0  0  0  0  0  0  0  0
   -0.4126   -5.0504    0.0997 H   0  0  0  0  0  0  0  0  0  0  0  0
    0.8865    1.3894   -2.6998 H   0  0  0  0  0  0  0  0  0  0  0  0
    5.7488    1.8359   -1.5911 H   0  0  0  0  0  0  0  0  0  0  0  0
    5.3042   -1.0385    1.4849 H   0  0  0  0  0  0  0  0  0  0  0  0
    2.9324   -1.2410    0.9283 H   0  0  0  0  0  0  0  0  0  0  0  0
    7.0901    0.1549    2.4477 H   0  0  0  0  0  0  0  0  0  0  0  0
   10.3055    1.0847   -0.1749 H   0  0  0  0  0  0  0  0  0  0  0  0
    8.0601    1.0365   -1.5912 H   0  0  0  0  0  0  0  0  0  0  0  0
   -5.0977    1.7640    2.0975 H   0  0  0  0  0  0  0  0  0  0  0  0
   -7.4784    2.2030    1.7474 H   0  0  0  0  0  0  0  0  0  0  0  0
   -8.5591    1.4154   -0.3325 H   0  0  0  0  0  0  0  0  0  0  0  0
   -7.2584    0.2433   -1.9544 H   0  0  0  0  0  0  0  0  0  0  0  0
  1  2  1  0
  2  3  1  0
  3  4  1  0
  4  5  1  0
  5  6  2  0
  6  7  1  0
  7  8  1  0
  8  9  1  0
  9 10  1  0
  9 11  2  0
  6 12  1  0
 12 13  1  0
 13 14  2  0
 14 15  1  0
 15 16  2  0
 16 17  1  0
 17 18  2  0
 18 19  1  0
 19 20  2  0
 17 21  1  0
 21 22  1  0
 22 23  2  0
 23 24  1  0
 24 25  1  0
  2 26  1  0
 26 27  2  0
 27 28  1  0
 28 29  2  0
 29 30  1  0
 30 31  2  0
 31 32  1  0
 32 33  1  0
 32 34  1  0
 32 35  1  0
  8  4  2  0
 20 12  1  0
 25 21  2  0
 31 26  1  0
 20 15  1  0
  1 36  1  0
  1 37  1  0
  1 38  1  0
  2 39  1  6
  5 40  1  0
 10 41  1  0
 10 42  1  0
 13 43  1  0
 16 44  1  0
 18 45  1  0
 19 46  1  0
 22 47  1  0
 24 48  1  0
 25 49  1  0
 27 50  1  0
 28 51  1  0
 29 52  1  0
 30 53  1  0
M  END
$$$$
[H]/C(=C1\C(=O)N([H])c2c([H])c([H])c(S(=O)(=O)C([H])([H])[H])c([H])c21)c1nc([H])c([H])n1[H]
     RDKit          3D

 31 33  0  0  0  0  0  0  0  0999 V2000
   -3.4469   -1.3805    1.0979 C   0  0  0  0  0  0  0  0  0  0  0  0
   -2.4904   -0.0527    1.8091 S   0  0  0  0  0  0  0  0  0  0  0  0
   -3.4951    0.9230    2.4083 O   0  0  0  0  0  0  0  0  0  0  0  0
   -1.6280   -0.5403    2.9150 O   0  0  0  0  0  0  0  0  0  0  0  0
   -1.5705    0.7768    0.5552 C   0  0  0  0  0  0  0  0  0  0  0  0
   -2.0963    1.8543   -0.1164 C   0  0  0  0  0  0  0  0  0  0  0  0
   -1.4288    2.5266   -1.0909 C   0  0  0  0  0  0  0  0  0  0  0  0
   -0.1550    2.1368   -1.4532 C   0  0  0  0  0  0  0  0  0  0  0  0
    0.7529    2.6647   -2.4102 N   0  0  0  0  0  0  0  0  0  0  0  0
    1.9180    1.8850   -2.3505 C   0  0  0  0  0  0  0  0  0  0  0  0
    2.9560    2.0209   -3.0300 O   0  0  0  0  0  0  0  0  0  0  0  0
    1.7525    0.8260   -1.3265 C   0  0  0  0  0  0  0  0  0  0  0  0
    2.6285   -0.0574   -0.9770 C   0  0  0  0  0  0  0  0  0  0  0  0
    2.4532   -1.0790    0.0046 C   0  0  0  0  0  0  0  0  0  0  0  0
    2.9392   -1.0779    1.2543 N   0  0  0  0  0  0  0  0  0  0  0  0
    2.6617   -2.2439    1.8677 C   0  0  0  0  0  0  0  0  0  0  0  0
    1.9735   -3.0058    0.9644 C   0  0  0  0  0  0  0  0  0  0  0  0
    1.8581   -2.2879   -0.1499 N   0  0  0  0  0  0  0  0  0  0  0  0
    0.4095    1.0423   -0.7895 C   0  0  0  0  0  0  0  0  0  0  0  0
   -0.2846    0.3767    0.1957 C   0  0  0  0  0  0  0  0  0  0  0  0
   -2.8108   -2.2909    1.0398 H   0  0  0  0  0  0  0  0  0  0  0  0
   -3.7651   -1.0400    0.0774 H   0  0  0  0  0  0  0  0  0  0  0  0
   -4.3550   -1.4945    1.6876 H   0  0  0  0  0  0  0  0  0  0  0  0
   -3.1012    2.1830    0.1505 H   0  0  0  0  0  0  0  0  0  0  0  0
   -1.8547    3.3856   -1.6233 H   0  0  0  0  0  0  0  0  0  0  0  0
    0.5545    3.4781   -3.0207 H   0  0  0  0  0  0  0  0  0  0  0  0
    3.6040    0.0243   -1.5216 H   0  0  0  0  0  0  0  0  0  0  0  0
    2.9501   -2.4807    2.8792 H   0  0  0  0  0  0  0  0  0  0  0  0
    1.6199   -4.0093    1.1969 H   0  0  0  0  0  0  0  0  0  0  0  0
    1.3788   -2.6124   -1.0133 H   0  0  0  0  0  0  0  0  0  0  0  0
    0.0721   -0.4508    0.7694 H   0  0  0  0  0  0  0  0  0  0  0  0
  1  2  1  0
  2  3  2  0
  2  4  2  0
  2  5  1  0
  5  6  2  0
  6  7  1  0
  7  8  2  0
  8  9  1  0
  9 10  1  0
 10 11  2  0
 10 12  1  0
 12 13  2  0
 13 14  1  0
 14 15  2  0
 15 16  1  0
 16 17  2  0
 17 18  1  0
 12 19  1  0
 19 20  2  0
 20  5  1  0
 19  8  1  0
 18 14  1  0
  1 21  1  0
  1 22  1  0
  1 23  1  0
  6 24  1  0
  7 25  1  0
  9 26  1  0
 13 27  1  0
 16 28  1  0
 17 29  1  0
 18 30  1  0
 20 31  1  0
M  END
$$$$
[H]c1nc(N([H])c2c([H])c(N3C([H])([H])C([H])([H])N(C([H])([H])C([H])([H])[H])C([H])([H])C3([H])[H])c([H])c([H])c2OC(F)(F)F)nc2c1C([H])([H])C([H])([H])c1c(C(=O)N([H])[H])nn(C([H])([H])[H])c1-2
     RDKit          3D

 64 68  0  0  0  0  0  0  0  0999 V2000
   -6.0932   -1.9570   -3.3179 C   0  0  0  0  0  0  0  0  0  0  0  0
   -6.0591   -1.4839   -1.9032 C   0  0  0  0  0  0  0  0  0  0  0  0
   -5.7607   -0.0417   -1.8054 N   0  0  0  0  0  0  0  0  0  0  0  0
   -4.4264    0.1616   -2.2252 C   0  0  0  0  0  0  0  0  0  0  0  0
   -3.4173    0.3285   -1.1480 C   0  0  0  0  0  0  0  0  0  0  0  0
   -3.9099    1.1133   -0.0263 N   0  0  0  0  0  0  0  0  0  0  0  0
   -5.2981    1.4310    0.1386 C   0  0  0  0  0  0  0  0  0  0  0  0
   -6.1118    0.3389   -0.4836 C   0  0  0  0  0  0  0  0  0  0  0  0
   -2.9664    1.5686    0.9324 C   0  0  0  0  0  0  0  0  0  0  0  0
   -3.3369    2.4086    1.9598 C   0  0  0  0  0  0  0  0  0  0  0  0
   -2.3767    2.8141    2.8751 C   0  0  0  0  0  0  0  0  0  0  0  0
   -1.0658    2.4357    2.8330 C   0  0  0  0  0  0  0  0  0  0  0  0
   -0.1238    2.8546    3.7619 O   0  0  0  0  0  0  0  0  0  0  0  0
   -0.3702    3.6883    4.8463 C   0  0  0  0  0  0  0  0  0  0  0  0
   -1.3123    3.1440    5.7304 F   0  0  0  0  0  0  0  0  0  0  0  0
    0.7805    3.8586    5.5766 F   0  0  0  0  0  0  0  0  0  0  0  0
   -0.7936    4.9550    4.4705 F   0  0  0  0  0  0  0  0  0  0  0  0
   -0.6759    1.5718    1.7785 C   0  0  0  0  0  0  0  0  0  0  0  0
    0.6666    1.1748    1.7534 N   0  0  0  0  0  0  0  0  0  0  0  0
    1.2931    0.4125    0.7483 C   0  0  0  0  0  0  0  0  0  0  0  0
    0.7356   -0.0570   -0.3588 N   0  0  0  0  0  0  0  0  0  0  0  0
    1.2922   -0.7694   -1.3129 C   0  0  0  0  0  0  0  0  0  0  0  0
    2.6714   -1.0888   -1.1553 C   0  0  0  0  0  0  0  0  0  0  0  0
    3.3241   -1.9003   -2.1723 C   0  0  0  0  0  0  0  0  0  0  0  0
    4.7742   -2.0891   -2.0376 C   0  0  0  0  0  0  0  0  0  0  0  0
    5.3871   -1.6114   -0.7949 C   0  0  0  0  0  0  0  0  0  0  0  0
    6.6948   -1.7540   -0.3726 C   0  0  0  0  0  0  0  0  0  0  0  0
    6.7923   -1.1351    0.8172 N   0  0  0  0  0  0  0  0  0  0  0  0
    5.5969   -0.6202    1.1398 N   0  0  0  0  0  0  0  0  0  0  0  0
    5.2535    0.1239    2.3332 C   0  0  0  0  0  0  0  0  0  0  0  0
    4.7191   -0.9022    0.1625 C   0  0  0  0  0  0  0  0  0  0  0  0
    3.2857   -0.6250   -0.0306 C   0  0  0  0  0  0  0  0  0  0  0  0
    2.6325    0.1082    0.9105 N   0  0  0  0  0  0  0  0  0  0  0  0
    7.7960   -2.4283   -1.0419 C   0  0  0  0  0  0  0  0  0  0  0  0
    9.0863   -2.5211   -0.4725 N   0  0  0  0  0  0  0  0  0  0  0  0
    7.5877   -2.9433   -2.1615 O   0  0  0  0  0  0  0  0  0  0  0  0
   -1.6193    1.1667    0.8706 C   0  0  0  0  0  0  0  0  0  0  0  0
   -5.0807   -2.3723   -3.5487 H   0  0  0  0  0  0  0  0  0  0  0  0
   -6.3658   -1.1290   -3.9751 H   0  0  0  0  0  0  0  0  0  0  0  0
   -6.7878   -2.8198   -3.3726 H   0  0  0  0  0  0  0  0  0  0  0  0
   -7.0619   -1.6806   -1.4466 H   0  0  0  0  0  0  0  0  0  0  0  0
   -5.3051   -2.0562   -1.3219 H   0  0  0  0  0  0  0  0  0  0  0  0
   -4.0850   -0.7013   -2.8695 H   0  0  0  0  0  0  0  0  0  0  0  0
   -4.4091    1.0378   -2.9352 H   0  0  0  0  0  0  0  0  0  0  0  0
   -2.9727   -0.6205   -0.7944 H   0  0  0  0  0  0  0  0  0  0  0  0
   -2.5671    0.9279   -1.5804 H   0  0  0  0  0  0  0  0  0  0  0  0
   -5.4991    2.4188   -0.3286 H   0  0  0  0  0  0  0  0  0  0  0  0
   -5.5701    1.4404    1.2205 H   0  0  0  0  0  0  0  0  0  0  0  0
   -7.1708    0.7335   -0.5310 H   0  0  0  0  0  0  0  0  0  0  0  0
   -6.1781   -0.5297    0.2164 H   0  0  0  0  0  0  0  0  0  0  0  0
   -4.3480    2.7579    2.0629 H   0  0  0  0  0  0  0  0  0  0  0  0
   -2.6801    3.4865    3.6936 H   0  0  0  0  0  0  0  0  0  0  0  0
    1.2845    1.4750    2.5819 H   0  0  0  0  0  0  0  0  0  0  0  0
    0.8065   -1.1338   -2.2017 H   0  0  0  0  0  0  0  0  0  0  0  0
    3.0774   -1.5037   -3.1973 H   0  0  0  0  0  0  0  0  0  0  0  0
    2.7981   -2.9212   -2.1182 H   0  0  0  0  0  0  0  0  0  0  0  0
    5.2696   -1.6052   -2.9442 H   0  0  0  0  0  0  0  0  0  0  0  0
    5.0004   -3.1912   -2.0932 H   0  0  0  0  0  0  0  0  0  0  0  0
    5.0652    1.1856    2.1754 H   0  0  0  0  0  0  0  0  0  0  0  0
    6.0684   -0.0025    3.1060 H   0  0  0  0  0  0  0  0  0  0  0  0
    4.3349   -0.3264    2.8130 H   0  0  0  0  0  0  0  0  0  0  0  0
    9.9039   -2.6814   -1.0805 H   0  0  0  0  0  0  0  0  0  0  0  0
    9.2433   -2.4320    0.5526 H   0  0  0  0  0  0  0  0  0  0  0  0
   -1.4228    0.5126    0.0513 H   0  0  0  0  0  0  0  0  0  0  0  0
  1  2  1  0
  2  3  1  0
  3  4  1  0
  4  5  1  0
  5  6  1  0
  6  7  1  0
  7  8  1  0
  6  9  1  0
  9 10  2  0
 10 11  1  0
 11 12  2  0
 12 13  1  0
 13 14  1  0
 14 15  1  0
 14 16  1  0
 14 17  1  0
 12 18  1  0
 18 19  1  0
 19 20  1  0
 20 21  2  0
 21 22  1  0
 22 23  2  0
 23 24  1  0
 24 25  1  0
 25 26  1  0
 26 27  1  0
 27 28  2  0
 28 29  1  0
 29 30  1  0
 29 31  1  0
 31 32  1  0
 32 33  2  0
 27 34  1  0
 34 35  1  0
 34 36  2  0
 18 37  2  0
  8  3  1  0
 37  9  1  0
 33 20  1  0
 32 23  1  0
 31 26  2  0
  1 38  1  0
  1 39  1  0
  1 40  1  0
  2 41  1  0
  2 42  1  0
  4 43  1  0
  4 44  1  0
  5 45  1  0
  5 46  1  0
  7 47  1  0
  7 48  1  0
  8 49  1  0
  8 50  1  0
 10 51  1  0
 11 52  1  0
 19 53  1  0
 22 54  1  0
 24 55  1  0
 24 56  1  0
 25 57  1  0
 25 58  1  0
 30 59  1  0
 30 60  1  0
 30 61  1  0
 35 62  1  0
 35 63  1  0
 37 64  1  0
M  END
$$$$
[H]c1nc(N([H])c2c([H])c([H])c(N3C([H])([H])C([H])([H])N(C([H])([H])[H])C([H])([H])C3([H])[H])c([H])c2OC([H])([H])[H])nc2c1N(C([H])([H])[H])C(=O)[C@@]([H])(C([H])([H])C([H])([H])[H])N2C1([H])C([H])([H])C([H])([H])C([H])([H])C1([H])[H]
     RDKit          3D

 72 76  0  0  0  0  0  0  0  0999 V2000
   -6.9973    3.5156    0.6660 C   0  0  0  0  0  0  0  0  0  0  0  0
   -6.3707    2.1019    0.7381 C   0  0  0  0  0  0  0  0  0  0  0  0
   -4.9936    2.1697    0.1922 C   0  0  1  0  0  0  0  0  0  0  0  0
   -4.2302    0.9479    0.1917 N   0  0  0  0  0  0  0  0  0  0  0  0
   -4.7400   -0.3141    0.6447 C   0  0  0  0  0  0  0  0  0  0  0  0
   -3.8152   -1.4639    0.6263 C   0  0  0  0  0  0  0  0  0  0  0  0
   -4.8447   -2.6217    0.7862 C   0  0  0  0  0  0  0  0  0  0  0  0
   -5.6322   -2.2904   -0.4961 C   0  0  0  0  0  0  0  0  0  0  0  0
   -5.9046   -0.8045   -0.2134 C   0  0  0  0  0  0  0  0  0  0  0  0
   -2.8716    1.0675   -0.3160 C   0  0  0  0  0  0  0  0  0  0  0  0
   -1.9574    0.2626    0.2091 N   0  0  0  0  0  0  0  0  0  0  0  0
   -0.6591    0.3678   -0.2631 C   0  0  0  0  0  0  0  0  0  0  0  0
    0.2492   -0.5166    0.3529 N   0  0  0  0  0  0  0  0  0  0  0  0
    1.6133   -0.6280    0.0690 C   0  0  0  0  0  0  0  0  0  0  0  0
    2.3072    0.0615   -0.8870 C   0  0  0  0  0  0  0  0  0  0  0  0
    3.6795   -0.1036   -1.1253 C   0  0  0  0  0  0  0  0  0  0  0  0
    4.3819   -1.0114   -0.3575 C   0  0  0  0  0  0  0  0  0  0  0  0
    3.7228   -1.7360    0.6256 C   0  0  0  0  0  0  0  0  0  0  0  0
    2.3733   -1.5401    0.8238 C   0  0  0  0  0  0  0  0  0  0  0  0
    1.7015   -2.2583    1.8043 O   0  0  0  0  0  0  0  0  0  0  0  0
    2.3697   -3.1875    2.6043 C   0  0  0  0  0  0  0  0  0  0  0  0
    5.7523   -1.2349   -0.5412 N   0  0  0  0  0  0  0  0  0  0  0  0
    6.5721   -0.6974   -1.5976 C   0  0  0  0  0  0  0  0  0  0  0  0
    7.5779    0.2270   -0.9483 C   0  0  0  0  0  0  0  0  0  0  0  0
    8.2123   -0.3806    0.2035 N   0  0  0  0  0  0  0  0  0  0  0  0
    7.8336    0.2984    1.4288 C   0  0  0  0  0  0  0  0  0  0  0  0
    7.9582   -1.8077    0.2879 C   0  0  0  0  0  0  0  0  0  0  0  0
    6.4731   -2.0936    0.4189 C   0  0  0  0  0  0  0  0  0  0  0  0
   -0.4041    1.2649   -1.2109 N   0  0  0  0  0  0  0  0  0  0  0  0
   -1.2985    2.0983   -1.7686 C   0  0  0  0  0  0  0  0  0  0  0  0
   -2.5899    1.9964   -1.3012 C   0  0  0  0  0  0  0  0  0  0  0  0
   -3.6513    2.8063   -1.7757 N   0  0  0  0  0  0  0  0  0  0  0  0
   -3.4112    3.7948   -2.8381 C   0  0  0  0  0  0  0  0  0  0  0  0
   -4.9684    2.6542   -1.2317 C   0  0  0  0  0  0  0  0  0  0  0  0
   -5.9897    2.8999   -1.8763 O   0  0  0  0  0  0  0  0  0  0  0  0
   -7.5687    3.7324    1.5904 H   0  0  0  0  0  0  0  0  0  0  0  0
   -7.6374    3.6410   -0.2057 H   0  0  0  0  0  0  0  0  0  0  0  0
   -6.1601    4.2437    0.6320 H   0  0  0  0  0  0  0  0  0  0  0  0
   -7.0906    1.4920    0.1529 H   0  0  0  0  0  0  0  0  0  0  0  0
   -6.3306    1.8583    1.8149 H   0  0  0  0  0  0  0  0  0  0  0  0
   -4.4813    2.9929    0.7830 H   0  0  0  0  0  0  0  0  0  0  0  0
   -5.1001   -0.1949    1.6967 H   0  0  0  0  0  0  0  0  0  0  0  0
   -3.3810   -1.7163   -0.3763 H   0  0  0  0  0  0  0  0  0  0  0  0
   -3.1526   -1.6084    1.4736 H   0  0  0  0  0  0  0  0  0  0  0  0
   -4.3605   -3.5974    0.7189 H   0  0  0  0  0  0  0  0  0  0  0  0
   -5.4941   -2.4523    1.6453 H   0  0  0  0  0  0  0  0  0  0  0  0
   -4.9185   -2.3656   -1.3243 H   0  0  0  0  0  0  0  0  0  0  0  0
   -6.5456   -2.8734   -0.5926 H   0  0  0  0  0  0  0  0  0  0  0  0
   -5.9807   -0.3138   -1.1806 H   0  0  0  0  0  0  0  0  0  0  0  0
   -6.8500   -0.8327    0.3755 H   0  0  0  0  0  0  0  0  0  0  0  0
   -0.1291   -1.1768    1.1153 H   0  0  0  0  0  0  0  0  0  0  0  0
    1.8176    0.7743   -1.5129 H   0  0  0  0  0  0  0  0  0  0  0  0
    4.1830    0.4635   -1.8881 H   0  0  0  0  0  0  0  0  0  0  0  0
    4.2538   -2.4521    1.2367 H   0  0  0  0  0  0  0  0  0  0  0  0
    3.0191   -3.8914    2.0607 H   0  0  0  0  0  0  0  0  0  0  0  0
    1.6226   -3.7251    3.2386 H   0  0  0  0  0  0  0  0  0  0  0  0
    3.0224   -2.6332    3.3107 H   0  0  0  0  0  0  0  0  0  0  0  0
    6.0233   -0.1510   -2.3560 H   0  0  0  0  0  0  0  0  0  0  0  0
    7.1365   -1.5401   -2.0917 H   0  0  0  0  0  0  0  0  0  0  0  0
    8.3694    0.4872   -1.6725 H   0  0  0  0  0  0  0  0  0  0  0  0
    7.0332    1.1236   -0.5911 H   0  0  0  0  0  0  0  0  0  0  0  0
    8.0713   -0.3203    2.3098 H   0  0  0  0  0  0  0  0  0  0  0  0
    8.3111    1.2823    1.5151 H   0  0  0  0  0  0  0  0  0  0  0  0
    6.7314    0.4405    1.3988 H   0  0  0  0  0  0  0  0  0  0  0  0
    8.4612   -2.1819    1.1924 H   0  0  0  0  0  0  0  0  0  0  0  0
    8.3680   -2.3285   -0.5804 H   0  0  0  0  0  0  0  0  0  0  0  0
    6.2820   -3.1251    0.1113 H   0  0  0  0  0  0  0  0  0  0  0  0
    6.1900   -1.8942    1.4514 H   0  0  0  0  0  0  0  0  0  0  0  0
   -1.0699    2.8098   -2.5277 H   0  0  0  0  0  0  0  0  0  0  0  0
   -2.7894    3.3703   -3.6474 H   0  0  0  0  0  0  0  0  0  0  0  0
   -4.3692    4.1129   -3.2970 H   0  0  0  0  0  0  0  0  0  0  0  0
   -2.9345    4.7055   -2.4274 H   0  0  0  0  0  0  0  0  0  0  0  0
  1  2  1  0
  2  3  1  0
  3  4  1  0
  4  5  1  0
  5  6  1  0
  6  7  1  0
  7  8  1  0
  8  9  1  0
  4 10  1  0
 10 11  2  0
 11 12  1  0
 12 13  1  0
 13 14  1  0
 14 15  2  0
 15 16  1  0
 16 17  2  0
 17 18  1  0
 18 19  2  0
 19 20  1  0
 20 21  1  0
 17 22  1  0
 22 23  1  0
 23 24  1  0
 24 25  1  0
 25 26  1  0
 25 27  1  0
 27 28  1  0
 12 29  2  0
 29 30  1  0
 30 31  2  0
 31 32  1  0
 32 33  1  0
 32 34  1  0
 34 35  2  0
 34  3  1  0
  9  5  1  0
 31 10  1  0
 19 14  1  0
 28 22  1  0
  1 36  1  0
  1 37  1  0
  1 38  1  0
  2 39  1  0
  2 40  1  0
  3 41  1  1
  5 42  1  0
  6 43  1  0
  6 44  1  0
  7 45  1  0
  7 46  1  0
  8 47  1  0
  8 48  1  0
  9 49  1  0
  9 50  1  0
 13 51  1  0
 15 52  1  0
 16 53  1  0
 18 54  1  0
 21 55  1  0
 21 56  1  0
 21 57  1  0
 23 58  1  0
 23 59  1  0
 24 60  1  0
 24 61  1  0
 26 62  1  0
 26 63  1  0
 26 64  1  0
 27 65  1  0
 27 66  1  0
 28 67  1  0
 28 68  1  0
 30 69  1  0
 33 70  1  0
 33 71  1  0
 33 72  1  0
M  END
$$$$
[H]c1nc2c(nc1N([H])C1=C(c3c([H])c([H])c([H])c([H])c3[H])C(=O)N([H])C1=O)c(-c1c([H])c([H])c(C([H])([H])N3C([H])([H])C([H])([H])C([H])([H])C([H])([H])C3([H])[H])c([H])c1[H])c([H])n2[H]
     RDKit          3D

 62 67  0  0  0  0  0  0  0  0999 V2000
   -8.5830   -0.1077   -1.2049 O   0  0  0  0  0  0  0  0  0  0  0  0
   -7.4829   -0.6301   -1.5377 C   0  0  0  0  0  0  0  0  0  0  0  0
   -7.3129   -1.7717   -2.3481 N   0  0  0  0  0  0  0  0  0  0  0  0
   -5.9334   -2.0039   -2.4633 C   0  0  0  0  0  0  0  0  0  0  0  0
   -5.3618   -2.9400   -3.1122 O   0  0  0  0  0  0  0  0  0  0  0  0
   -5.2806   -0.9540   -1.6878 C   0  0  0  0  0  0  0  0  0  0  0  0
   -3.8511   -0.8345   -1.5412 N   0  0  0  0  0  0  0  0  0  0  0  0
   -3.1816   -1.5704   -0.5156 C   0  0  0  0  0  0  0  0  0  0  0  0
   -3.9151   -2.3963    0.3112 C   0  0  0  0  0  0  0  0  0  0  0  0
   -3.3140   -3.1094    1.2946 N   0  0  0  0  0  0  0  0  0  0  0  0
   -1.9782   -2.9856    1.4383 C   0  0  0  0  0  0  0  0  0  0  0  0
   -1.1020   -3.5403    2.2927 N   0  0  0  0  0  0  0  0  0  0  0  0
    0.1421   -3.1141    2.0560 C   0  0  0  0  0  0  0  0  0  0  0  0
    0.1040   -2.2217    0.9814 C   0  0  0  0  0  0  0  0  0  0  0  0
    1.2498   -1.5259    0.4089 C   0  0  0  0  0  0  0  0  0  0  0  0
    2.4486   -2.1785    0.1352 C   0  0  0  0  0  0  0  0  0  0  0  0
    3.5159   -1.5053   -0.4001 C   0  0  0  0  0  0  0  0  0  0  0  0
    3.4229   -0.1600   -0.6797 C   0  0  0  0  0  0  0  0  0  0  0  0
    4.5776    0.5425   -1.2484 C   0  0  0  0  0  0  0  0  0  0  0  0
    5.1653    1.4608   -0.3323 N   0  0  0  0  0  0  0  0  0  0  0  0
    6.2884    2.0969   -1.0095 C   0  0  0  0  0  0  0  0  0  0  0  0
    7.1609    2.8147   -0.0028 C   0  0  0  0  0  0  0  0  0  0  0  0
    7.7717    1.8159    0.9406 C   0  0  0  0  0  0  0  0  0  0  0  0
    7.0128    0.5033    0.9634 C   0  0  0  0  0  0  0  0  0  0  0  0
    5.5290    0.8891    0.9197 C   0  0  0  0  0  0  0  0  0  0  0  0
    2.2225    0.4970   -0.4065 C   0  0  0  0  0  0  0  0  0  0  0  0
    1.1742   -0.1838    0.1239 C   0  0  0  0  0  0  0  0  0  0  0  0
   -1.2235   -2.1573    0.6136 C   0  0  0  0  0  0  0  0  0  0  0  0
   -1.8526   -1.4699   -0.3454 N   0  0  0  0  0  0  0  0  0  0  0  0
   -6.1527   -0.1319   -1.1321 C   0  0  0  0  0  0  0  0  0  0  0  0
   -5.8973    1.0369   -0.2932 C   0  0  0  0  0  0  0  0  0  0  0  0
   -4.8741    1.9261   -0.5170 C   0  0  0  0  0  0  0  0  0  0  0  0
   -4.6577    3.0191    0.3006 C   0  0  0  0  0  0  0  0  0  0  0  0
   -5.4720    3.2493    1.3749 C   0  0  0  0  0  0  0  0  0  0  0  0
   -6.5217    2.3536    1.6198 C   0  0  0  0  0  0  0  0  0  0  0  0
   -6.7164    1.2692    0.7877 C   0  0  0  0  0  0  0  0  0  0  0  0
   -8.0657   -2.3586   -2.7960 H   0  0  0  0  0  0  0  0  0  0  0  0
   -3.2760   -0.2296   -2.1628 H   0  0  0  0  0  0  0  0  0  0  0  0
   -4.9814   -2.4720    0.1682 H   0  0  0  0  0  0  0  0  0  0  0  0
   -1.3766   -4.2202    3.0449 H   0  0  0  0  0  0  0  0  0  0  0  0
    1.0503   -3.3861    2.5795 H   0  0  0  0  0  0  0  0  0  0  0  0
    2.4857   -3.2517    0.3708 H   0  0  0  0  0  0  0  0  0  0  0  0
    4.4241   -2.0477   -0.5967 H   0  0  0  0  0  0  0  0  0  0  0  0
    5.3094   -0.2020   -1.6578 H   0  0  0  0  0  0  0  0  0  0  0  0
    4.2102    1.0977   -2.1564 H   0  0  0  0  0  0  0  0  0  0  0  0
    6.9002    1.2906   -1.4626 H   0  0  0  0  0  0  0  0  0  0  0  0
    5.8646    2.7844   -1.7554 H   0  0  0  0  0  0  0  0  0  0  0  0
    6.5475    3.5553    0.5864 H   0  0  0  0  0  0  0  0  0  0  0  0
    7.9396    3.3803   -0.5583 H   0  0  0  0  0  0  0  0  0  0  0  0
    8.8082    1.6202    0.6200 H   0  0  0  0  0  0  0  0  0  0  0  0
    7.8234    2.2534    1.9718 H   0  0  0  0  0  0  0  0  0  0  0  0
    7.2606   -0.1398    0.1114 H   0  0  0  0  0  0  0  0  0  0  0  0
    7.1846    0.0193    1.9530 H   0  0  0  0  0  0  0  0  0  0  0  0
    4.9615    0.0082    1.2105 H   0  0  0  0  0  0  0  0  0  0  0  0
    5.4228    1.7074    1.6873 H   0  0  0  0  0  0  0  0  0  0  0  0
    2.1926    1.5630   -0.6447 H   0  0  0  0  0  0  0  0  0  0  0  0
    0.2419    0.3452    0.3315 H   0  0  0  0  0  0  0  0  0  0  0  0
   -4.2074    1.7903   -1.3511 H   0  0  0  0  0  0  0  0  0  0  0  0
   -3.8390    3.6712    0.0642 H   0  0  0  0  0  0  0  0  0  0  0  0
   -5.3136    4.1037    2.0252 H   0  0  0  0  0  0  0  0  0  0  0  0
   -7.1624    2.5352    2.4655 H   0  0  0  0  0  0  0  0  0  0  0  0
   -7.5259    0.6000    0.9964 H   0  0  0  0  0  0  0  0  0  0  0  0
  1  2  2  0
  2  3  1  0
  3  4  1  0
  4  5  2  0
  4  6  1  0
  6  7  1  0
  7  8  1  0
  8  9  2  0
  9 10  1  0
 10 11  2  0
 11 12  1  0
 12 13  1  0
 13 14  2  0
 14 15  1  0
 15 16  2  0
 16 17  1  0
 17 18  2  0
 18 19  1  0
 19 20  1  0
 20 21  1  0
 21 22  1  0
 22 23  1  0
 23 24  1  0
 24 25  1  0
 18 26  1  0
 26 27  2  0
 14 28  1  0
 28 29  2  0
  6 30  2  0
 30 31  1  0
 31 32  2  0
 32 33  1  0
 33 34  2  0
 34 35  1  0
 35 36  2  0
 30  2  1  0
 36 31  1  0
 29  8  1  0
 28 11  1  0
 27 15  1  0
 25 20  1  0
  3 37  1  0
  7 38  1  0
  9 39  1  0
 12 40  1  0
 13 41  1  0
 16 42  1  0
 17 43  1  0
 19 44  1  0
 19 45  1  0
 21 46  1  0
 21 47  1  0
 22 48  1  0
 22 49  1  0
 23 50  1  0
 23 51  1  0
 24 52  1  0
 24 53  1  0
 25 54  1  0
 25 55  1  0
 26 56  1  0
 27 57  1  0
 32 58  1  0
 33 59  1  0
 34 60  1  0
 35 61  1  0
 36 62  1  0
M  END
$$$$
[H]c1c([H])c(-c2c([H])c([H])c(C(=O)N([H])c3c4c([H])c(Cl)c(C([H])([H])[H])c([H])c4nn3[H])c([H])c2[H])c([H])c([H])c1OC([H])([H])C([H])([H])N1C([H])([H])C([H])([H])C(F)(F)C1([H])[H]
     RDKit          3D

 61 65  0  0  0  0  0  0  0  0999 V2000
  -10.6244    1.2065    2.0680 C   0  0  0  0  0  0  0  0  0  0  0  0
   -9.3629    0.7722    1.4203 C   0  0  0  0  0  0  0  0  0  0  0  0
   -8.1350    1.1305    1.9543 C   0  0  0  0  0  0  0  0  0  0  0  0
   -6.9772    0.7018    1.3159 C   0  0  0  0  0  0  0  0  0  0  0  0
   -5.6945    0.8964    1.6063 N   0  0  0  0  0  0  0  0  0  0  0  0
   -4.9243    0.2834    0.6934 N   0  0  0  0  0  0  0  0  0  0  0  0
   -5.7185   -0.3178   -0.2027 C   0  0  0  0  0  0  0  0  0  0  0  0
   -5.4264   -1.0761   -1.3344 N   0  0  0  0  0  0  0  0  0  0  0  0
   -4.1874   -1.4250   -1.8516 C   0  0  0  0  0  0  0  0  0  0  0  0
   -4.1234   -2.1487   -2.9376 O   0  0  0  0  0  0  0  0  0  0  0  0
   -2.8921   -1.0776   -1.3228 C   0  0  0  0  0  0  0  0  0  0  0  0
   -2.2133    0.0680   -1.7331 C   0  0  0  0  0  0  0  0  0  0  0  0
   -0.9598    0.3484   -1.2435 C   0  0  0  0  0  0  0  0  0  0  0  0
   -0.3286   -0.4788   -0.3388 C   0  0  0  0  0  0  0  0  0  0  0  0
   -1.0126   -1.6113    0.0599 C   0  0  0  0  0  0  0  0  0  0  0  0
   -2.2649   -1.9304   -0.4027 C   0  0  0  0  0  0  0  0  0  0  0  0
    0.9955   -0.1466    0.1534 C   0  0  0  0  0  0  0  0  0  0  0  0
    1.9053   -1.1125    0.5064 C   0  0  0  0  0  0  0  0  0  0  0  0
    3.1603   -0.7846    0.9730 C   0  0  0  0  0  0  0  0  0  0  0  0
    3.5619    0.5071    1.1073 C   0  0  0  0  0  0  0  0  0  0  0  0
    4.7619    0.9402    1.5497 O   0  0  0  0  0  0  0  0  0  0  0  0
    5.9076    0.3139    1.9684 C   0  0  0  0  0  0  0  0  0  0  0  0
    6.6421   -0.5388    1.0032 C   0  0  0  0  0  0  0  0  0  0  0  0
    7.1022    0.1386   -0.1765 N   0  0  0  0  0  0  0  0  0  0  0  0
    7.7970   -0.7956   -1.0333 C   0  0  0  0  0  0  0  0  0  0  0  0
    9.2506   -0.3763   -1.0129 C   0  0  0  0  0  0  0  0  0  0  0  0
    9.1740    1.0994   -0.8023 C   0  0  0  0  0  0  0  0  0  0  0  0
   10.2956    1.5916   -0.1401 F   0  0  0  0  0  0  0  0  0  0  0  0
    9.0099    1.7130   -2.0303 F   0  0  0  0  0  0  0  0  0  0  0  0
    7.9337    1.2607    0.0510 C   0  0  0  0  0  0  0  0  0  0  0  0
    2.6280    1.4953    0.7453 C   0  0  0  0  0  0  0  0  0  0  0  0
    1.3807    1.1587    0.2819 C   0  0  0  0  0  0  0  0  0  0  0  0
   -7.0626   -0.0603    0.1804 C   0  0  0  0  0  0  0  0  0  0  0  0
   -8.2914   -0.4069   -0.3362 C   0  0  0  0  0  0  0  0  0  0  0  0
   -9.4601    0.0024    0.2734 C   0  0  0  0  0  0  0  0  0  0  0  0
  -11.0370   -0.4306   -0.3715 Cl  0  0  0  0  0  0  0  0  0  0  0  0
  -11.3415    1.4379    1.2548 H   0  0  0  0  0  0  0  0  0  0  0  0
  -10.4338    2.1409    2.6379 H   0  0  0  0  0  0  0  0  0  0  0  0
  -11.0081    0.3790    2.6735 H   0  0  0  0  0  0  0  0  0  0  0  0
   -8.0591    1.7301    2.8475 H   0  0  0  0  0  0  0  0  0  0  0  0
   -3.8854    0.3166    0.7427 H   0  0  0  0  0  0  0  0  0  0  0  0
   -6.2700   -1.4525   -1.9035 H   0  0  0  0  0  0  0  0  0  0  0  0
   -2.7254    0.7101   -2.4475 H   0  0  0  0  0  0  0  0  0  0  0  0
   -0.4550    1.2551   -1.5857 H   0  0  0  0  0  0  0  0  0  0  0  0
   -0.5301   -2.2688    0.7687 H   0  0  0  0  0  0  0  0  0  0  0  0
   -2.8250   -2.8055   -0.1116 H   0  0  0  0  0  0  0  0  0  0  0  0
    1.5998   -2.1600    0.4046 H   0  0  0  0  0  0  0  0  0  0  0  0
    3.8005   -1.5925    1.2356 H   0  0  0  0  0  0  0  0  0  0  0  0
    6.6000    1.0118    2.5385 H   0  0  0  0  0  0  0  0  0  0  0  0
    5.5854   -0.3904    2.8061 H   0  0  0  0  0  0  0  0  0  0  0  0
    6.0245   -1.3918    0.6965 H   0  0  0  0  0  0  0  0  0  0  0  0
    7.5111   -0.9772    1.5462 H   0  0  0  0  0  0  0  0  0  0  0  0
    7.3920   -0.6777   -2.0529 H   0  0  0  0  0  0  0  0  0  0  0  0
    7.7428   -1.8365   -0.6597 H   0  0  0  0  0  0  0  0  0  0  0  0
    9.7170   -0.5863   -2.0162 H   0  0  0  0  0  0  0  0  0  0  0  0
    9.8161   -0.8866   -0.2024 H   0  0  0  0  0  0  0  0  0  0  0  0
    7.4096    2.1752   -0.3443 H   0  0  0  0  0  0  0  0  0  0  0  0
    8.2521    1.4392    1.0725 H   0  0  0  0  0  0  0  0  0  0  0  0
    2.9037    2.5358    0.8361 H   0  0  0  0  0  0  0  0  0  0  0  0
    0.7092    1.9898    0.0202 H   0  0  0  0  0  0  0  0  0  0  0  0
   -8.3400   -1.0054   -1.2277 H   0  0  0  0  0  0  0  0  0  0  0  0
  1  2  1  0
  2  3  2  0
  3  4  1  0
  4  5  2  0
  5  6  1  0
  6  7  1  0
  7  8  1  0
  8  9  1  0
  9 10  2  0
  9 11  1  0
 11 12  2  0
 12 13  1  0
 13 14  2  0
 14 15  1  0
 15 16  2  0
 14 17  1  0
 17 18  2  0
 18 19  1  0
 19 20  2  0
 20 21  1  0
 21 22  1  0
 22 23  1  0
 23 24  1  0
 24 25  1  0
 25 26  1  0
 26 27  1  0
 27 28  1  0
 27 29  1  0
 27 30  1  0
 20 31  1  0
 31 32  2  0
  7 33  2  0
 33 34  1  0
 34 35  2  0
 35 36  1  0
 35  2  1  0
 33  4  1  0
 16 11  1  0
 32 17  1  0
 30 24  1  0
  1 37  1  0
  1 38  1  0
  1 39  1  0
  3 40  1  0
  6 41  1  0
  8 42  1  0
 12 43  1  0
 13 44  1  0
 15 45  1  0
 16 46  1  0
 18 47  1  0
 19 48  1  0
 22 49  1  0
 22 50  1  0
 23 51  1  0
 23 52  1  0
 25 53  1  0
 25 54  1  0
 26 55  1  0
 26 56  1  0
 30 57  1  0
 30 58  1  0
 31 59  1  0
 32 60  1  0
 34 61  1  0
M  END
$$$$
[H]c1c([H])c([H])c2c(c1[H])c1c3c(c4c5c([H])c([H])c([H])c([H])c5n5c4c1n2[C@]1([H])O[C@]5(C([H])([H])[H])[C@@]([H])(OC([H])([H])[H])[C@@]([H])(N([H])C([H])([H])[H])C1([H])[H])C([H])([H])N([H])C3=O
     RDKit          3D

 61 68  0  0  0  0  0  0  0  0999 V2000
   -4.7214    2.4097    0.5983 C   0  0  0  0  0  0  0  0  0  0  0  0
   -3.9822    1.1848    0.6324 N   0  0  0  0  0  0  0  0  0  0  0  0
   -3.1808    0.9438   -0.5514 C   0  0  1  0  0  0  0  0  0  0  0  0
   -2.1287    2.1030   -0.6160 C   0  0  0  0  0  0  0  0  0  0  0  0
   -0.9471    1.4134   -0.5220 C   0  0  1  0  0  0  0  0  0  0  0  0
   -0.9638    0.5601   -1.6162 O   0  0  0  0  0  0  0  0  0  0  0  0
   -1.3378   -0.7198   -1.0906 C   0  0  2  0  0  0  0  0  0  0  0  0
   -1.6688   -1.4664   -2.4309 C   0  0  0  0  0  0  0  0  0  0  0  0
   -2.5304   -0.4438   -0.3258 C   0  0  1  0  0  0  0  0  0  0  0  0
   -2.6388   -0.8827    0.9764 O   0  0  0  0  0  0  0  0  0  0  0  0
   -3.5794   -1.8389    1.2299 C   0  0  0  0  0  0  0  0  0  0  0  0
   -0.1297   -1.2831   -0.5475 N   0  0  0  0  0  0  0  0  0  0  0  0
    0.1543   -2.6040   -0.4727 C   0  0  0  0  0  0  0  0  0  0  0  0
   -0.5674   -3.7659   -0.7148 C   0  0  0  0  0  0  0  0  0  0  0  0
    0.0003   -5.0248   -0.5414 C   0  0  0  0  0  0  0  0  0  0  0  0
    1.3049   -5.1599   -0.1206 C   0  0  0  0  0  0  0  0  0  0  0  0
    2.0493   -4.0271    0.1293 C   0  0  0  0  0  0  0  0  0  0  0  0
    1.4590   -2.8076   -0.0520 C   0  0  0  0  0  0  0  0  0  0  0  0
    1.9904   -1.5692    0.1419 C   0  0  0  0  0  0  0  0  0  0  0  0
    3.2344   -1.0437    0.5170 C   0  0  0  0  0  0  0  0  0  0  0  0
    4.4559   -1.7835    0.8800 C   0  0  0  0  0  0  0  0  0  0  0  0
    5.4345   -0.7771    1.2024 N   0  0  0  0  0  0  0  0  0  0  0  0
    4.8582    0.5339    1.0195 C   0  0  0  0  0  0  0  0  0  0  0  0
    5.5482    1.5411    1.2321 O   0  0  0  0  0  0  0  0  0  0  0  0
    3.4942    0.3130    0.5954 C   0  0  0  0  0  0  0  0  0  0  0  0
    2.4992    1.2349    0.2990 C   0  0  0  0  0  0  0  0  0  0  0  0
    2.3596    2.5925    0.3108 C   0  0  0  0  0  0  0  0  0  0  0  0
    3.2065    3.6185    0.5806 C   0  0  0  0  0  0  0  0  0  0  0  0
    2.7033    4.9291    0.4896 C   0  0  0  0  0  0  0  0  0  0  0  0
    1.3946    5.1670    0.1386 C   0  0  0  0  0  0  0  0  0  0  0  0
    0.5300    4.1103   -0.1373 C   0  0  0  0  0  0  0  0  0  0  0  0
    1.0459    2.8409   -0.0415 C   0  0  0  0  0  0  0  0  0  0  0  0
    0.3968    1.7103   -0.2639 N   0  0  0  0  0  0  0  0  0  0  0  0
    1.2898    0.7040   -0.0649 C   0  0  0  0  0  0  0  0  0  0  0  0
    1.0348   -0.6769   -0.1506 C   0  0  0  0  0  0  0  0  0  0  0  0
   -4.1718    3.2170    1.1277 H   0  0  0  0  0  0  0  0  0  0  0  0
   -4.9729    2.6635   -0.4314 H   0  0  0  0  0  0  0  0  0  0  0  0
   -5.6660    2.2404    1.1684 H   0  0  0  0  0  0  0  0  0  0  0  0
   -3.5211    0.9595    1.5171 H   0  0  0  0  0  0  0  0  0  0  0  0
   -3.8406    0.9718   -1.4128 H   0  0  0  0  0  0  0  0  0  0  0  0
   -2.3613    2.6480   -1.5550 H   0  0  0  0  0  0  0  0  0  0  0  0
   -2.3259    2.8337    0.2023 H   0  0  0  0  0  0  0  0  0  0  0  0
   -1.1567    0.8348    0.4905 H   0  0  0  0  0  0  0  0  0  0  0  0
   -1.8666   -0.7570   -3.2417 H   0  0  0  0  0  0  0  0  0  0  0  0
   -0.8467   -2.0981   -2.7423 H   0  0  0  0  0  0  0  0  0  0  0  0
   -2.6367   -1.9690   -2.2345 H   0  0  0  0  0  0  0  0  0  0  0  0
   -3.3459   -1.0936   -0.8266 H   0  0  0  0  0  0  0  0  0  0  0  0
   -3.5387   -2.0794    2.3110 H   0  0  0  0  0  0  0  0  0  0  0  0
   -3.3830   -2.8163    0.6973 H   0  0  0  0  0  0  0  0  0  0  0  0
   -4.6203   -1.5293    1.0081 H   0  0  0  0  0  0  0  0  0  0  0  0
   -1.5742   -3.6918   -1.0322 H   0  0  0  0  0  0  0  0  0  0  0  0
   -0.6332   -5.8901   -0.7533 H   0  0  0  0  0  0  0  0  0  0  0  0
    1.6909   -6.1578   -0.0050 H   0  0  0  0  0  0  0  0  0  0  0  0
    3.0778   -4.1234    0.4614 H   0  0  0  0  0  0  0  0  0  0  0  0
    4.2970   -2.4098    1.7823 H   0  0  0  0  0  0  0  0  0  0  0  0
    4.7645   -2.4091    0.0144 H   0  0  0  0  0  0  0  0  0  0  0  0
    6.4012   -1.0207    1.5162 H   0  0  0  0  0  0  0  0  0  0  0  0
    4.2259    3.4694    0.8539 H   0  0  0  0  0  0  0  0  0  0  0  0
    3.4090    5.7212    0.7122 H   0  0  0  0  0  0  0  0  0  0  0  0
    1.0230    6.1798    0.0722 H   0  0  0  0  0  0  0  0  0  0  0  0
   -0.4958    4.2706   -0.4133 H   0  0  0  0  0  0  0  0  0  0  0  0
  1  2  1  0
  2  3  1  0
  3  4  1  0
  4  5  1  0
  5  6  1  0
  6  7  1  0
  7  8  1  6
  7  9  1  0
  9 10  1  0
 10 11  1  0
  7 12  1  0
 12 13  1  0
 13 14  2  0
 14 15  1  0
 15 16  2  0
 16 17  1  0
 17 18  2  0
 18 19  1  0
 19 20  2  0
 20 21  1  0
 21 22  1  0
 22 23  1  0
 23 24  2  0
 23 25  1  0
 25 26  2  0
 26 27  1  0
 27 28  2  0
 28 29  1  0
 29 30  2  0
 30 31  1  0
 31 32  2  0
 32 33  1  0
 33 34  1  0
 34 35  2  0
  9  3  1  0
 35 12  1  0
 33  5  1  0
 18 13  1  0
 35 19  1  0
 25 20  1  0
 34 26  1  0
 32 27  1  0
  1 36  1  0
  1 37  1  0
  1 38  1  0
  2 39  1  0
  3 40  1  6
  4 41  1  0
  4 42  1  0
  5 43  1  1
  8 44  1  0
  8 45  1  0
  8 46  1  0
  9 47  1  6
 11 48  1  0
 11 49  1  0
 11 50  1  0
 14 51  1  0
 15 52  1  0
 16 53  1  0
 17 54  1  0
 21 55  1  0
 21 56  1  0
 22 57  1  0
 28 58  1  0
 29 59  1  0
 30 60  1  0
 31 61  1  0
M  END
$$$$
