[H]c1c([H])c(Cl)c(N([H])c2nc3c([H])c([H])c(N4C([H])([H])C([H])([H])N([H])C([H])([H])C4([H])[H])c([H])c3n3c([H])nc([H])c23)c(C([H])([H])[H])c1[H]


 30 34  0  0  0  0  0  0  0  0999 V2000
  -16.6106   12.6251  -22.6532 C   0  0  0  0  0  0  0  0  0  0  0  0
  -17.5241   13.5788  -22.4282 N   0  0  0  0  0  0  0  0  0  0  0  0
  -18.2607   13.5825  -21.2798 C   0  0  0  0  0  0  0  0  0  0  0  0
  -19.2002   14.5557  -21.0391 C   0  0  0  0  0  0  0  0  0  0  0  0
  -19.9515   14.5696  -19.8807 C   0  0  0  0  0  0  0  0  0  0  0  0
  -19.7942   13.5994  -18.9010 C   0  0  0  0  0  0  0  0  0  0  0  0
  -18.8496   12.6279  -19.1518 C   0  0  0  0  0  0  0  0  0  0  0  0
  -18.0821   12.6059  -20.3255 C   0  0  0  0  0  0  0  0  0  0  0  0
  -17.1758   11.6538  -20.5412 N   0  0  0  0  0  0  0  0  0  0  0  0
  -16.7901   10.5949  -19.8069 C   0  0  0  0  0  0  0  0  0  0  0  0
  -15.8304    9.9514  -20.4960 N   0  0  0  0  0  0  0  0  0  0  0  0
  -15.5934   10.5779  -21.6587 C   0  0  0  0  0  0  0  0  0  0  0  0
  -16.4483   11.6623  -21.6908 C   0  0  0  0  0  0  0  0  0  0  0  0
  -20.5742   13.6355  -17.7247 N   0  0  0  0  0  0  0  0  0  0  0  0
  -20.3386   12.6203  -16.7270 C   0  0  0  0  0  0  0  0  0  0  0  0
  -21.3791   12.5998  -15.6562 C   0  0  0  0  0  0  0  0  0  0  0  0
  -21.4331   13.9714  -15.1232 N   0  0  0  0  0  0  0  0  0  0  0  0
  -22.1020   14.7517  -16.1256 C   0  0  0  0  0  0  0  0  0  0  0  0
  -21.5661   14.6281  -17.5045 C   0  0  0  0  0  0  0  0  0  0  0  0
  -22.0032   13.9053  -14.2608 H   0  0  0  0  0  0  0  0  0  0  0  0
  -15.8527   12.6049  -23.8138 N   0  0  0  0  0  0  0  0  0  0  0  0
  -15.1878   11.7930  -23.9732 H   0  0  0  0  0  0  0  0  0  0  0  0
  -13.9546   14.6111  -23.7221 C   0  0  0  0  0  0  0  0  0  0  0  0
  -14.9253   14.5837  -24.8240 C   0  0  0  0  0  0  0  0  0  0  0  0
  -14.9060   15.5587  -25.8316 C   0  0  0  0  0  0  0  0  0  0  0  0
  -15.8238   15.5252  -26.8657 C   0  0  0  0  0  0  0  0  0  0  0  0
  -16.7582   14.5129  -26.8849 C   0  0  0  0  0  0  0  0  0  0  0  0
  -16.7737   13.5490  -25.8846 C   0  0  0  0  0  0  0  0  0  0  0  0
  -17.9530   12.2524  -25.8887 Cl  0  0  0  0  0  0  0  0  0  0  0  0
  -15.8617   13.5724  -24.8466 C   0  0  0  0  0  0  0  0  0  0  0  0
 23 24  1  0  0  0
 24 25  2  0  0  0
 25 26  1  0  0  0
 26 27  2  0  0  0
 27 28  1  0  0  0
 28 29  1  0  0  0
 28 30  2  0  0  0
 30 21  1  0  0  0
 21  1  1  0  0  0
  1  2  2  0  0  0
  2  3  1  0  0  0
  3  4  2  0  0  0
  4  5  1  0  0  0
  5  6  2  0  0  0
  6  7  1  0  0  0
  7  8  2  0  0  0
  8  9  1  0  0  0
  9 10  1  0  0  0
 10 11  2  0  0  0
 11 12  1  0  0  0
 12 13  2  0  0  0
  6 14  1  0  0  0
 14 15  1  0  0  0
 15 16  1  0  0  0
 16 17  1  0  0  0
 17 18  1  0  0  0
 18 19  1  0  0  0
 30 24  1  0  0  0
 13  1  1  0  0  0
 19 14  1  0  0  0
  8  3  1  0  0  0
 13  9  1  0  0  0
 21 22  1  0  0  0
 17 20  1  0  0  0
M  END
> <minimizedAffinity>
-10.13029

> <CNNscore>
0.9713301659

> <CNNaffinity>
7.8765563965

> <CNN_VS>
7.6507368088

> <CNNaffinity_variance>
0.0735890046

$$$$
[H]c1c([H])c(Cl)c(N([H])c2nc3c([H])c([H])c(N4C([H])([H])C([H])([H])N([H])C([H])([H])C4([H])[H])c([H])c3n3c([H])nc([H])c23)c(C([H])([H])[H])c1[H]


 30 34  0  0  0  0  0  0  0  0999 V2000
  -16.4547   12.8458  -22.9182 C   0  0  0  0  0  0  0  0  0  0  0  0
  -16.4169   11.8301  -22.0455 N   0  0  0  0  0  0  0  0  0  0  0  0
  -17.2241   11.8249  -20.9455 C   0  0  0  0  0  0  0  0  0  0  0  0
  -17.1933   10.7884  -20.0441 C   0  0  0  0  0  0  0  0  0  0  0  0
  -18.0053   10.7723  -18.9276 C   0  0  0  0  0  0  0  0  0  0  0  0
  -18.8941   11.8041  -18.6605 C   0  0  0  0  0  0  0  0  0  0  0  0
  -18.9175   12.8388  -19.5704 C   0  0  0  0  0  0  0  0  0  0  0  0
  -18.0963   12.8635  -20.7071 C   0  0  0  0  0  0  0  0  0  0  0  0
  -18.1402   13.8774  -21.5699 N   0  0  0  0  0  0  0  0  0  0  0  0
  -18.8745   15.0041  -21.5986 C   0  0  0  0  0  0  0  0  0  0  0  0
  -18.5221   15.6900  -22.7010 N   0  0  0  0  0  0  0  0  0  0  0  0
  -17.5752   15.0243  -23.3799 C   0  0  0  0  0  0  0  0  0  0  0  0
  -17.3297   13.8698  -22.6626 C   0  0  0  0  0  0  0  0  0  0  0  0
  -19.7144   11.7644  -17.5121 N   0  0  0  0  0  0  0  0  0  0  0  0
  -20.4779   12.9446  -17.1866 C   0  0  0  0  0  0  0  0  0  0  0  0
  -21.1012   12.8827  -15.8311 C   0  0  0  0  0  0  0  0  0  0  0  0
  -21.8784   11.6323  -15.8039 N   0  0  0  0  0  0  0  0  0  0  0  0
  -20.9118   10.5763  -15.6978 C   0  0  0  0  0  0  0  0  0  0  0  0
  -19.8042   10.6127  -16.6856 C   0  0  0  0  0  0  0  0  0  0  0  0
  -22.4596   11.6925  -14.9485 H   0  0  0  0  0  0  0  0  0  0  0  0
  -15.6423   12.8686  -24.0413 N   0  0  0  0  0  0  0  0  0  0  0  0
  -14.8323   12.1850  -24.0973 H   0  0  0  0  0  0  0  0  0  0  0  0
  -13.8412   14.9497  -24.2890 C   0  0  0  0  0  0  0  0  0  0  0  0
  -14.8846   14.7712  -25.3072 C   0  0  0  0  0  0  0  0  0  0  0  0
  -14.9832   15.6391  -26.4041 C   0  0  0  0  0  0  0  0  0  0  0  0
  -15.9687   15.4636  -27.3584 C   0  0  0  0  0  0  0  0  0  0  0  0
  -16.8524   14.4173  -27.2083 C   0  0  0  0  0  0  0  0  0  0  0  0
  -16.7511   13.5598  -26.1200 C   0  0  0  0  0  0  0  0  0  0  0  0
  -17.8640   12.2224  -25.9087 Cl  0  0  0  0  0  0  0  0  0  0  0  0
  -15.7705   13.7254  -25.1604 C   0  0  0  0  0  0  0  0  0  0  0  0
 23 24  1  0  0  0
 24 25  2  0  0  0
 25 26  1  0  0  0
 26 27  2  0  0  0
 27 28  1  0  0  0
 28 29  1  0  0  0
 28 30  2  0  0  0
 30 21  1  0  0  0
 21  1  1  0  0  0
  1  2  2  0  0  0
  2  3  1  0  0  0
  3  4  2  0  0  0
  4  5  1  0  0  0
  5  6  2  0  0  0
  6  7  1  0  0  0
  7  8  2  0  0  0
  8  9  1  0  0  0
  9 10  1  0  0  0
 10 11  2  0  0  0
 11 12  1  0  0  0
 12 13  2  0  0  0
  6 14  1  0  0  0
 14 15  1  0  0  0
 15 16  1  0  0  0
 16 17  1  0  0  0
 17 18  1  0  0  0
 18 19  1  0  0  0
 30 24  1  0  0  0
 13  1  1  0  0  0
 19 14  1  0  0  0
  8  3  1  0  0  0
 13  9  1  0  0  0
 21 22  1  0  0  0
 17 20  1  0  0  0
M  END
> <minimizedAffinity>
-10.20181

> <CNNscore>
0.8506620526

> <CNNaffinity>
7.6434516907

> <CNN_VS>
6.5019941330

> <CNNaffinity_variance>
0.0559799895

$$$$
[H]c1c([H])c(Cl)c(N([H])c2nc3c([H])c([H])c(N4C([H])([H])C([H])([H])N([H])C([H])([H])C4([H])[H])c([H])c3n3c([H])nc([H])c23)c(C([H])([H])[H])c1[H]


 30 34  0  0  0  0  0  0  0  0999 V2000
  -17.2282   13.2352  -21.0028 C   0  0  0  0  0  0  0  0  0  0  0  0
  -18.1707   13.5803  -20.1155 N   0  0  0  0  0  0  0  0  0  0  0  0
  -18.6037   12.6909  -19.1759 C   0  0  0  0  0  0  0  0  0  0  0  0
  -19.5699   13.0344  -18.2613 C   0  0  0  0  0  0  0  0  0  0  0  0
  -20.0158   12.1428  -17.3061 C   0  0  0  0  0  0  0  0  0  0  0  0
  -19.5091   10.8535  -17.2227 C   0  0  0  0  0  0  0  0  0  0  0  0
  -18.5407   10.5188  -18.1442 C   0  0  0  0  0  0  0  0  0  0  0  0
  -18.0818   11.4179  -19.1179 C   0  0  0  0  0  0  0  0  0  0  0  0
  -17.1442   11.0665  -19.9964 N   0  0  0  0  0  0  0  0  0  0  0  0
  -16.4658    9.9194  -20.1788 C   0  0  0  0  0  0  0  0  0  0  0  0
  -15.6288   10.1036  -21.2158 N   0  0  0  0  0  0  0  0  0  0  0  0
  -15.7577   11.3476  -21.7020 C   0  0  0  0  0  0  0  0  0  0  0  0
  -16.7218   11.9634  -20.9280 C   0  0  0  0  0  0  0  0  0  0  0  0
  -19.9812    9.9602  -16.2366 N   0  0  0  0  0  0  0  0  0  0  0  0
  -21.2777   10.2170  -15.6581 C   0  0  0  0  0  0  0  0  0  0  0  0
  -21.5619    9.3713  -14.4606 C   0  0  0  0  0  0  0  0  0  0  0  0
  -21.3580    7.9793  -14.8953 N   0  0  0  0  0  0  0  0  0  0  0  0
  -19.9365    7.8110  -15.0054 C   0  0  0  0  0  0  0  0  0  0  0  0
  -19.2249    8.8366  -15.8087 C   0  0  0  0  0  0  0  0  0  0  0  0
  -21.7439    7.3968  -14.1306 H   0  0  0  0  0  0  0  0  0  0  0  0
  -16.7757   14.1252  -21.9646 N   0  0  0  0  0  0  0  0  0  0  0  0
  -15.8322   13.9484  -22.4176 H   0  0  0  0  0  0  0  0  0  0  0  0
  -18.1502   13.9481  -24.3553 C   0  0  0  0  0  0  0  0  0  0  0  0
  -18.1396   15.2193  -23.6195 C   0  0  0  0  0  0  0  0  0  0  0  0
  -18.8154   16.3461  -24.1092 C   0  0  0  0  0  0  0  0  0  0  0  0
  -18.8004   17.5391  -23.4098 C   0  0  0  0  0  0  0  0  0  0  0  0
  -18.1066   17.5972  -22.2208 C   0  0  0  0  0  0  0  0  0  0  0  0
  -17.4385   16.4784  -21.7393 C   0  0  0  0  0  0  0  0  0  0  0  0
  -16.5498   16.5291  -20.2295 Cl  0  0  0  0  0  0  0  0  0  0  0  0
  -17.4467   15.2812  -22.4295 C   0  0  0  0  0  0  0  0  0  0  0  0
 23 24  1  0  0  0
 24 25  2  0  0  0
 25 26  1  0  0  0
 26 27  2  0  0  0
 27 28  1  0  0  0
 28 29  1  0  0  0
 28 30  2  0  0  0
 30 21  1  0  0  0
 21  1  1  0  0  0
  1  2  2  0  0  0
  2  3  1  0  0  0
  3  4  2  0  0  0
  4  5  1  0  0  0
  5  6  2  0  0  0
  6  7  1  0  0  0
  7  8  2  0  0  0
  8  9  1  0  0  0
  9 10  1  0  0  0
 10 11  2  0  0  0
 11 12  1  0  0  0
 12 13  2  0  0  0
  6 14  1  0  0  0
 14 15  1  0  0  0
 15 16  1  0  0  0
 16 17  1  0  0  0
 17 18  1  0  0  0
 18 19  1  0  0  0
 30 24  1  0  0  0
 13  1  1  0  0  0
 19 14  1  0  0  0
  8  3  1  0  0  0
 13  9  1  0  0  0
 21 22  1  0  0  0
 17 20  1  0  0  0
M  END
> <minimizedAffinity>
-8.14549

> <CNNscore>
0.8489176035

> <CNNaffinity>
7.4964780807

> <CNN_VS>
6.3638920784

> <CNNaffinity_variance>
0.1578859389

$$$$
[H]c1c([H])c(Cl)c(N([H])c2nc3c([H])c([H])c(N4C([H])([H])C([H])([H])N([H])C([H])([H])C4([H])[H])c([H])c3n3c([H])nc([H])c23)c(C([H])([H])[H])c1[H]


 30 34  0  0  0  0  0  0  0  0999 V2000
  -18.3691   13.3781  -21.4446 C   0  0  0  0  0  0  0  0  0  0  0  0
  -19.2861   13.7293  -20.5333 N   0  0  0  0  0  0  0  0  0  0  0  0
  -19.4155   13.0307  -19.3685 C   0  0  0  0  0  0  0  0  0  0  0  0
  -20.3527   13.3823  -18.4272 C   0  0  0  0  0  0  0  0  0  0  0  0
  -20.4929   12.6829  -17.2451 C   0  0  0  0  0  0  0  0  0  0  0  0
  -19.6925   11.5884  -16.9491 C   0  0  0  0  0  0  0  0  0  0  0  0
  -18.7559   11.2439  -17.8993 C   0  0  0  0  0  0  0  0  0  0  0  0
  -18.6065   11.9485  -19.1028 C   0  0  0  0  0  0  0  0  0  0  0  0
  -17.6921   11.5925  -20.0035 N   0  0  0  0  0  0  0  0  0  0  0  0
  -16.7819   10.6023  -20.0196 C   0  0  0  0  0  0  0  0  0  0  0  0
  -16.1041   10.6931  -21.1782 N   0  0  0  0  0  0  0  0  0  0  0  0
  -16.5628   11.7231  -21.9057 C   0  0  0  0  0  0  0  0  0  0  0  0
  -17.5739   12.2980  -21.1608 C   0  0  0  0  0  0  0  0  0  0  0  0
  -19.8549   10.8897  -15.7331 N   0  0  0  0  0  0  0  0  0  0  0  0
  -20.2900   11.6368  -14.5780 C   0  0  0  0  0  0  0  0  0  0  0  0
  -20.1816   10.8626  -13.3057 C   0  0  0  0  0  0  0  0  0  0  0  0
  -20.9248    9.6119  -13.5328 N   0  0  0  0  0  0  0  0  0  0  0  0
  -20.0958    8.8185  -14.3954 C   0  0  0  0  0  0  0  0  0  0  0  0
  -19.6051    9.4958  -15.6219 C   0  0  0  0  0  0  0  0  0  0  0  0
  -21.0142    9.1756  -12.5975 H   0  0  0  0  0  0  0  0  0  0  0  0
  -18.2228   14.0757  -22.6336 N   0  0  0  0  0  0  0  0  0  0  0  0
  -19.0936   14.4316  -23.1252 H   0  0  0  0  0  0  0  0  0  0  0  0
  -17.7859   12.9584  -25.1230 C   0  0  0  0  0  0  0  0  0  0  0  0
  -16.7649   13.8351  -24.5344 C   0  0  0  0  0  0  0  0  0  0  0  0
  -15.5709   14.1156  -25.2140 C   0  0  0  0  0  0  0  0  0  0  0  0
  -14.6150   14.9423  -24.6524 C   0  0  0  0  0  0  0  0  0  0  0  0
  -14.8607   15.4847  -23.4101 C   0  0  0  0  0  0  0  0  0  0  0  0
  -16.0450   15.2042  -22.7402 C   0  0  0  0  0  0  0  0  0  0  0  0
  -16.3789   15.8831  -21.1593 Cl  0  0  0  0  0  0  0  0  0  0  0  0
  -17.0073   14.3798  -23.2916 C   0  0  0  0  0  0  0  0  0  0  0  0
 23 24  1  0  0  0
 24 25  2  0  0  0
 25 26  1  0  0  0
 26 27  2  0  0  0
 27 28  1  0  0  0
 28 29  1  0  0  0
 28 30  2  0  0  0
 30 21  1  0  0  0
 21  1  1  0  0  0
  1  2  2  0  0  0
  2  3  1  0  0  0
  3  4  2  0  0  0
  4  5  1  0  0  0
  5  6  2  0  0  0
  6  7  1  0  0  0
  7  8  2  0  0  0
  8  9  1  0  0  0
  9 10  1  0  0  0
 10 11  2  0  0  0
 11 12  1  0  0  0
 12 13  2  0  0  0
  6 14  1  0  0  0
 14 15  1  0  0  0
 15 16  1  0  0  0
 16 17  1  0  0  0
 17 18  1  0  0  0
 18 19  1  0  0  0
 30 24  1  0  0  0
 13  1  1  0  0  0
 19 14  1  0  0  0
  8  3  1  0  0  0
 13  9  1  0  0  0
 21 22  1  0  0  0
 17 20  1  0  0  0
M  END
> <minimizedAffinity>
-8.52715

> <CNNscore>
0.8013477921

> <CNNaffinity>
7.4758925438

> <CNN_VS>
5.9907898903

> <CNNaffinity_variance>
0.2096475661

$$$$
[H]c1c([H])c(Cl)c(N([H])c2nc3c([H])c([H])c(N4C([H])([H])C([H])([H])N([H])C([H])([H])C4([H])[H])c([H])c3n3c([H])nc([H])c23)c(C([H])([H])[H])c1[H]


 30 34  0  0  0  0  0  0  0  0999 V2000
  -18.8621   13.0556  -20.0212 C   0  0  0  0  0  0  0  0  0  0  0  0
  -19.6998   13.1144  -18.9775 N   0  0  0  0  0  0  0  0  0  0  0  0
  -19.6858   12.1466  -18.0160 C   0  0  0  0  0  0  0  0  0  0  0  0
  -20.5408   12.1972  -16.9415 C   0  0  0  0  0  0  0  0  0  0  0  0
  -20.5357   11.2235  -15.9626 C   0  0  0  0  0  0  0  0  0  0  0  0
  -19.6652   10.1440  -16.0160 C   0  0  0  0  0  0  0  0  0  0  0  0
  -18.8119   10.1024  -17.0973 C   0  0  0  0  0  0  0  0  0  0  0  0
  -18.8102   11.0868  -18.0963 C   0  0  0  0  0  0  0  0  0  0  0  0
  -17.9737   11.0206  -19.1308 N   0  0  0  0  0  0  0  0  0  0  0  0
  -17.0286   10.1250  -19.4686 C   0  0  0  0  0  0  0  0  0  0  0  0
  -16.4713   10.5386  -20.6211 N   0  0  0  0  0  0  0  0  0  0  0  0
  -17.0415   11.6828  -21.0289 C   0  0  0  0  0  0  0  0  0  0  0  0
  -17.9984   11.9926  -20.0823 C   0  0  0  0  0  0  0  0  0  0  0  0
  -19.6790    9.1613  -15.0023 N   0  0  0  0  0  0  0  0  0  0  0  0
  -20.0640    7.8198  -15.3678 C   0  0  0  0  0  0  0  0  0  0  0  0
  -20.2898    6.9338  -14.1872 C   0  0  0  0  0  0  0  0  0  0  0  0
  -19.0573    7.0126  -13.3852 N   0  0  0  0  0  0  0  0  0  0  0  0
  -19.0852    8.3026  -12.7558 C   0  0  0  0  0  0  0  0  0  0  0  0
  -19.3295    9.4562  -13.6575 C   0  0  0  0  0  0  0  0  0  0  0  0
  -19.1405    6.2544  -12.6844 H   0  0  0  0  0  0  0  0  0  0  0  0
  -18.8616   14.0295  -21.0077 N   0  0  0  0  0  0  0  0  0  0  0  0
  -19.6520   14.0366  -21.7160 H   0  0  0  0  0  0  0  0  0  0  0  0
  -17.5979   14.1970  -23.4595 C   0  0  0  0  0  0  0  0  0  0  0  0
  -17.2535   15.1557  -22.4013 C   0  0  0  0  0  0  0  0  0  0  0  0
  -16.2936   16.1556  -22.6133 C   0  0  0  0  0  0  0  0  0  0  0  0
  -15.9754   17.0542  -21.6113 C   0  0  0  0  0  0  0  0  0  0  0  0
  -16.6219   16.9461  -20.3995 C   0  0  0  0  0  0  0  0  0  0  0  0
  -17.5723   15.9539  -20.1938 C   0  0  0  0  0  0  0  0  0  0  0  0
  -18.4072   15.7974  -18.6607 Cl  0  0  0  0  0  0  0  0  0  0  0  0
  -17.8983   15.0506  -21.1876 C   0  0  0  0  0  0  0  0  0  0  0  0
 23 24  1  0  0  0
 24 25  2  0  0  0
 25 26  1  0  0  0
 26 27  2  0  0  0
 27 28  1  0  0  0
 28 29  1  0  0  0
 28 30  2  0  0  0
 30 21  1  0  0  0
 21  1  1  0  0  0
  1  2  2  0  0  0
  2  3  1  0  0  0
  3  4  2  0  0  0
  4  5  1  0  0  0
  5  6  2  0  0  0
  6  7  1  0  0  0
  7  8  2  0  0  0
  8  9  1  0  0  0
  9 10  1  0  0  0
 10 11  2  0  0  0
 11 12  1  0  0  0
 12 13  2  0  0  0
  6 14  1  0  0  0
 14 15  1  0  0  0
 15 16  1  0  0  0
 16 17  1  0  0  0
 17 18  1  0  0  0
 18 19  1  0  0  0
 30 24  1  0  0  0
 13  1  1  0  0  0
 19 14  1  0  0  0
  8  3  1  0  0  0
 13  9  1  0  0  0
 21 22  1  0  0  0
 17 20  1  0  0  0
M  END
> <minimizedAffinity>
-8.31765

> <CNNscore>
0.7987872958

> <CNNaffinity>
7.2850008011

> <CNN_VS>
5.8191661835

> <CNNaffinity_variance>
0.1056706309

$$$$
[H]c1c([H])c(Cl)c(N([H])c2nc3c([H])c([H])c(N4C([H])([H])C([H])([H])N([H])C([H])([H])C4([H])[H])c([H])c3n3c([H])nc([H])c23)c(C([H])([H])[H])c1[H]


 30 34  0  0  0  0  0  0  0  0999 V2000
  -17.5358   13.2379  -20.3224 C   0  0  0  0  0  0  0  0  0  0  0  0
  -18.5028   13.8866  -19.6599 N   0  0  0  0  0  0  0  0  0  0  0  0
  -19.2083   13.2658  -18.6708 C   0  0  0  0  0  0  0  0  0  0  0  0
  -20.2021   13.9217  -17.9851 C   0  0  0  0  0  0  0  0  0  0  0  0
  -20.9226   13.3038  -16.9825 C   0  0  0  0  0  0  0  0  0  0  0  0
  -20.6779   11.9875  -16.6173 C   0  0  0  0  0  0  0  0  0  0  0  0
  -19.6795   11.3384  -17.3107 C   0  0  0  0  0  0  0  0  0  0  0  0
  -18.9426   11.9581  -18.3306 C   0  0  0  0  0  0  0  0  0  0  0  0
  -17.9827   11.3058  -18.9843 N   0  0  0  0  0  0  0  0  0  0  0  0
  -17.5107   10.0511  -18.8738 C   0  0  0  0  0  0  0  0  0  0  0  0
  -16.5296    9.9052  -19.7827 N   0  0  0  0  0  0  0  0  0  0  0  0
  -16.3635   11.0431  -20.4742 C   0  0  0  0  0  0  0  0  0  0  0  0
  -17.2871   11.9370  -19.9685 C   0  0  0  0  0  0  0  0  0  0  0  0
  -21.4281   11.3778  -15.5883 N   0  0  0  0  0  0  0  0  0  0  0  0
  -21.4528   12.0227  -14.2979 C   0  0  0  0  0  0  0  0  0  0  0  0
  -22.0549   11.1707  -13.2296 C   0  0  0  0  0  0  0  0  0  0  0  0
  -23.3803   10.7732  -13.7331 N   0  0  0  0  0  0  0  0  0  0  0  0
  -23.1312    9.7877  -14.7469 C   0  0  0  0  0  0  0  0  0  0  0  0
  -22.1452   10.1682  -15.7893 C   0  0  0  0  0  0  0  0  0  0  0  0
  -23.8660   10.3556  -12.9190 H   0  0  0  0  0  0  0  0  0  0  0  0
  -16.8084   13.8520  -21.3302 N   0  0  0  0  0  0  0  0  0  0  0  0
  -15.9120   14.3593  -21.0738 H   0  0  0  0  0  0  0  0  0  0  0  0
  -18.7032   15.6784  -22.1729 C   0  0  0  0  0  0  0  0  0  0  0  0
  -18.0734   14.7848  -23.1539 C   0  0  0  0  0  0  0  0  0  0  0  0
  -18.4170   14.8420  -24.5121 C   0  0  0  0  0  0  0  0  0  0  0  0
  -17.8189   13.9969  -25.4290 C   0  0  0  0  0  0  0  0  0  0  0  0
  -16.8777   13.0968  -24.9794 C   0  0  0  0  0  0  0  0  0  0  0  0
  -16.5403   13.0435  -23.6329 C   0  0  0  0  0  0  0  0  0  0  0  0
  -15.3460   11.9068  -23.0384 Cl  0  0  0  0  0  0  0  0  0  0  0  0
  -17.1313   13.8830  -22.7077 C   0  0  0  0  0  0  0  0  0  0  0  0
 23 24  1  0  0  0
 24 25  2  0  0  0
 25 26  1  0  0  0
 26 27  2  0  0  0
 27 28  1  0  0  0
 28 29  1  0  0  0
 28 30  2  0  0  0
 30 21  1  0  0  0
 21  1  1  0  0  0
  1  2  2  0  0  0
  2  3  1  0  0  0
  3  4  2  0  0  0
  4  5  1  0  0  0
  5  6  2  0  0  0
  6  7  1  0  0  0
  7  8  2  0  0  0
  8  9  1  0  0  0
  9 10  1  0  0  0
 10 11  2  0  0  0
 11 12  1  0  0  0
 12 13  2  0  0  0
  6 14  1  0  0  0
 14 15  1  0  0  0
 15 16  1  0  0  0
 16 17  1  0  0  0
 17 18  1  0  0  0
 18 19  1  0  0  0
 30 24  1  0  0  0
 13  1  1  0  0  0
 19 14  1  0  0  0
  8  3  1  0  0  0
 13  9  1  0  0  0
 21 22  1  0  0  0
 17 20  1  0  0  0
M  END
> <minimizedAffinity>
-8.28934

> <CNNscore>
0.7963527441

> <CNNaffinity>
7.2190055847

> <CNN_VS>
5.7488751411

> <CNNaffinity_variance>
0.0802944601

$$$$
[H]c1c([H])c(Cl)c(N([H])c2nc3c([H])c([H])c(N4C([H])([H])C([H])([H])N([H])C([H])([H])C4([H])[H])c([H])c3n3c([H])nc([H])c23)c(C([H])([H])[H])c1[H]


 30 34  0  0  0  0  0  0  0  0999 V2000
  -16.6785   13.4822  -22.7652 C   0  0  0  0  0  0  0  0  0  0  0  0
  -16.9982   14.7700  -22.5810 N   0  0  0  0  0  0  0  0  0  0  0  0
  -17.5439   15.1920  -21.4039 C   0  0  0  0  0  0  0  0  0  0  0  0
  -17.8756   16.5105  -21.2045 C   0  0  0  0  0  0  0  0  0  0  0  0
  -18.4283   16.9490  -20.0178 C   0  0  0  0  0  0  0  0  0  0  0  0
  -18.6765   16.0781  -18.9661 C   0  0  0  0  0  0  0  0  0  0  0  0
  -18.3404   14.7583  -19.1759 C   0  0  0  0  0  0  0  0  0  0  0  0
  -17.7786   14.3039  -20.3781 C   0  0  0  0  0  0  0  0  0  0  0  0
  -17.4637   13.0215  -20.5529 N   0  0  0  0  0  0  0  0  0  0  0  0
  -17.5756   11.9492  -19.7486 C   0  0  0  0  0  0  0  0  0  0  0  0
  -17.1049   10.8849  -20.4237 N   0  0  0  0  0  0  0  0  0  0  0  0
  -16.6932   11.2547  -21.6461 C   0  0  0  0  0  0  0  0  0  0  0  0
  -16.9202   12.6144  -21.7318 C   0  0  0  0  0  0  0  0  0  0  0  0
  -19.2422   16.5510  -17.7621 N   0  0  0  0  0  0  0  0  0  0  0  0
  -20.0169   15.6259  -16.9711 C   0  0  0  0  0  0  0  0  0  0  0  0
  -20.7717   16.2897  -15.8668 C   0  0  0  0  0  0  0  0  0  0  0  0
  -19.7724   17.0525  -15.1002 N   0  0  0  0  0  0  0  0  0  0  0  0
  -19.4427   18.1883  -15.9139 C   0  0  0  0  0  0  0  0  0  0  0  0
  -19.0702   17.8896  -17.3195 C   0  0  0  0  0  0  0  0  0  0  0  0
  -20.2596   17.3440  -14.2337 H   0  0  0  0  0  0  0  0  0  0  0  0
  -16.1232   13.0348  -23.9541 N   0  0  0  0  0  0  0  0  0  0  0  0
  -15.7164   12.0550  -23.9886 H   0  0  0  0  0  0  0  0  0  0  0  0
  -18.0013   12.5104  -25.9121 C   0  0  0  0  0  0  0  0  0  0  0  0
  -16.9566   13.5123  -26.1617 C   0  0  0  0  0  0  0  0  0  0  0  0
  -16.8952   14.2083  -27.3774 C   0  0  0  0  0  0  0  0  0  0  0  0
  -15.9082   15.1502  -27.6040 C   0  0  0  0  0  0  0  0  0  0  0  0
  -14.9857   15.3903  -26.6092 C   0  0  0  0  0  0  0  0  0  0  0  0
  -15.0502   14.6984  -25.4063 C   0  0  0  0  0  0  0  0  0  0  0  0
  -13.8877   14.9875  -24.1269 Cl  0  0  0  0  0  0  0  0  0  0  0  0
  -16.0320   13.7552  -25.1687 C   0  0  0  0  0  0  0  0  0  0  0  0
 23 24  1  0  0  0
 24 25  2  0  0  0
 25 26  1  0  0  0
 26 27  2  0  0  0
 27 28  1  0  0  0
 28 29  1  0  0  0
 28 30  2  0  0  0
 30 21  1  0  0  0
 21  1  1  0  0  0
  1  2  2  0  0  0
  2  3  1  0  0  0
  3  4  2  0  0  0
  4  5  1  0  0  0
  5  6  2  0  0  0
  6  7  1  0  0  0
  7  8  2  0  0  0
  8  9  1  0  0  0
  9 10  1  0  0  0
 10 11  2  0  0  0
 11 12  1  0  0  0
 12 13  2  0  0  0
  6 14  1  0  0  0
 14 15  1  0  0  0
 15 16  1  0  0  0
 16 17  1  0  0  0
 17 18  1  0  0  0
 18 19  1  0  0  0
 30 24  1  0  0  0
 13  1  1  0  0  0
 19 14  1  0  0  0
  8  3  1  0  0  0
 13  9  1  0  0  0
 21 22  1  0  0  0
 17 20  1  0  0  0
M  END
> <minimizedAffinity>
-9.49826

> <CNNscore>
0.7812573314

> <CNNaffinity>
7.5259714127

> <CNN_VS>
5.8797202110

> <CNNaffinity_variance>
0.0444343798

$$$$
[H]c1c([H])c(Cl)c(N([H])c2nc3c([H])c([H])c(N4C([H])([H])C([H])([H])N([H])C([H])([H])C4([H])[H])c([H])c3n3c([H])nc([H])c23)c(C([H])([H])[H])c1[H]


 30 34  0  0  0  0  0  0  0  0999 V2000
  -17.4375   13.7509  -20.5252 C   0  0  0  0  0  0  0  0  0  0  0  0
  -18.2255   14.3090  -19.5966 N   0  0  0  0  0  0  0  0  0  0  0  0
  -18.8266   13.5439  -18.6402 C   0  0  0  0  0  0  0  0  0  0  0  0
  -19.6367   14.1061  -17.6833 C   0  0  0  0  0  0  0  0  0  0  0  0
  -20.2503   13.3419  -16.7107 C   0  0  0  0  0  0  0  0  0  0  0  0
  -20.0785   11.9661  -16.6518 C   0  0  0  0  0  0  0  0  0  0  0  0
  -19.2643   11.4120  -17.6156 C   0  0  0  0  0  0  0  0  0  0  0  0
  -18.6371   12.1804  -18.6073 C   0  0  0  0  0  0  0  0  0  0  0  0
  -17.8551   11.6173  -19.5269 N   0  0  0  0  0  0  0  0  0  0  0  0
  -17.4930   10.3396  -19.7408 C   0  0  0  0  0  0  0  0  0  0  0  0
  -16.6812   10.3222  -20.8134 N   0  0  0  0  0  0  0  0  0  0  0  0
  -16.5159   11.5651  -21.2916 C   0  0  0  0  0  0  0  0  0  0  0  0
  -17.2619   12.3921  -20.4748 C   0  0  0  0  0  0  0  0  0  0  0  0
  -20.7164   11.2065  -15.6471 N   0  0  0  0  0  0  0  0  0  0  0  0
  -20.2563   11.3620  -14.2885 C   0  0  0  0  0  0  0  0  0  0  0  0
  -20.8180   10.3367  -13.3596 C   0  0  0  0  0  0  0  0  0  0  0  0
  -22.2802   10.4122  -13.5159 N   0  0  0  0  0  0  0  0  0  0  0  0
  -22.5673    9.8040  -14.7842 C   0  0  0  0  0  0  0  0  0  0  0  0
  -21.7798   10.3102  -15.9363 C   0  0  0  0  0  0  0  0  0  0  0  0
  -22.6659    9.8488  -12.7368 H   0  0  0  0  0  0  0  0  0  0  0  0
  -16.8183   14.5118  -21.5046 N   0  0  0  0  0  0  0  0  0  0  0  0
  -15.8436   14.2366  -21.8224 H   0  0  0  0  0  0  0  0  0  0  0  0
  -16.4071   16.9785  -20.3287 C   0  0  0  0  0  0  0  0  0  0  0  0
  -17.1599   16.8936  -21.5870 C   0  0  0  0  0  0  0  0  0  0  0  0
  -17.6744   18.0434  -22.2031 C   0  0  0  0  0  0  0  0  0  0  0  0
  -18.3820   17.9543  -23.3880 C   0  0  0  0  0  0  0  0  0  0  0  0
  -18.5711   16.7110  -23.9507 C   0  0  0  0  0  0  0  0  0  0  0  0
  -18.0596   15.5745  -23.3370 C   0  0  0  0  0  0  0  0  0  0  0  0
  -18.2878   13.9829  -24.0347 Cl  0  0  0  0  0  0  0  0  0  0  0  0
  -17.3510   15.6514  -22.1530 C   0  0  0  0  0  0  0  0  0  0  0  0
 23 24  1  0  0  0
 24 25  2  0  0  0
 25 26  1  0  0  0
 26 27  2  0  0  0
 27 28  1  0  0  0
 28 29  1  0  0  0
 28 30  2  0  0  0
 30 21  1  0  0  0
 21  1  1  0  0  0
  1  2  2  0  0  0
  2  3  1  0  0  0
  3  4  2  0  0  0
  4  5  1  0  0  0
  5  6  2  0  0  0
  6  7  1  0  0  0
  7  8  2  0  0  0
  8  9  1  0  0  0
  9 10  1  0  0  0
 10 11  2  0  0  0
 11 12  1  0  0  0
 12 13  2  0  0  0
  6 14  1  0  0  0
 14 15  1  0  0  0
 15 16  1  0  0  0
 16 17  1  0  0  0
 17 18  1  0  0  0
 18 19  1  0  0  0
 30 24  1  0  0  0
 13  1  1  0  0  0
 19 14  1  0  0  0
  8  3  1  0  0  0
 13  9  1  0  0  0
 21 22  1  0  0  0
 17 20  1  0  0  0
M  END
> <minimizedAffinity>
-7.34944

> <CNNscore>
0.6751375198

> <CNNaffinity>
7.1359682083

> <CNN_VS>
4.8177599907

> <CNNaffinity_variance>
0.1745470166

$$$$
[H]c1c([H])c(Cl)c(N([H])c2nc3c([H])c([H])c(N4C([H])([H])C([H])([H])N([H])C([H])([H])C4([H])[H])c([H])c3n3c([H])nc([H])c23)c(C([H])([H])[H])c1[H]


 30 34  0  0  0  0  0  0  0  0999 V2000
  -16.1520   13.6396  -23.2259 C   0  0  0  0  0  0  0  0  0  0  0  0
  -16.6756   12.5743  -22.6049 N   0  0  0  0  0  0  0  0  0  0  0  0
  -17.4514   12.7264  -21.4929 C   0  0  0  0  0  0  0  0  0  0  0  0
  -17.9932   11.6406  -20.8483 C   0  0  0  0  0  0  0  0  0  0  0  0
  -18.7796   11.7822  -19.7223 C   0  0  0  0  0  0  0  0  0  0  0  0
  -19.0617   13.0305  -19.1854 C   0  0  0  0  0  0  0  0  0  0  0  0
  -18.5138   14.1128  -19.8390 C   0  0  0  0  0  0  0  0  0  0  0  0
  -17.7139   13.9784  -20.9832 C   0  0  0  0  0  0  0  0  0  0  0  0
  -17.1972   15.0431  -21.5945 N   0  0  0  0  0  0  0  0  0  0  0  0
  -17.2792   16.3598  -21.3325 C   0  0  0  0  0  0  0  0  0  0  0  0
  -16.5637   17.0056  -22.2711 N   0  0  0  0  0  0  0  0  0  0  0  0
  -16.0241   16.1274  -23.1303 C   0  0  0  0  0  0  0  0  0  0  0  0
  -16.4254   14.8769  -22.7025 C   0  0  0  0  0  0  0  0  0  0  0  0
  -19.8690   13.1493  -18.0331 N   0  0  0  0  0  0  0  0  0  0  0  0
  -19.9500   12.0146  -17.1456 C   0  0  0  0  0  0  0  0  0  0  0  0
  -21.0175   12.1560  -16.1112 C   0  0  0  0  0  0  0  0  0  0  0  0
  -20.7526   13.4365  -15.4341 N   0  0  0  0  0  0  0  0  0  0  0  0
  -21.1492   14.4566  -16.3631 C   0  0  0  0  0  0  0  0  0  0  0  0
  -20.5892   14.3361  -17.7326 C   0  0  0  0  0  0  0  0  0  0  0  0
  -21.3660   13.4342  -14.5993 H   0  0  0  0  0  0  0  0  0  0  0  0
  -15.3616   13.5050  -24.3568 N   0  0  0  0  0  0  0  0  0  0  0  0
  -14.5044   12.8810  -24.3071 H   0  0  0  0  0  0  0  0  0  0  0  0
  -17.6535   12.8494  -25.7545 C   0  0  0  0  0  0  0  0  0  0  0  0
  -16.7059   13.8127  -26.3303 C   0  0  0  0  0  0  0  0  0  0  0  0
  -16.9437   14.4063  -27.5782 C   0  0  0  0  0  0  0  0  0  0  0  0
  -16.0461   15.3125  -28.1128 C   0  0  0  0  0  0  0  0  0  0  0  0
  -14.9123   15.6198  -27.3930 C   0  0  0  0  0  0  0  0  0  0  0  0
  -14.6806   15.0293  -26.1570 C   0  0  0  0  0  0  0  0  0  0  0  0
  -13.2454   15.4051  -25.2238 Cl  0  0  0  0  0  0  0  0  0  0  0  0
  -15.5704   14.1226  -25.6129 C   0  0  0  0  0  0  0  0  0  0  0  0
 23 24  1  0  0  0
 24 25  2  0  0  0
 25 26  1  0  0  0
 26 27  2  0  0  0
 27 28  1  0  0  0
 28 29  1  0  0  0
 28 30  2  0  0  0
 30 21  1  0  0  0
 21  1  1  0  0  0
  1  2  2  0  0  0
  2  3  1  0  0  0
  3  4  2  0  0  0
  4  5  1  0  0  0
  5  6  2  0  0  0
  6  7  1  0  0  0
  7  8  2  0  0  0
  8  9  1  0  0  0
  9 10  1  0  0  0
 10 11  2  0  0  0
 11 12  1  0  0  0
 12 13  2  0  0  0
  6 14  1  0  0  0
 14 15  1  0  0  0
 15 16  1  0  0  0
 16 17  1  0  0  0
 17 18  1  0  0  0
 18 19  1  0  0  0
 30 24  1  0  0  0
 13  1  1  0  0  0
 19 14  1  0  0  0
  8  3  1  0  0  0
 13  9  1  0  0  0
 21 22  1  0  0  0
 17 20  1  0  0  0
M  END
> <minimizedAffinity>
-8.99833

> <CNNscore>
0.4524438083

> <CNNaffinity>
7.3335418701

> <CNN_VS>
3.3180155754

> <CNNaffinity_variance>
0.1812310517

$$$$
[H]c1nc(N([H])[H])c2c(n1)c(-c1c([H])c([H])nc(N([H])C([H])([H])C([H])([H])C([H])([H])[C@@]([H])(N([H])C([H])([H])[H])C([H])([H])[H])c1[H])c([H])n2-c1c([H])c([H])c(Oc2c([H])c([H])c([H])c([H])c2[H])c([H])c1[H]


 41 45  0  0  0  0  0  0  0  0999 V2000
  -17.8827   13.2894  -21.3895 C   0  0  0  0  0  0  0  0  0  0  0  0
  -18.6693   13.4141  -20.2702 C   0  0  0  0  0  0  0  0  0  0  0  0
  -18.4049   12.4299  -19.3741 N   0  0  0  0  0  0  0  0  0  0  0  0
  -17.4327   11.6616  -19.9283 C   0  0  0  0  0  0  0  0  0  0  0  0
  -16.7738   10.5383  -19.4911 C   0  0  0  0  0  0  0  0  0  0  0  0
  -17.1045    9.9931  -18.2155 N   0  0  0  0  0  0  0  0  0  0  0  0
  -15.8347    9.9804  -20.2753 N   0  0  0  0  0  0  0  0  0  0  0  0
  -15.5037   10.4700  -21.4779 C   0  0  0  0  0  0  0  0  0  0  0  0
  -16.1449   11.5678  -21.9100 N   0  0  0  0  0  0  0  0  0  0  0  0
  -17.0921   12.1803  -21.1861 C   0  0  0  0  0  0  0  0  0  0  0  0
  -17.9031    9.3281  -18.1744 H   0  0  0  0  0  0  0  0  0  0  0  0
  -16.6081   10.2060  -17.3277 H   0  0  0  0  0  0  0  0  0  0  0  0
  -18.0899   16.1665  -23.7240 C   0  0  0  0  0  0  0  0  0  0  0  0
  -18.1640   15.4560  -22.5479 C   0  0  0  0  0  0  0  0  0  0  0  0
  -17.8339   14.1154  -22.5851 C   0  0  0  0  0  0  0  0  0  0  0  0
  -17.4500   13.5622  -23.7890 C   0  0  0  0  0  0  0  0  0  0  0  0
  -17.3771   14.2779  -24.9652 C   0  0  0  0  0  0  0  0  0  0  0  0
  -17.7115   15.5933  -24.8785 N   0  0  0  0  0  0  0  0  0  0  0  0
  -18.4217   17.5365  -23.7195 N   0  0  0  0  0  0  0  0  0  0  0  0
  -17.7099   18.2499  -23.9655 H   0  0  0  0  0  0  0  0  0  0  0  0
  -19.7557   17.9534  -23.3720 C   0  0  0  0  0  0  0  0  0  0  0  0
  -19.7969   18.8268  -22.1568 C   0  0  0  0  0  0  0  0  0  0  0  0
  -18.4358   19.2186  -21.6599 C   0  0  0  0  0  0  0  0  0  0  0  0
  -18.1510   18.6028  -20.2995 C   0  0  0  0  0  0  0  0  0  0  0  0
  -18.7980   19.4113  -19.1953 C   0  0  0  0  0  0  0  0  0  0  0  0
  -16.0834   17.4020  -20.2342 C   0  0  0  0  0  0  0  0  0  0  0  0
  -16.7084   18.7163  -20.0957 N   0  0  0  0  0  0  0  0  0  0  0  0
  -16.2859   19.4032  -20.7618 H   0  0  0  0  0  0  0  0  0  0  0  0
  -18.9951   12.2138  -18.1160 C   0  0  0  0  0  0  0  0  0  0  0  0
  -18.8725   13.1280  -17.0991 C   0  0  0  0  0  0  0  0  0  0  0  0
  -19.4721   12.8986  -15.8542 C   0  0  0  0  0  0  0  0  0  0  0  0
  -20.1931   11.7393  -15.6520 C   0  0  0  0  0  0  0  0  0  0  0  0
  -20.3202   10.8155  -16.6712 C   0  0  0  0  0  0  0  0  0  0  0  0
  -19.7197   11.0720  -17.8789 C   0  0  0  0  0  0  0  0  0  0  0  0
  -20.8074   11.4794  -14.4126 O   0  0  0  0  0  0  0  0  0  0  0  0
  -20.1681   10.6810  -13.4833 C   0  0  0  0  0  0  0  0  0  0  0  0
  -20.1513   11.0761  -12.1704 C   0  0  0  0  0  0  0  0  0  0  0  0
  -19.5090   10.2676  -11.2566 C   0  0  0  0  0  0  0  0  0  0  0  0
  -18.8903    9.0864  -11.6249 C   0  0  0  0  0  0  0  0  0  0  0  0
  -18.9317    8.7299  -12.9507 C   0  0  0  0  0  0  0  0  0  0  0  0
  -19.5693    9.5204  -13.8942 C   0  0  0  0  0  0  0  0  0  0  0  0
 26 27  1  0  0  0
 27 24  1  0  0  0
 24 25  1  0  0  0
 24 23  1  0  0  0
 23 22  1  0  0  0
 22 21  1  0  0  0
 21 19  1  0  0  0
 19 13  1  0  0  0
 13 14  2  0  0  0
 14 15  1  0  0  0
 15 16  2  0  0  0
 16 17  1  0  0  0
 17 18  2  0  0  0
 15  1  1  0  0  0
  1  2  2  0  0  0
  2  3  1  0  0  0
  3 29  1  0  0  0
 29 30  2  0  0  0
 30 31  1  0  0  0
 31 32  2  0  0  0
 32 35  1  0  0  0
 35 36  1  0  0  0
 36 37  2  0  0  0
 37 38  1  0  0  0
 38 39  2  0  0  0
 39 40  1  0  0  0
 40 41  2  0  0  0
 32 33  1  0  0  0
 33 34  2  0  0  0
  3  4  1  0  0  0
  4  5  2  0  0  0
  5  6  1  0  0  0
  5  7  1  0  0  0
  7  8  2  0  0  0
  8  9  1  0  0  0
  9 10  2  0  0  0
 18 13  1  0  0  0
 10  1  1  0  0  0
 34 29  1  0  0  0
 10  4  1  0  0  0
 41 36  1  0  0  0
 27 28  1  0  0  0
 19 20  1  0  0  0
  6 11  1  0  0  0
  6 12  1  0  0  0
M  END
> <minimizedAffinity>
-8.13937

> <CNNscore>
0.7648239136

> <CNNaffinity>
7.7961959839

> <CNN_VS>
5.9627170563

> <CNNaffinity_variance>
0.0152116390

$$$$
[H]c1nc(N([H])[H])c2c(n1)c(-c1c([H])c([H])nc(N([H])C([H])([H])C([H])([H])C([H])([H])[C@@]([H])(N([H])C([H])([H])[H])C([H])([H])[H])c1[H])c([H])n2-c1c([H])c([H])c(Oc2c([H])c([H])c([H])c([H])c2[H])c([H])c1[H]


 41 45  0  0  0  0  0  0  0  0999 V2000
  -17.8004   13.2543  -21.4723 C   0  0  0  0  0  0  0  0  0  0  0  0
  -18.5949   13.4107  -20.3626 C   0  0  0  0  0  0  0  0  0  0  0  0
  -18.3481   12.4433  -19.4436 N   0  0  0  0  0  0  0  0  0  0  0  0
  -17.3795   11.6534  -19.9731 C   0  0  0  0  0  0  0  0  0  0  0  0
  -16.7359   10.5330  -19.5066 C   0  0  0  0  0  0  0  0  0  0  0  0
  -17.0828   10.0185  -18.2226 N   0  0  0  0  0  0  0  0  0  0  0  0
  -15.7963    9.9489  -20.2708 N   0  0  0  0  0  0  0  0  0  0  0  0
  -15.4503   10.4093  -21.4807 C   0  0  0  0  0  0  0  0  0  0  0  0
  -16.0764   11.5042  -21.9414 N   0  0  0  0  0  0  0  0  0  0  0  0
  -17.0232   12.1417  -21.2387 C   0  0  0  0  0  0  0  0  0  0  0  0
  -17.8886    9.3627  -18.1741 H   0  0  0  0  0  0  0  0  0  0  0  0
  -16.5915   10.2452  -17.3354 H   0  0  0  0  0  0  0  0  0  0  0  0
  -17.8922   16.0965  -23.8564 C   0  0  0  0  0  0  0  0  0  0  0  0
  -17.9780   15.4132  -22.6651 C   0  0  0  0  0  0  0  0  0  0  0  0
  -17.7332   14.0540  -22.6847 C   0  0  0  0  0  0  0  0  0  0  0  0
  -17.4178   13.4563  -23.8873 C   0  0  0  0  0  0  0  0  0  0  0  0
  -17.3329   14.1449  -25.0787 C   0  0  0  0  0  0  0  0  0  0  0  0
  -17.5822   15.4800  -25.0091 N   0  0  0  0  0  0  0  0  0  0  0  0
  -18.1378   17.4844  -23.8700 N   0  0  0  0  0  0  0  0  0  0  0  0
  -17.5002   18.1254  -24.3785 H   0  0  0  0  0  0  0  0  0  0  0  0
  -19.2795   18.0208  -23.1750 C   0  0  0  0  0  0  0  0  0  0  0  0
  -18.9707   19.2824  -22.4305 C   0  0  0  0  0  0  0  0  0  0  0  0
  -17.8911   19.1159  -21.4011 C   0  0  0  0  0  0  0  0  0  0  0  0
  -18.3941   18.3282  -20.2021 C   0  0  0  0  0  0  0  0  0  0  0  0
  -18.9396   19.2558  -19.1375 C   0  0  0  0  0  0  0  0  0  0  0  0
  -16.0756   17.8303  -20.5152 C   0  0  0  0  0  0  0  0  0  0  0  0
  -17.2201   17.6832  -19.6177 N   0  0  0  0  0  0  0  0  0  0  0  0
  -17.0061   18.0746  -18.6717 H   0  0  0  0  0  0  0  0  0  0  0  0
  -18.9509   12.2601  -18.1862 C   0  0  0  0  0  0  0  0  0  0  0  0
  -19.6543   11.1198  -17.8867 C   0  0  0  0  0  0  0  0  0  0  0  0
  -20.2432   10.9522  -16.6269 C   0  0  0  0  0  0  0  0  0  0  0  0
  -20.1121   11.9469  -15.6792 C   0  0  0  0  0  0  0  0  0  0  0  0
  -19.4055   13.0966  -15.9744 C   0  0  0  0  0  0  0  0  0  0  0  0
  -18.8411   13.2284  -17.2190 C   0  0  0  0  0  0  0  0  0  0  0  0
  -20.6921   11.8087  -14.4043 O   0  0  0  0  0  0  0  0  0  0  0  0
  -22.0342   12.0860  -14.2266 C   0  0  0  0  0  0  0  0  0  0  0  0
  -22.4266   13.3911  -14.0752 C   0  0  0  0  0  0  0  0  0  0  0  0
  -23.7694   13.6498  -13.8989 C   0  0  0  0  0  0  0  0  0  0  0  0
  -24.7164   12.6417  -13.8710 C   0  0  0  0  0  0  0  0  0  0  0  0
  -24.2783   11.3492  -14.0266 C   0  0  0  0  0  0  0  0  0  0  0  0
  -22.9355   11.0556  -14.2058 C   0  0  0  0  0  0  0  0  0  0  0  0
 26 27  1  0  0  0
 27 24  1  0  0  0
 24 25  1  0  0  0
 24 23  1  0  0  0
 23 22  1  0  0  0
 22 21  1  0  0  0
 21 19  1  0  0  0
 19 13  1  0  0  0
 13 14  2  0  0  0
 14 15  1  0  0  0
 15 16  2  0  0  0
 16 17  1  0  0  0
 17 18  2  0  0  0
 15  1  1  0  0  0
  1  2  2  0  0  0
  2  3  1  0  0  0
  3 29  1  0  0  0
 29 30  2  0  0  0
 30 31  1  0  0  0
 31 32  2  0  0  0
 32 35  1  0  0  0
 35 36  1  0  0  0
 36 37  2  0  0  0
 37 38  1  0  0  0
 38 39  2  0  0  0
 39 40  1  0  0  0
 40 41  2  0  0  0
 32 33  1  0  0  0
 33 34  2  0  0  0
  3  4  1  0  0  0
  4  5  2  0  0  0
  5  6  1  0  0  0
  5  7  1  0  0  0
  7  8  2  0  0  0
  8  9  1  0  0  0
  9 10  2  0  0  0
 18 13  1  0  0  0
 10  1  1  0  0  0
 34 29  1  0  0  0
 10  4  1  0  0  0
 41 36  1  0  0  0
 27 28  1  0  0  0
 19 20  1  0  0  0
  6 11  1  0  0  0
  6 12  1  0  0  0
M  END
> <minimizedAffinity>
-7.61016

> <CNNscore>
0.6553954482

> <CNNaffinity>
7.7456221581

> <CNN_VS>
5.0764455795

> <CNNaffinity_variance>
0.0455923192

$$$$
[H]c1nc(N([H])[H])c2c(n1)c(-c1c([H])c([H])nc(N([H])C([H])([H])C([H])([H])C([H])([H])[C@@]([H])(N([H])C([H])([H])[H])C([H])([H])[H])c1[H])c([H])n2-c1c([H])c([H])c(Oc2c([H])c([H])c([H])c([H])c2[H])c([H])c1[H]


 41 45  0  0  0  0  0  0  0  0999 V2000
  -17.7201   13.2723  -21.3947 C   0  0  0  0  0  0  0  0  0  0  0  0
  -18.5362   13.4647  -20.3066 C   0  0  0  0  0  0  0  0  0  0  0  0
  -18.3678   12.4799  -19.3883 N   0  0  0  0  0  0  0  0  0  0  0  0
  -17.4283   11.6422  -19.8962 C   0  0  0  0  0  0  0  0  0  0  0  0
  -16.8590   10.4861  -19.4203 C   0  0  0  0  0  0  0  0  0  0  0  0
  -17.2693    9.9834  -18.1503 N   0  0  0  0  0  0  0  0  0  0  0  0
  -15.9307    9.8570  -20.1622 N   0  0  0  0  0  0  0  0  0  0  0  0
  -15.5263   10.3053  -21.3585 C   0  0  0  0  0  0  0  0  0  0  0  0
  -16.0796   11.4349  -21.8283 N   0  0  0  0  0  0  0  0  0  0  0  0
  -17.0105   12.1182  -21.1477 C   0  0  0  0  0  0  0  0  0  0  0  0
  -18.1101    9.3716  -18.1294 H   0  0  0  0  0  0  0  0  0  0  0  0
  -16.7920   10.1781  -17.2481 H   0  0  0  0  0  0  0  0  0  0  0  0
  -17.2043   16.1172  -23.7208 C   0  0  0  0  0  0  0  0  0  0  0  0
  -17.3289   15.4319  -22.5342 C   0  0  0  0  0  0  0  0  0  0  0  0
  -17.5757   14.0745  -22.5987 C   0  0  0  0  0  0  0  0  0  0  0  0
  -17.6836   13.4804  -23.8390 C   0  0  0  0  0  0  0  0  0  0  0  0
  -17.5579   14.1709  -25.0257 C   0  0  0  0  0  0  0  0  0  0  0  0
  -17.3156   15.5042  -24.9111 N   0  0  0  0  0  0  0  0  0  0  0  0
  -16.9536   17.5039  -23.6888 N   0  0  0  0  0  0  0  0  0  0  0  0
  -15.9830   17.8602  -23.6051 H   0  0  0  0  0  0  0  0  0  0  0  0
  -18.0484   18.4360  -23.7724 C   0  0  0  0  0  0  0  0  0  0  0  0
  -19.1161   18.1758  -22.7558 C   0  0  0  0  0  0  0  0  0  0  0  0
  -20.4682   17.9361  -23.3619 C   0  0  0  0  0  0  0  0  0  0  0  0
  -21.5773   18.3536  -22.4097 C   0  0  0  0  0  0  0  0  0  0  0  0
  -21.5427   17.5236  -21.1443 C   0  0  0  0  0  0  0  0  0  0  0  0
  -23.7166   17.3147  -22.1545 C   0  0  0  0  0  0  0  0  0  0  0  0
  -22.8337   18.0235  -23.0792 N   0  0  0  0  0  0  0  0  0  0  0  0
  -23.2979   18.8820  -23.4553 H   0  0  0  0  0  0  0  0  0  0  0  0
  -19.0150   12.3219  -18.1497 C   0  0  0  0  0  0  0  0  0  0  0  0
  -19.8281   11.2450  -17.8969 C   0  0  0  0  0  0  0  0  0  0  0  0
  -20.4600   11.1011  -16.6552 C   0  0  0  0  0  0  0  0  0  0  0  0
  -20.2602   12.0548  -15.6778 C   0  0  0  0  0  0  0  0  0  0  0  0
  -19.4431   13.1407  -15.9259 C   0  0  0  0  0  0  0  0  0  0  0  0
  -18.8392   13.2508  -17.1540 C   0  0  0  0  0  0  0  0  0  0  0  0
  -20.8809   11.9391  -14.4200 O   0  0  0  0  0  0  0  0  0  0  0  0
  -20.6422   10.8262  -13.6362 C   0  0  0  0  0  0  0  0  0  0  0  0
  -19.3980   10.6586  -13.0850 C   0  0  0  0  0  0  0  0  0  0  0  0
  -19.1772    9.5426  -12.3059 C   0  0  0  0  0  0  0  0  0  0  0  0
  -20.1638    8.6021  -12.0697 C   0  0  0  0  0  0  0  0  0  0  0  0
  -21.3950    8.8103  -12.6419 C   0  0  0  0  0  0  0  0  0  0  0  0
  -21.6493    9.9218  -13.4302 C   0  0  0  0  0  0  0  0  0  0  0  0
 26 27  1  0  0  0
 27 24  1  0  0  0
 24 25  1  0  0  0
 24 23  1  0  0  0
 23 22  1  0  0  0
 22 21  1  0  0  0
 21 19  1  0  0  0
 19 13  1  0  0  0
 13 14  2  0  0  0
 14 15  1  0  0  0
 15 16  2  0  0  0
 16 17  1  0  0  0
 17 18  2  0  0  0
 15  1  1  0  0  0
  1  2  2  0  0  0
  2  3  1  0  0  0
  3 29  1  0  0  0
 29 30  2  0  0  0
 30 31  1  0  0  0
 31 32  2  0  0  0
 32 35  1  0  0  0
 35 36  1  0  0  0
 36 37  2  0  0  0
 37 38  1  0  0  0
 38 39  2  0  0  0
 39 40  1  0  0  0
 40 41  2  0  0  0
 32 33  1  0  0  0
 33 34  2  0  0  0
  3  4  1  0  0  0
  4  5  2  0  0  0
  5  6  1  0  0  0
  5  7  1  0  0  0
  7  8  2  0  0  0
  8  9  1  0  0  0
  9 10  2  0  0  0
 18 13  1  0  0  0
 10  1  1  0  0  0
 34 29  1  0  0  0
 10  4  1  0  0  0
 41 36  1  0  0  0
 27 28  1  0  0  0
 19 20  1  0  0  0
  6 11  1  0  0  0
  6 12  1  0  0  0
M  END
> <minimizedAffinity>
-7.51925

> <CNNscore>
0.6296375394

> <CNNaffinity>
7.6146178246

> <CNN_VS>
4.7944493294

> <CNNaffinity_variance>
0.0394338481

$$$$
[H]c1nc(N([H])[H])c2c(n1)c(-c1c([H])c([H])nc(N([H])C([H])([H])C([H])([H])C([H])([H])[C@@]([H])(N([H])C([H])([H])[H])C([H])([H])[H])c1[H])c([H])n2-c1c([H])c([H])c(Oc2c([H])c([H])c([H])c([H])c2[H])c([H])c1[H]


 41 45  0  0  0  0  0  0  0  0999 V2000
  -19.6418   13.1312  -18.1821 C   0  0  0  0  0  0  0  0  0  0  0  0
  -20.2525   12.6034  -17.0705 C   0  0  0  0  0  0  0  0  0  0  0  0
  -19.8057   11.3476  -16.8164 N   0  0  0  0  0  0  0  0  0  0  0  0
  -18.8934   11.0656  -17.7811 C   0  0  0  0  0  0  0  0  0  0  0  0
  -18.1206    9.9584  -18.0343 C   0  0  0  0  0  0  0  0  0  0  0  0
  -18.2245    8.8284  -17.1704 N   0  0  0  0  0  0  0  0  0  0  0  0
  -17.2866    9.9663  -19.0889 N   0  0  0  0  0  0  0  0  0  0  0  0
  -17.1685   11.0128  -19.9176 C   0  0  0  0  0  0  0  0  0  0  0  0
  -17.9217   12.0975  -19.6747 N   0  0  0  0  0  0  0  0  0  0  0  0
  -18.7757   12.1652  -18.6438 C   0  0  0  0  0  0  0  0  0  0  0  0
  -18.9736    8.1375  -17.3781 H   0  0  0  0  0  0  0  0  0  0  0  0
  -17.6089    8.6415  -16.3543 H   0  0  0  0  0  0  0  0  0  0  0  0
  -19.2731   16.7118  -19.0842 C   0  0  0  0  0  0  0  0  0  0  0  0
  -19.0433   15.5164  -18.4426 C   0  0  0  0  0  0  0  0  0  0  0  0
  -19.8177   14.4322  -18.8068 C   0  0  0  0  0  0  0  0  0  0  0  0
  -20.7736   14.6019  -19.7869 C   0  0  0  0  0  0  0  0  0  0  0  0
  -21.0004   15.8016  -20.4272 C   0  0  0  0  0  0  0  0  0  0  0  0
  -20.2138   16.8393  -20.0348 N   0  0  0  0  0  0  0  0  0  0  0  0
  -18.5004   17.8375  -18.7343 N   0  0  0  0  0  0  0  0  0  0  0  0
  -17.4682   17.7641  -18.6623 H   0  0  0  0  0  0  0  0  0  0  0  0
  -19.1432   19.0997  -18.4738 C   0  0  0  0  0  0  0  0  0  0  0  0
  -19.9574   19.0925  -17.2175 C   0  0  0  0  0  0  0  0  0  0  0  0
  -19.2447   18.4726  -16.0510 C   0  0  0  0  0  0  0  0  0  0  0  0
  -20.0178   17.2823  -15.5063 C   0  0  0  0  0  0  0  0  0  0  0  0
  -21.4560   17.3118  -15.9775 C   0  0  0  0  0  0  0  0  0  0  0  0
  -19.6236   18.8044  -13.7038 C   0  0  0  0  0  0  0  0  0  0  0  0
  -20.0607   17.4546  -14.0558 N   0  0  0  0  0  0  0  0  0  0  0  0
  -21.0181   17.2620  -13.6810 H   0  0  0  0  0  0  0  0  0  0  0  0
  -20.1845   10.4805  -15.7759 C   0  0  0  0  0  0  0  0  0  0  0  0
  -19.4979   10.4422  -14.5876 C   0  0  0  0  0  0  0  0  0  0  0  0
  -19.8932    9.5762  -13.5602 C   0  0  0  0  0  0  0  0  0  0  0  0
  -20.9856    8.7541  -13.7487 C   0  0  0  0  0  0  0  0  0  0  0  0
  -21.6807    8.7880  -14.9420 C   0  0  0  0  0  0  0  0  0  0  0  0
  -21.2662    9.6487  -15.9281 C   0  0  0  0  0  0  0  0  0  0  0  0
  -21.4079    7.8728  -12.7358 O   0  0  0  0  0  0  0  0  0  0  0  0
  -21.5921    8.3428  -11.4494 C   0  0  0  0  0  0  0  0  0  0  0  0
  -20.7555    7.9015  -10.4567 C   0  0  0  0  0  0  0  0  0  0  0  0
  -20.9536    8.3806   -9.1790 C   0  0  0  0  0  0  0  0  0  0  0  0
  -21.9596    9.2811   -8.8776 C   0  0  0  0  0  0  0  0  0  0  0  0
  -22.7740    9.6960   -9.9030 C   0  0  0  0  0  0  0  0  0  0  0  0
  -22.6012    9.2335  -11.1983 C   0  0  0  0  0  0  0  0  0  0  0  0
 26 27  1  0  0  0
 27 24  1  0  0  0
 24 25  1  0  0  0
 24 23  1  0  0  0
 23 22  1  0  0  0
 22 21  1  0  0  0
 21 19  1  0  0  0
 19 13  1  0  0  0
 13 14  2  0  0  0
 14 15  1  0  0  0
 15 16  2  0  0  0
 16 17  1  0  0  0
 17 18  2  0  0  0
 15  1  1  0  0  0
  1  2  2  0  0  0
  2  3  1  0  0  0
  3 29  1  0  0  0
 29 30  2  0  0  0
 30 31  1  0  0  0
 31 32  2  0  0  0
 32 35  1  0  0  0
 35 36  1  0  0  0
 36 37  2  0  0  0
 37 38  1  0  0  0
 38 39  2  0  0  0
 39 40  1  0  0  0
 40 41  2  0  0  0
 32 33  1  0  0  0
 33 34  2  0  0  0
  3  4  1  0  0  0
  4  5  2  0  0  0
  5  6  1  0  0  0
  5  7  1  0  0  0
  7  8  2  0  0  0
  8  9  1  0  0  0
  9 10  2  0  0  0
 18 13  1  0  0  0
 10  1  1  0  0  0
 34 29  1  0  0  0
 10  4  1  0  0  0
 41 36  1  0  0  0
 27 28  1  0  0  0
 19 20  1  0  0  0
  6 11  1  0  0  0
  6 12  1  0  0  0
M  END
> <minimizedAffinity>
-6.57335

> <CNNscore>
0.5554298759

> <CNNaffinity>
7.3613457680

> <CNN_VS>
4.0887112617

> <CNNaffinity_variance>
0.1262115240

$$$$
[H]c1nc(N([H])[H])c2c(n1)c(-c1c([H])c([H])nc(N([H])C([H])([H])C([H])([H])C([H])([H])[C@@]([H])(N([H])C([H])([H])[H])C([H])([H])[H])c1[H])c([H])n2-c1c([H])c([H])c(Oc2c([H])c([H])c([H])c([H])c2[H])c([H])c1[H]


 41 45  0  0  0  0  0  0  0  0999 V2000
  -19.5470   13.5070  -19.1898 C   0  0  0  0  0  0  0  0  0  0  0  0
  -20.1410   13.1907  -17.9922 C   0  0  0  0  0  0  0  0  0  0  0  0
  -19.6764   12.0095  -17.5124 N   0  0  0  0  0  0  0  0  0  0  0  0
  -18.7697   11.5610  -18.4174 C   0  0  0  0  0  0  0  0  0  0  0  0
  -17.9858   10.4340  -18.4674 C   0  0  0  0  0  0  0  0  0  0  0  0
  -18.0679    9.4850  -17.4061 N   0  0  0  0  0  0  0  0  0  0  0  0
  -17.1618   10.2527  -19.5143 N   0  0  0  0  0  0  0  0  0  0  0  0
  -17.0641   11.1264  -20.5257 C   0  0  0  0  0  0  0  0  0  0  0  0
  -17.8282   12.2296  -20.4817 N   0  0  0  0  0  0  0  0  0  0  0  0
  -18.6734   12.4805  -19.4722 C   0  0  0  0  0  0  0  0  0  0  0  0
  -18.8104    8.7597  -17.4722 H   0  0  0  0  0  0  0  0  0  0  0  0
  -17.4425    9.4608  -16.5765 H   0  0  0  0  0  0  0  0  0  0  0  0
  -20.9641   16.5553  -20.7614 C   0  0  0  0  0  0  0  0  0  0  0  0
  -20.8541   15.4778  -19.9128 C   0  0  0  0  0  0  0  0  0  0  0  0
  -19.7446   14.6660  -20.0452 C   0  0  0  0  0  0  0  0  0  0  0  0
  -18.8113   14.9746  -21.0131 C   0  0  0  0  0  0  0  0  0  0  0  0
  -18.9255   16.0555  -21.8613 C   0  0  0  0  0  0  0  0  0  0  0  0
  -20.0343   16.8247  -21.6929 N   0  0  0  0  0  0  0  0  0  0  0  0
  -22.0856   17.4022  -20.6525 N   0  0  0  0  0  0  0  0  0  0  0  0
  -22.0397   18.2627  -20.0750 H   0  0  0  0  0  0  0  0  0  0  0  0
  -23.3051   17.0753  -21.3454 C   0  0  0  0  0  0  0  0  0  0  0  0
  -23.4451   17.7924  -22.6520 C   0  0  0  0  0  0  0  0  0  0  0  0
  -23.3719   19.2859  -22.5211 C   0  0  0  0  0  0  0  0  0  0  0  0
  -22.3737   19.8739  -23.5054 C   0  0  0  0  0  0  0  0  0  0  0  0
  -22.7981   19.6003  -24.9325 C   0  0  0  0  0  0  0  0  0  0  0  0
  -19.9871   20.0203  -23.5704 C   0  0  0  0  0  0  0  0  0  0  0  0
  -21.1249   19.1418  -23.3044 N   0  0  0  0  0  0  0  0  0  0  0  0
  -21.0720   18.7436  -22.3387 H   0  0  0  0  0  0  0  0  0  0  0  0
  -20.0350   11.3490  -16.3236 C   0  0  0  0  0  0  0  0  0  0  0  0
  -20.9210   10.3003  -16.3243 C   0  0  0  0  0  0  0  0  0  0  0  0
  -21.2621    9.6506  -15.1313 C   0  0  0  0  0  0  0  0  0  0  0  0
  -20.6989   10.0726  -13.9441 C   0  0  0  0  0  0  0  0  0  0  0  0
  -19.8066   11.1272  -13.9367 C   0  0  0  0  0  0  0  0  0  0  0  0
  -19.4944   11.7416  -15.1242 C   0  0  0  0  0  0  0  0  0  0  0  0
  -21.0212    9.4407  -12.7285 O   0  0  0  0  0  0  0  0  0  0  0  0
  -20.0342    9.2189  -11.7870 C   0  0  0  0  0  0  0  0  0  0  0  0
  -20.0319    9.9704  -10.6401 C   0  0  0  0  0  0  0  0  0  0  0  0
  -19.0399    9.7360   -9.7115 C   0  0  0  0  0  0  0  0  0  0  0  0
  -18.0619    8.7768   -9.9044 C   0  0  0  0  0  0  0  0  0  0  0  0
  -18.1030    8.0475  -11.0677 C   0  0  0  0  0  0  0  0  0  0  0  0
  -19.0868    8.2586  -12.0212 C   0  0  0  0  0  0  0  0  0  0  0  0
 26 27  1  0  0  0
 27 24  1  0  0  0
 24 25  1  0  0  0
 24 23  1  0  0  0
 23 22  1  0  0  0
 22 21  1  0  0  0
 21 19  1  0  0  0
 19 13  1  0  0  0
 13 14  2  0  0  0
 14 15  1  0  0  0
 15 16  2  0  0  0
 16 17  1  0  0  0
 17 18  2  0  0  0
 15  1  1  0  0  0
  1  2  2  0  0  0
  2  3  1  0  0  0
  3 29  1  0  0  0
 29 30  2  0  0  0
 30 31  1  0  0  0
 31 32  2  0  0  0
 32 35  1  0  0  0
 35 36  1  0  0  0
 36 37  2  0  0  0
 37 38  1  0  0  0
 38 39  2  0  0  0
 39 40  1  0  0  0
 40 41  2  0  0  0
 32 33  1  0  0  0
 33 34  2  0  0  0
  3  4  1  0  0  0
  4  5  2  0  0  0
  5  6  1  0  0  0
  5  7  1  0  0  0
  7  8  2  0  0  0
  8  9  1  0  0  0
  9 10  2  0  0  0
 18 13  1  0  0  0
 10  1  1  0  0  0
 34 29  1  0  0  0
 10  4  1  0  0  0
 41 36  1  0  0  0
 27 28  1  0  0  0
 19 20  1  0  0  0
  6 11  1  0  0  0
  6 12  1  0  0  0
M  END
> <minimizedAffinity>
-6.95573

> <CNNscore>
0.3629282415

> <CNNaffinity>
7.0281815529

> <CNN_VS>
2.5507254601

> <CNNaffinity_variance>
0.1024136692

$$$$
[H]c1nc(N([H])[H])c2c(n1)c(-c1c([H])c([H])nc(N([H])C([H])([H])C([H])([H])C([H])([H])[C@@]([H])(N([H])C([H])([H])[H])C([H])([H])[H])c1[H])c([H])n2-c1c([H])c([H])c(Oc2c([H])c([H])c([H])c([H])c2[H])c([H])c1[H]


 41 45  0  0  0  0  0  0  0  0999 V2000
  -17.7167   13.4440  -21.1289 C   0  0  0  0  0  0  0  0  0  0  0  0
  -18.2444   14.4628  -20.3734 C   0  0  0  0  0  0  0  0  0  0  0  0
  -18.5967   15.5172  -21.1515 N   0  0  0  0  0  0  0  0  0  0  0  0
  -18.2897   15.1687  -22.4269 C   0  0  0  0  0  0  0  0  0  0  0  0
  -18.4198   15.8250  -23.6267 C   0  0  0  0  0  0  0  0  0  0  0  0
  -18.9762   17.1380  -23.6416 N   0  0  0  0  0  0  0  0  0  0  0  0
  -18.0195   15.2151  -24.7561 N   0  0  0  0  0  0  0  0  0  0  0  0
  -17.4929   13.9830  -24.7725 C   0  0  0  0  0  0  0  0  0  0  0  0
  -17.3635   13.3371  -23.6025 N   0  0  0  0  0  0  0  0  0  0  0  0
  -17.7394   13.8786  -22.4355 C   0  0  0  0  0  0  0  0  0  0  0  0
  -18.3259   17.9327  -23.4763 H   0  0  0  0  0  0  0  0  0  0  0  0
  -19.9775   17.3608  -23.8079 H   0  0  0  0  0  0  0  0  0  0  0  0
  -17.0941   10.3328  -19.2045 C   0  0  0  0  0  0  0  0  0  0  0  0
  -17.6156   11.5654  -19.5239 C   0  0  0  0  0  0  0  0  0  0  0  0
  -17.2149   12.1446  -20.7120 C   0  0  0  0  0  0  0  0  0  0  0  0
  -16.3200   11.4634  -21.5108 C   0  0  0  0  0  0  0  0  0  0  0  0
  -15.8000   10.2283  -21.1870 C   0  0  0  0  0  0  0  0  0  0  0  0
  -16.2239    9.6989  -20.0082 N   0  0  0  0  0  0  0  0  0  0  0  0
  -17.4822    9.7157  -17.9982 N   0  0  0  0  0  0  0  0  0  0  0  0
  -16.7705    9.4478  -17.2927 H   0  0  0  0  0  0  0  0  0  0  0  0
  -18.8744    9.4530  -17.7388 C   0  0  0  0  0  0  0  0  0  0  0  0
  -19.3069    9.8897  -16.3737 C   0  0  0  0  0  0  0  0  0  0  0  0
  -20.6565   10.5464  -16.3596 C   0  0  0  0  0  0  0  0  0  0  0  0
  -21.5590    9.9214  -15.3079 C   0  0  0  0  0  0  0  0  0  0  0  0
  -21.3352   10.5627  -13.9551 C   0  0  0  0  0  0  0  0  0  0  0  0
  -21.4693    8.0305  -13.8458 C   0  0  0  0  0  0  0  0  0  0  0  0
  -21.1278    8.5313  -15.1761 N   0  0  0  0  0  0  0  0  0  0  0  0
  -21.5518    7.9323  -15.9213 H   0  0  0  0  0  0  0  0  0  0  0  0
  -19.1670   16.7407  -20.7569 C   0  0  0  0  0  0  0  0  0  0  0  0
  -18.3891   17.8017  -20.3643 C   0  0  0  0  0  0  0  0  0  0  0  0
  -18.9745   19.0148  -19.9799 C   0  0  0  0  0  0  0  0  0  0  0  0
  -20.3487   19.1405  -19.9977 C   0  0  0  0  0  0  0  0  0  0  0  0
  -21.1369   18.0767  -20.3917 C   0  0  0  0  0  0  0  0  0  0  0  0
  -20.5305   16.9020  -20.7622 C   0  0  0  0  0  0  0  0  0  0  0  0
  -20.9672   20.3462  -19.6172 O   0  0  0  0  0  0  0  0  0  0  0  0
  -21.3330   20.5443  -18.2993 C   0  0  0  0  0  0  0  0  0  0  0  0
  -22.6218   20.2685  -17.9209 C   0  0  0  0  0  0  0  0  0  0  0  0
  -22.9696   20.4720  -16.6023 C   0  0  0  0  0  0  0  0  0  0  0  0
  -22.0656   20.9402  -15.6657 C   0  0  0  0  0  0  0  0  0  0  0  0
  -20.7857   21.2034  -16.0891 C   0  0  0  0  0  0  0  0  0  0  0  0
  -20.4041   21.0094  -17.4076 C   0  0  0  0  0  0  0  0  0  0  0  0
 26 27  1  0  0  0
 27 24  1  0  0  0
 24 25  1  0  0  0
 24 23  1  0  0  0
 23 22  1  0  0  0
 22 21  1  0  0  0
 21 19  1  0  0  0
 19 13  1  0  0  0
 13 14  2  0  0  0
 14 15  1  0  0  0
 15 16  2  0  0  0
 16 17  1  0  0  0
 17 18  2  0  0  0
 15  1  1  0  0  0
  1  2  2  0  0  0
  2  3  1  0  0  0
  3 29  1  0  0  0
 29 30  2  0  0  0
 30 31  1  0  0  0
 31 32  2  0  0  0
 32 35  1  0  0  0
 35 36  1  0  0  0
 36 37  2  0  0  0
 37 38  1  0  0  0
 38 39  2  0  0  0
 39 40  1  0  0  0
 40 41  2  0  0  0
 32 33  1  0  0  0
 33 34  2  0  0  0
  3  4  1  0  0  0
  4  5  2  0  0  0
  5  6  1  0  0  0
  5  7  1  0  0  0
  7  8  2  0  0  0
  8  9  1  0  0  0
  9 10  2  0  0  0
 18 13  1  0  0  0
 10  1  1  0  0  0
 34 29  1  0  0  0
 10  4  1  0  0  0
 41 36  1  0  0  0
 27 28  1  0  0  0
 19 20  1  0  0  0
  6 11  1  0  0  0
  6 12  1  0  0  0
M  END
> <minimizedAffinity>
-7.21216

> <CNNscore>
0.3306498528

> <CNNaffinity>
7.3022384644

> <CNN_VS>
2.4144840240

> <CNNaffinity_variance>
0.0668334812

$$$$
[H]c1nc(N([H])[H])c2c(n1)c(-c1c([H])c([H])nc(N([H])C([H])([H])C([H])([H])C([H])([H])[C@@]([H])(N([H])C([H])([H])[H])C([H])([H])[H])c1[H])c([H])n2-c1c([H])c([H])c(Oc2c([H])c([H])c([H])c([H])c2[H])c([H])c1[H]


 41 45  0  0  0  0  0  0  0  0999 V2000
  -18.3852   12.2054  -19.0550 C   0  0  0  0  0  0  0  0  0  0  0  0
  -18.7170   13.5281  -19.2204 C   0  0  0  0  0  0  0  0  0  0  0  0
  -18.1263   14.0462  -20.3267 N   0  0  0  0  0  0  0  0  0  0  0  0
  -17.4036   13.0390  -20.8796 C   0  0  0  0  0  0  0  0  0  0  0  0
  -16.6072   12.9713  -21.9968 C   0  0  0  0  0  0  0  0  0  0  0  0
  -16.4422   14.1367  -22.8020 N   0  0  0  0  0  0  0  0  0  0  0  0
  -16.0028   11.8100  -22.3036 N   0  0  0  0  0  0  0  0  0  0  0  0
  -16.1389   10.6997  -21.5658 C   0  0  0  0  0  0  0  0  0  0  0  0
  -16.9163   10.7605  -20.4726 N   0  0  0  0  0  0  0  0  0  0  0  0
  -17.5513   11.8811  -20.1019 C   0  0  0  0  0  0  0  0  0  0  0  0
  -15.6959   14.8057  -22.5242 H   0  0  0  0  0  0  0  0  0  0  0  0
  -17.0063   14.3659  -23.6442 H   0  0  0  0  0  0  0  0  0  0  0  0
  -20.0166   10.6885  -16.0871 C   0  0  0  0  0  0  0  0  0  0  0  0
  -19.6871   11.6330  -17.0319 C   0  0  0  0  0  0  0  0  0  0  0  0
  -18.7884   11.2712  -18.0164 C   0  0  0  0  0  0  0  0  0  0  0  0
  -18.2718    9.9922  -18.0021 C   0  0  0  0  0  0  0  0  0  0  0  0
  -18.6048    9.0488  -17.0535 C   0  0  0  0  0  0  0  0  0  0  0  0
  -19.4926    9.4516  -16.1053 N   0  0  0  0  0  0  0  0  0  0  0  0
  -20.9300   11.0272  -15.0684 N   0  0  0  0  0  0  0  0  0  0  0  0
  -20.9329   11.9814  -14.6617 H   0  0  0  0  0  0  0  0  0  0  0  0
  -21.8669   10.0457  -14.5855 C   0  0  0  0  0  0  0  0  0  0  0  0
  -22.9752    9.7700  -15.5534 C   0  0  0  0  0  0  0  0  0  0  0  0
  -23.3709    8.3232  -15.6075 C   0  0  0  0  0  0  0  0  0  0  0  0
  -22.3161    7.4420  -14.9578 C   0  0  0  0  0  0  0  0  0  0  0  0
  -21.8172    6.3929  -15.9284 C   0  0  0  0  0  0  0  0  0  0  0  0
  -22.0095    6.0858  -13.0115 C   0  0  0  0  0  0  0  0  0  0  0  0
  -22.9960    6.7159  -13.8872 N   0  0  0  0  0  0  0  0  0  0  0  0
  -23.6279    7.3484  -13.3443 H   0  0  0  0  0  0  0  0  0  0  0  0
  -18.2179   15.3552  -20.8328 C   0  0  0  0  0  0  0  0  0  0  0  0
  -17.3470   16.3401  -20.4377 C   0  0  0  0  0  0  0  0  0  0  0  0
  -17.4498   17.6370  -20.9568 C   0  0  0  0  0  0  0  0  0  0  0  0
  -18.4391   17.9234  -21.8755 C   0  0  0  0  0  0  0  0  0  0  0  0
  -19.3185   16.9367  -22.2771 C   0  0  0  0  0  0  0  0  0  0  0  0
  -19.1894   15.6763  -21.7483 C   0  0  0  0  0  0  0  0  0  0  0  0
  -18.5688   19.2166  -22.4156 O   0  0  0  0  0  0  0  0  0  0  0  0
  -19.8223   19.7834  -22.5470 C   0  0  0  0  0  0  0  0  0  0  0  0
  -20.3454   19.9502  -23.8035 C   0  0  0  0  0  0  0  0  0  0  0  0
  -21.5971   20.5173  -23.9163 C   0  0  0  0  0  0  0  0  0  0  0  0
  -22.3274   20.9165  -22.8113 C   0  0  0  0  0  0  0  0  0  0  0  0
  -21.7644   20.7305  -21.5722 C   0  0  0  0  0  0  0  0  0  0  0  0
  -20.5082   20.1633  -21.4247 C   0  0  0  0  0  0  0  0  0  0  0  0
 26 27  1  0  0  0
 27 24  1  0  0  0
 24 25  1  0  0  0
 24 23  1  0  0  0
 23 22  1  0  0  0
 22 21  1  0  0  0
 21 19  1  0  0  0
 19 13  1  0  0  0
 13 14  2  0  0  0
 14 15  1  0  0  0
 15 16  2  0  0  0
 16 17  1  0  0  0
 17 18  2  0  0  0
 15  1  1  0  0  0
  1  2  2  0  0  0
  2  3  1  0  0  0
  3 29  1  0  0  0
 29 30  2  0  0  0
 30 31  1  0  0  0
 31 32  2  0  0  0
 32 35  1  0  0  0
 35 36  1  0  0  0
 36 37  2  0  0  0
 37 38  1  0  0  0
 38 39  2  0  0  0
 39 40  1  0  0  0
 40 41  2  0  0  0
 32 33  1  0  0  0
 33 34  2  0  0  0
  3  4  1  0  0  0
  4  5  2  0  0  0
  5  6  1  0  0  0
  5  7  1  0  0  0
  7  8  2  0  0  0
  8  9  1  0  0  0
  9 10  2  0  0  0
 18 13  1  0  0  0
 10  1  1  0  0  0
 34 29  1  0  0  0
 10  4  1  0  0  0
 41 36  1  0  0  0
 27 28  1  0  0  0
 19 20  1  0  0  0
  6 11  1  0  0  0
  6 12  1  0  0  0
M  END
> <minimizedAffinity>
-7.08788

> <CNNscore>
0.3173227310

> <CNNaffinity>
7.2865028381

> <CNN_VS>
2.3121728897

> <CNNaffinity_variance>
0.1293216199

$$$$
[H]c1nc(N([H])[H])c2c(n1)c(-c1c([H])c([H])nc(N([H])C([H])([H])C([H])([H])C([H])([H])[C@@]([H])(N([H])C([H])([H])[H])C([H])([H])[H])c1[H])c([H])n2-c1c([H])c([H])c(Oc2c([H])c([H])c([H])c([H])c2[H])c([H])c1[H]


 41 45  0  0  0  0  0  0  0  0999 V2000
  -19.5859   13.3962  -19.0146 C   0  0  0  0  0  0  0  0  0  0  0  0
  -20.1397   13.0452  -17.8075 C   0  0  0  0  0  0  0  0  0  0  0  0
  -19.6394   11.8642  -17.3644 N   0  0  0  0  0  0  0  0  0  0  0  0
  -18.7500   11.4513  -18.3031 C   0  0  0  0  0  0  0  0  0  0  0  0
  -17.9464   10.3411  -18.3973 C   0  0  0  0  0  0  0  0  0  0  0  0
  -17.9804    9.3703  -17.3531 N   0  0  0  0  0  0  0  0  0  0  0  0
  -17.1489   10.1964  -19.4700 N   0  0  0  0  0  0  0  0  0  0  0  0
  -17.0964   11.0913  -20.4661 C   0  0  0  0  0  0  0  0  0  0  0  0
  -17.8800   12.1782  -20.3790 N   0  0  0  0  0  0  0  0  0  0  0  0
  -18.7011   12.3928  -19.3415 C   0  0  0  0  0  0  0  0  0  0  0  0
  -18.7104    8.6320  -17.4130 H   0  0  0  0  0  0  0  0  0  0  0  0
  -17.3316    9.3423  -16.5419 H   0  0  0  0  0  0  0  0  0  0  0  0
  -19.1523   16.2132  -21.3909 C   0  0  0  0  0  0  0  0  0  0  0  0
  -18.8383   15.1048  -20.6386 C   0  0  0  0  0  0  0  0  0  0  0  0
  -19.8296   14.5675  -19.8409 C   0  0  0  0  0  0  0  0  0  0  0  0
  -21.0732   15.1645  -19.8396 C   0  0  0  0  0  0  0  0  0  0  0  0
  -21.3836   16.2751  -20.5952 C   0  0  0  0  0  0  0  0  0  0  0  0
  -20.3756   16.7678  -21.3639 N   0  0  0  0  0  0  0  0  0  0  0  0
  -18.1620   16.7861  -22.2143 N   0  0  0  0  0  0  0  0  0  0  0  0
  -17.2826   17.1504  -21.8021 H   0  0  0  0  0  0  0  0  0  0  0  0
  -18.3678   16.8689  -23.6374 C   0  0  0  0  0  0  0  0  0  0  0  0
  -17.5618   15.8667  -24.4036 C   0  0  0  0  0  0  0  0  0  0  0  0
  -18.1879   14.5030  -24.4399 C   0  0  0  0  0  0  0  0  0  0  0  0
  -17.2057   13.4367  -23.9824 C   0  0  0  0  0  0  0  0  0  0  0  0
  -16.0934   14.0467  -23.1565 C   0  0  0  0  0  0  0  0  0  0  0  0
  -17.5987   12.4072  -26.1053 C   0  0  0  0  0  0  0  0  0  0  0  0
  -16.5755   12.9174  -25.1943 N   0  0  0  0  0  0  0  0  0  0  0  0
  -15.9920   13.6500  -25.6600 H   0  0  0  0  0  0  0  0  0  0  0  0
  -19.9516   11.1739  -16.1795 C   0  0  0  0  0  0  0  0  0  0  0  0
  -19.4644   11.5806  -14.9622 C   0  0  0  0  0  0  0  0  0  0  0  0
  -19.7907   10.8840  -13.7916 C   0  0  0  0  0  0  0  0  0  0  0  0
  -20.6114    9.7771  -13.8675 C   0  0  0  0  0  0  0  0  0  0  0  0
  -21.1050    9.3628  -15.0894 C   0  0  0  0  0  0  0  0  0  0  0  0
  -20.7653   10.0686  -16.2170 C   0  0  0  0  0  0  0  0  0  0  0  0
  -20.9577    9.0557  -12.7097 O   0  0  0  0  0  0  0  0  0  0  0  0
  -19.9883    8.7567  -11.7713 C   0  0  0  0  0  0  0  0  0  0  0  0
  -18.9512    7.9342  -12.1292 C   0  0  0  0  0  0  0  0  0  0  0  0
  -17.9929    7.6462  -11.1806 C   0  0  0  0  0  0  0  0  0  0  0  0
  -18.0501    8.1578   -9.8966 C   0  0  0  0  0  0  0  0  0  0  0  0
  -19.1067    8.9772   -9.5819 C   0  0  0  0  0  0  0  0  0  0  0  0
  -20.0865    9.2862  -10.5125 C   0  0  0  0  0  0  0  0  0  0  0  0
 26 27  1  0  0  0
 27 24  1  0  0  0
 24 25  1  0  0  0
 24 23  1  0  0  0
 23 22  1  0  0  0
 22 21  1  0  0  0
 21 19  1  0  0  0
 19 13  1  0  0  0
 13 14  2  0  0  0
 14 15  1  0  0  0
 15 16  2  0  0  0
 16 17  1  0  0  0
 17 18  2  0  0  0
 15  1  1  0  0  0
  1  2  2  0  0  0
  2  3  1  0  0  0
  3 29  1  0  0  0
 29 30  2  0  0  0
 30 31  1  0  0  0
 31 32  2  0  0  0
 32 35  1  0  0  0
 35 36  1  0  0  0
 36 37  2  0  0  0
 37 38  1  0  0  0
 38 39  2  0  0  0
 39 40  1  0  0  0
 40 41  2  0  0  0
 32 33  1  0  0  0
 33 34  2  0  0  0
  3  4  1  0  0  0
  4  5  2  0  0  0
  5  6  1  0  0  0
  5  7  1  0  0  0
  7  8  2  0  0  0
  8  9  1  0  0  0
  9 10  2  0  0  0
 18 13  1  0  0  0
 10  1  1  0  0  0
 34 29  1  0  0  0
 10  4  1  0  0  0
 41 36  1  0  0  0
 27 28  1  0  0  0
 19 20  1  0  0  0
  6 11  1  0  0  0
  6 12  1  0  0  0
M  END
> <minimizedAffinity>
-7.87531

> <CNNscore>
0.3140472174

> <CNNaffinity>
7.4525551796

> <CNN_VS>
2.3404541016

> <CNNaffinity_variance>
0.1263457835

$$$$
[H]c1nc(N([H])[H])c2c(n1)c(-c1c([H])c([H])nc(N([H])C([H])([H])C([H])([H])C([H])([H])[C@@]([H])(N([H])C([H])([H])[H])C([H])([H])[H])c1[H])c([H])n2-c1c([H])c([H])c(Oc2c([H])c([H])c([H])c([H])c2[H])c([H])c1[H]


 41 45  0  0  0  0  0  0  0  0999 V2000
  -19.5138   11.0756  -17.0422 C   0  0  0  0  0  0  0  0  0  0  0  0
  -20.1301   12.2930  -17.2014 C   0  0  0  0  0  0  0  0  0  0  0  0
  -19.6538   12.9438  -18.2927 N   0  0  0  0  0  0  0  0  0  0  0  0
  -18.7165   12.1302  -18.8422 C   0  0  0  0  0  0  0  0  0  0  0  0
  -17.9087   12.2559  -19.9462 C   0  0  0  0  0  0  0  0  0  0  0  0
  -17.9963   13.4389  -20.7379 N   0  0  0  0  0  0  0  0  0  0  0  0
  -17.0559   11.2627  -20.2530 N   0  0  0  0  0  0  0  0  0  0  0  0
  -16.9515   10.1408  -19.5277 C   0  0  0  0  0  0  0  0  0  0  0  0
  -17.7388   10.0129  -18.4475 N   0  0  0  0  0  0  0  0  0  0  0  0
  -18.6133   10.9589  -18.0776 C   0  0  0  0  0  0  0  0  0  0  0  0
  -17.4224   14.2539  -20.4413 H   0  0  0  0  0  0  0  0  0  0  0  0
  -18.5848   13.5471  -21.5875 H   0  0  0  0  0  0  0  0  0  0  0  0
  -20.1039    9.3838  -13.7926 C   0  0  0  0  0  0  0  0  0  0  0  0
  -19.9221   10.4044  -14.6974 C   0  0  0  0  0  0  0  0  0  0  0  0
  -19.7136   10.0620  -16.0191 C   0  0  0  0  0  0  0  0  0  0  0  0
  -19.6985    8.7258  -16.3615 C   0  0  0  0  0  0  0  0  0  0  0  0
  -19.8812    7.7063  -15.4515 C   0  0  0  0  0  0  0  0  0  0  0  0
  -20.0828    8.0927  -14.1632 N   0  0  0  0  0  0  0  0  0  0  0  0
  -20.3177    9.7003  -12.4358 N   0  0  0  0  0  0  0  0  0  0  0  0
  -20.8092   10.5748  -12.1717 H   0  0  0  0  0  0  0  0  0  0  0  0
  -19.8528    8.8073  -11.4059 C   0  0  0  0  0  0  0  0  0  0  0  0
  -18.7888    9.4127  -10.5442 C   0  0  0  0  0  0  0  0  0  0  0  0
  -18.6554    8.7445   -9.2068 C   0  0  0  0  0  0  0  0  0  0  0  0
  -17.2167    8.3307   -8.9421 C   0  0  0  0  0  0  0  0  0  0  0  0
  -16.2612    9.4550   -9.2803 C   0  0  0  0  0  0  0  0  0  0  0  0
  -16.6929    6.0063   -9.1516 C   0  0  0  0  0  0  0  0  0  0  0  0
  -16.9245    7.2510   -9.8825 N   0  0  0  0  0  0  0  0  0  0  0  0
  -17.6967    7.1375  -10.5788 H   0  0  0  0  0  0  0  0  0  0  0  0
  -20.0279   14.2056  -18.7885 C   0  0  0  0  0  0  0  0  0  0  0  0
  -19.3507   15.3458  -18.4335 C   0  0  0  0  0  0  0  0  0  0  0  0
  -19.7341   16.5935  -18.9418 C   0  0  0  0  0  0  0  0  0  0  0  0
  -20.8049   16.6728  -19.8087 C   0  0  0  0  0  0  0  0  0  0  0  0
  -21.4904   15.5291  -20.1698 C   0  0  0  0  0  0  0  0  0  0  0  0
  -21.0881   14.3224  -19.6530 C   0  0  0  0  0  0  0  0  0  0  0  0
  -21.2149   17.9114  -20.3366 O   0  0  0  0  0  0  0  0  0  0  0  0
  -20.4535   18.5286  -21.3109 C   0  0  0  0  0  0  0  0  0  0  0  0
  -20.1047   17.8161  -22.4293 C   0  0  0  0  0  0  0  0  0  0  0  0
  -19.3448   18.4473  -23.3912 C   0  0  0  0  0  0  0  0  0  0  0  0
  -18.9314   19.7608  -23.2587 C   0  0  0  0  0  0  0  0  0  0  0  0
  -19.3037   20.4362  -22.1221 C   0  0  0  0  0  0  0  0  0  0  0  0
  -20.0673   19.8305  -21.1364 C   0  0  0  0  0  0  0  0  0  0  0  0
 26 27  1  0  0  0
 27 24  1  0  0  0
 24 25  1  0  0  0
 24 23  1  0  0  0
 23 22  1  0  0  0
 22 21  1  0  0  0
 21 19  1  0  0  0
 19 13  1  0  0  0
 13 14  2  0  0  0
 14 15  1  0  0  0
 15 16  2  0  0  0
 16 17  1  0  0  0
 17 18  2  0  0  0
 15  1  1  0  0  0
  1  2  2  0  0  0
  2  3  1  0  0  0
  3 29  1  0  0  0
 29 30  2  0  0  0
 30 31  1  0  0  0
 31 32  2  0  0  0
 32 35  1  0  0  0
 35 36  1  0  0  0
 36 37  2  0  0  0
 37 38  1  0  0  0
 38 39  2  0  0  0
 39 40  1  0  0  0
 40 41  2  0  0  0
 32 33  1  0  0  0
 33 34  2  0  0  0
  3  4  1  0  0  0
  4  5  2  0  0  0
  5  6  1  0  0  0
  5  7  1  0  0  0
  7  8  2  0  0  0
  8  9  1  0  0  0
  9 10  2  0  0  0
 18 13  1  0  0  0
 10  1  1  0  0  0
 34 29  1  0  0  0
 10  4  1  0  0  0
 41 36  1  0  0  0
 27 28  1  0  0  0
 19 20  1  0  0  0
  6 11  1  0  0  0
  6 12  1  0  0  0
M  END
> <minimizedAffinity>
-7.23010

> <CNNscore>
0.3043010831

> <CNNaffinity>
6.9951734543

> <CNN_VS>
2.1286387444

> <CNNaffinity_variance>
0.0674315169

$$$$
[H]c1nc(N([H])C(=O)c2c([H])c([H])c(-c3nc([C@@]4([H])C([H])([H])N(C([H])([H])C(=O)N([H])[H])C([H])([H])C([H])([H])C4([H])[H])n4c([H])c([H])nc(N([H])[H])c34)c([H])c2[H])c([H])c(C(F)(F)F)c1[H]


 44 48  0  0  0  0  0  0  0  0999 V2000
  -18.0651   13.2352  -21.4954 C   0  0  0  0  0  0  0  0  0  0  0  0
  -18.8884   13.1512  -20.3915 N   0  0  0  0  0  0  0  0  0  0  0  0
  -18.4724   12.1139  -19.6003 C   0  0  0  0  0  0  0  0  0  0  0  0
  -17.4056   11.5776  -20.2453 C   0  0  0  0  0  0  0  0  0  0  0  0
  -16.5778   10.5091  -19.9349 C   0  0  0  0  0  0  0  0  0  0  0  0
  -16.8585    9.7650  -18.7674 N   0  0  0  0  0  0  0  0  0  0  0  0
  -15.5702   10.1811  -20.7565 N   0  0  0  0  0  0  0  0  0  0  0  0
  -15.3512   10.8732  -21.8810 C   0  0  0  0  0  0  0  0  0  0  0  0
  -16.1518   11.9509  -22.2360 C   0  0  0  0  0  0  0  0  0  0  0  0
  -17.1578   12.2753  -21.4137 N   0  0  0  0  0  0  0  0  0  0  0  0
  -16.3664    9.7810  -17.8646 H   0  0  0  0  0  0  0  0  0  0  0  0
  -17.6713    9.1019  -18.8422 H   0  0  0  0  0  0  0  0  0  0  0  0
  -18.6936   16.7580  -22.3904 N   0  0  0  0  0  0  0  0  0  0  0  0
  -18.2982   16.8623  -23.7058 C   0  0  0  0  0  0  0  0  0  0  0  0
  -17.8330   15.6235  -24.4095 C   0  0  0  0  0  0  0  0  0  0  0  0
  -17.1287   14.7521  -23.3230 C   0  0  0  0  0  0  0  0  0  0  0  0
  -18.2226   14.3229  -22.4541 C   0  0  0  0  0  0  0  0  0  0  0  0
  -18.8174   15.5461  -21.7355 C   0  0  0  0  0  0  0  0  0  0  0  0
  -19.1326   17.8569  -21.6307 C   0  0  0  0  0  0  0  0  0  0  0  0
  -20.2017   17.6309  -19.4211 N   0  0  0  0  0  0  0  0  0  0  0  0
  -20.3623   17.6983  -20.8507 C   0  0  0  0  0  0  0  0  0  0  0  0
  -21.4498   17.6329  -21.4400 O   0  0  0  0  0  0  0  0  0  0  0  0
  -20.0242   18.5315  -18.8776 H   0  0  0  0  0  0  0  0  0  0  0  0
  -20.2561   16.7243  -18.9503 H   0  0  0  0  0  0  0  0  0  0  0  0
  -19.0782   11.8308  -18.3080 C   0  0  0  0  0  0  0  0  0  0  0  0
  -19.2677   12.7637  -17.3548 C   0  0  0  0  0  0  0  0  0  0  0  0
  -19.6327   12.4051  -16.0480 C   0  0  0  0  0  0  0  0  0  0  0  0
  -19.8157   11.1026  -15.6727 C   0  0  0  0  0  0  0  0  0  0  0  0
  -19.6325   10.1110  -16.6534 C   0  0  0  0  0  0  0  0  0  0  0  0
  -19.2751   10.4930  -17.9212 C   0  0  0  0  0  0  0  0  0  0  0  0
  -20.0540   10.7204  -14.2911 C   0  0  0  0  0  0  0  0  0  0  0  0
  -20.3849   11.6052  -13.4685 O   0  0  0  0  0  0  0  0  0  0  0  0
  -19.9003    9.3865  -13.9001 N   0  0  0  0  0  0  0  0  0  0  0  0
  -19.6442    8.6604  -14.6078 H   0  0  0  0  0  0  0  0  0  0  0  0
  -19.9345    8.9606  -12.5500 C   0  0  0  0  0  0  0  0  0  0  0  0
  -18.8242    8.9290  -11.7478 C   0  0  0  0  0  0  0  0  0  0  0  0
  -18.8756    8.5946  -10.4099 C   0  0  0  0  0  0  0  0  0  0  0  0
  -20.0760    8.2719   -9.8361 C   0  0  0  0  0  0  0  0  0  0  0  0
  -21.2126    8.3012  -10.6571 C   0  0  0  0  0  0  0  0  0  0  0  0
  -21.1049    8.6313  -11.9346 N   0  0  0  0  0  0  0  0  0  0  0  0
  -17.6251    8.5886   -9.5909 C   0  0  0  0  0  0  0  0  0  0  0  0
  -17.7066    7.4610   -8.8035 F   0  0  0  0  0  0  0  0  0  0  0  0
  -17.6848    9.7330   -8.8081 F   0  0  0  0  0  0  0  0  0  0  0  0
  -16.5180    8.5711  -10.4042 F   0  0  0  0  0  0  0  0  0  0  0  0
 20 21  1  0  0  0
 21 22  2  0  0  0
 21 19  1  0  0  0
 19 13  1  0  0  0
 13 14  1  0  0  0
 14 15  1  0  0  0
 15 16  1  0  0  0
 16 17  1  0  0  0
 17 18  1  0  0  0
 17  1  1  0  0  0
  1  2  2  0  0  0
  2  3  1  0  0  0
  3 25  1  0  0  0
 25 26  2  0  0  0
 26 27  1  0  0  0
 27 28  2  0  0  0
 28 29  1  0  0  0
 29 30  2  0  0  0
 28 31  1  0  0  0
 31 32  2  0  0  0
 31 33  1  0  0  0
 33 35  1  0  0  0
 35 36  2  0  0  0
 36 37  1  0  0  0
 37 38  2  0  0  0
 38 39  1  0  0  0
 39 40  2  0  0  0
 37 41  1  0  0  0
 41 42  1  0  0  0
 41 43  1  0  0  0
 41 44  1  0  0  0
  3  4  2  0  0  0
  4  5  1  0  0  0
  5  6  1  0  0  0
  5  7  2  0  0  0
  7  8  1  0  0  0
  8  9  2  0  0  0
  9 10  1  0  0  0
 18 13  1  0  0  0
 10  1  1  0  0  0
 30 25  1  0  0  0
 40 35  1  0  0  0
 10  4  1  0  0  0
 20 23  1  0  0  0
 20 24  1  0  0  0
 33 34  1  0  0  0
  6 11  1  0  0  0
  6 12  1  0  0  0
M  END
> <minimizedAffinity>
-8.54583

> <CNNscore>
0.6617255807

> <CNNaffinity>
7.5617609024

> <CNN_VS>
5.0038104057

> <CNNaffinity_variance>
0.1975540221

$$$$
[H]c1nc(N([H])C(=O)c2c([H])c([H])c(-c3nc([C@@]4([H])C([H])([H])N(C([H])([H])C(=O)N([H])[H])C([H])([H])C([H])([H])C4([H])[H])n4c([H])c([H])nc(N([H])[H])c34)c([H])c2[H])c([H])c(C(F)(F)F)c1[H]


 44 48  0  0  0  0  0  0  0  0999 V2000
  -17.9165   13.4880  -21.5801 C   0  0  0  0  0  0  0  0  0  0  0  0
  -18.6343   13.3762  -20.4072 N   0  0  0  0  0  0  0  0  0  0  0  0
  -18.1824   12.2896  -19.7072 C   0  0  0  0  0  0  0  0  0  0  0  0
  -17.2008   11.7523  -20.4751 C   0  0  0  0  0  0  0  0  0  0  0  0
  -16.3857   10.6450  -20.2941 C   0  0  0  0  0  0  0  0  0  0  0  0
  -16.5811    9.8544  -19.1398 N   0  0  0  0  0  0  0  0  0  0  0  0
  -15.4723   10.3261  -21.2225 N   0  0  0  0  0  0  0  0  0  0  0  0
  -15.3361   11.0647  -22.3305 C   0  0  0  0  0  0  0  0  0  0  0  0
  -16.1281   12.1825  -22.5580 C   0  0  0  0  0  0  0  0  0  0  0  0
  -17.0400   12.4976  -21.6292 N   0  0  0  0  0  0  0  0  0  0  0  0
  -16.0057    9.8116  -18.2886 H   0  0  0  0  0  0  0  0  0  0  0  0
  -17.4202    9.2212  -19.1662 H   0  0  0  0  0  0  0  0  0  0  0  0
  -18.6727   17.0352  -22.2521 N   0  0  0  0  0  0  0  0  0  0  0  0
  -18.3036   17.2306  -23.5646 C   0  0  0  0  0  0  0  0  0  0  0  0
  -17.8112   16.0520  -24.3486 C   0  0  0  0  0  0  0  0  0  0  0  0
  -17.0608   15.1411  -23.3273 C   0  0  0  0  0  0  0  0  0  0  0  0
  -18.1251   14.6250  -22.4691 C   0  0  0  0  0  0  0  0  0  0  0  0
  -18.7463   15.7829  -21.6693 C   0  0  0  0  0  0  0  0  0  0  0  0
  -19.1336   18.0717  -21.4210 C   0  0  0  0  0  0  0  0  0  0  0  0
  -17.1887   18.7644  -20.0742 N   0  0  0  0  0  0  0  0  0  0  0  0
  -18.1828   19.1234  -21.0524 C   0  0  0  0  0  0  0  0  0  0  0  0
  -18.2754   20.2381  -21.5846 O   0  0  0  0  0  0  0  0  0  0  0  0
  -16.3530   18.1753  -20.3783 H   0  0  0  0  0  0  0  0  0  0  0  0
  -17.2997   19.0749  -19.1058 H   0  0  0  0  0  0  0  0  0  0  0  0
  -18.6731   11.9632  -18.3768 C   0  0  0  0  0  0  0  0  0  0  0  0
  -19.0902   10.7334  -18.0186 C   0  0  0  0  0  0  0  0  0  0  0  0
  -19.7716   10.5192  -16.8106 C   0  0  0  0  0  0  0  0  0  0  0  0
  -20.0467   11.5356  -15.9376 C   0  0  0  0  0  0  0  0  0  0  0  0
  -19.6127   12.8275  -16.2857 C   0  0  0  0  0  0  0  0  0  0  0  0
  -18.9502   13.0049  -17.4734 C   0  0  0  0  0  0  0  0  0  0  0  0
  -20.8729   11.3417  -14.7580 C   0  0  0  0  0  0  0  0  0  0  0  0
  -21.2493   10.1826  -14.4686 O   0  0  0  0  0  0  0  0  0  0  0  0
  -21.2430   12.4415  -13.9774 N   0  0  0  0  0  0  0  0  0  0  0  0
  -20.8998   13.3978  -14.2253 H   0  0  0  0  0  0  0  0  0  0  0  0
  -22.1872   12.3682  -12.9245 C   0  0  0  0  0  0  0  0  0  0  0  0
  -23.5398   12.4512  -13.1265 C   0  0  0  0  0  0  0  0  0  0  0  0
  -24.4602   12.2948  -12.1102 C   0  0  0  0  0  0  0  0  0  0  0  0
  -24.0282   12.0494  -10.8344 C   0  0  0  0  0  0  0  0  0  0  0  0
  -22.6438   11.9672  -10.6262 C   0  0  0  0  0  0  0  0  0  0  0  0
  -21.8060   12.1238  -11.6393 N   0  0  0  0  0  0  0  0  0  0  0  0
  -25.9229   12.3897  -12.4034 C   0  0  0  0  0  0  0  0  0  0  0  0
  -26.4591   13.1219  -11.3668 F   0  0  0  0  0  0  0  0  0  0  0  0
  -26.3962   11.0854  -12.3725 F   0  0  0  0  0  0  0  0  0  0  0  0
  -26.1311   12.9905  -13.6212 F   0  0  0  0  0  0  0  0  0  0  0  0
 20 21  1  0  0  0
 21 22  2  0  0  0
 21 19  1  0  0  0
 19 13  1  0  0  0
 13 14  1  0  0  0
 14 15  1  0  0  0
 15 16  1  0  0  0
 16 17  1  0  0  0
 17 18  1  0  0  0
 17  1  1  0  0  0
  1  2  2  0  0  0
  2  3  1  0  0  0
  3 25  1  0  0  0
 25 26  2  0  0  0
 26 27  1  0  0  0
 27 28  2  0  0  0
 28 29  1  0  0  0
 29 30  2  0  0  0
 28 31  1  0  0  0
 31 32  2  0  0  0
 31 33  1  0  0  0
 33 35  1  0  0  0
 35 36  2  0  0  0
 36 37  1  0  0  0
 37 38  2  0  0  0
 38 39  1  0  0  0
 39 40  2  0  0  0
 37 41  1  0  0  0
 41 42  1  0  0  0
 41 43  1  0  0  0
 41 44  1  0  0  0
  3  4  2  0  0  0
  4  5  1  0  0  0
  5  6  1  0  0  0
  5  7  2  0  0  0
  7  8  1  0  0  0
  8  9  2  0  0  0
  9 10  1  0  0  0
 18 13  1  0  0  0
 10  1  1  0  0  0
 30 25  1  0  0  0
 40 35  1  0  0  0
 10  4  1  0  0  0
 20 23  1  0  0  0
 20 24  1  0  0  0
 33 34  1  0  0  0
  6 11  1  0  0  0
  6 12  1  0  0  0
M  END
> <minimizedAffinity>
-8.30914

> <CNNscore>
0.6104659438

> <CNNaffinity>
7.3702659607

> <CNN_VS>
4.4992961884

> <CNNaffinity_variance>
0.0709895045

$$$$
[H]c1nc(N([H])C(=O)c2c([H])c([H])c(-c3nc([C@@]4([H])C([H])([H])N(C([H])([H])C(=O)N([H])[H])C([H])([H])C([H])([H])C4([H])[H])n4c([H])c([H])nc(N([H])[H])c34)c([H])c2[H])c([H])c(C(F)(F)F)c1[H]


 44 48  0  0  0  0  0  0  0  0999 V2000
  -18.0494   13.5712  -21.4524 C   0  0  0  0  0  0  0  0  0  0  0  0
  -18.7351   13.2615  -20.2960 N   0  0  0  0  0  0  0  0  0  0  0  0
  -18.1977   12.1284  -19.7463 C   0  0  0  0  0  0  0  0  0  0  0  0
  -17.1973   11.7626  -20.5873 C   0  0  0  0  0  0  0  0  0  0  0  0
  -16.3062   10.7003  -20.5588 C   0  0  0  0  0  0  0  0  0  0  0  0
  -16.4255    9.7574  -19.5136 N   0  0  0  0  0  0  0  0  0  0  0  0
  -15.3917   10.5663  -21.5302 N   0  0  0  0  0  0  0  0  0  0  0  0
  -15.3271   11.4477  -22.5354 C   0  0  0  0  0  0  0  0  0  0  0  0
  -16.1967   12.5278  -22.6090 C   0  0  0  0  0  0  0  0  0  0  0  0
  -17.1094   12.6582  -21.6377 N   0  0  0  0  0  0  0  0  0  0  0  0
  -15.8321    9.6464  -18.6811 H   0  0  0  0  0  0  0  0  0  0  0  0
  -17.2205    9.0762  -19.6121 H   0  0  0  0  0  0  0  0  0  0  0  0
  -17.8712   17.2194  -21.9670 N   0  0  0  0  0  0  0  0  0  0  0  0
  -18.2789   17.4110  -23.2687 C   0  0  0  0  0  0  0  0  0  0  0  0
  -18.7308   16.2184  -24.0559 C   0  0  0  0  0  0  0  0  0  0  0  0
  -17.8713   15.0187  -23.5478 C   0  0  0  0  0  0  0  0  0  0  0  0
  -18.3513   14.7951  -22.1857 C   0  0  0  0  0  0  0  0  0  0  0  0
  -17.9944   16.0084  -21.3101 C   0  0  0  0  0  0  0  0  0  0  0  0
  -17.4140   18.2635  -21.1435 C   0  0  0  0  0  0  0  0  0  0  0  0
  -18.1638   20.6014  -21.3635 N   0  0  0  0  0  0  0  0  0  0  0  0
  -18.3726   19.3062  -20.7695 C   0  0  0  0  0  0  0  0  0  0  0  0
  -19.2907   19.0322  -19.9845 O   0  0  0  0  0  0  0  0  0  0  0  0
  -18.4546   20.7582  -22.3778 H   0  0  0  0  0  0  0  0  0  0  0  0
  -17.7383   21.3477  -20.8080 H   0  0  0  0  0  0  0  0  0  0  0  0
  -18.6394   11.6019  -18.4637 C   0  0  0  0  0  0  0  0  0  0  0  0
  -18.5841   10.2963  -18.1365 C   0  0  0  0  0  0  0  0  0  0  0  0
  -19.2334    9.8044  -16.9938 C   0  0  0  0  0  0  0  0  0  0  0  0
  -19.9504   10.6141  -16.1563 C   0  0  0  0  0  0  0  0  0  0  0  0
  -20.0148   11.9831  -16.4723 C   0  0  0  0  0  0  0  0  0  0  0  0
  -19.3705   12.4333  -17.5963 C   0  0  0  0  0  0  0  0  0  0  0  0
  -20.7383   10.0864  -15.0552 C   0  0  0  0  0  0  0  0  0  0  0  0
  -20.3642   10.3142  -13.8816 O   0  0  0  0  0  0  0  0  0  0  0  0
  -21.8844    9.3292  -15.3178 N   0  0  0  0  0  0  0  0  0  0  0  0
  -22.1905    9.1693  -16.3049 H   0  0  0  0  0  0  0  0  0  0  0  0
  -22.6032    8.6298  -14.3180 C   0  0  0  0  0  0  0  0  0  0  0  0
  -22.3045    7.3466  -13.9423 C   0  0  0  0  0  0  0  0  0  0  0  0
  -22.9514    6.6981  -12.9101 C   0  0  0  0  0  0  0  0  0  0  0  0
  -23.9419    7.3421  -12.2182 C   0  0  0  0  0  0  0  0  0  0  0  0
  -24.2503    8.6546  -12.6039 C   0  0  0  0  0  0  0  0  0  0  0  0
  -23.5956    9.2286  -13.6013 N   0  0  0  0  0  0  0  0  0  0  0  0
  -22.5686    5.2994  -12.5476 C   0  0  0  0  0  0  0  0  0  0  0  0
  -21.1938    5.2612  -12.6296 F   0  0  0  0  0  0  0  0  0  0  0  0
  -23.1359    4.4913  -13.5229 F   0  0  0  0  0  0  0  0  0  0  0  0
  -23.0191    4.9890  -11.2873 F   0  0  0  0  0  0  0  0  0  0  0  0
 20 21  1  0  0  0
 21 22  2  0  0  0
 21 19  1  0  0  0
 19 13  1  0  0  0
 13 14  1  0  0  0
 14 15  1  0  0  0
 15 16  1  0  0  0
 16 17  1  0  0  0
 17 18  1  0  0  0
 17  1  1  0  0  0
  1  2  2  0  0  0
  2  3  1  0  0  0
  3 25  1  0  0  0
 25 26  2  0  0  0
 26 27  1  0  0  0
 27 28  2  0  0  0
 28 29  1  0  0  0
 29 30  2  0  0  0
 28 31  1  0  0  0
 31 32  2  0  0  0
 31 33  1  0  0  0
 33 35  1  0  0  0
 35 36  2  0  0  0
 36 37  1  0  0  0
 37 38  2  0  0  0
 38 39  1  0  0  0
 39 40  2  0  0  0
 37 41  1  0  0  0
 41 42  1  0  0  0
 41 43  1  0  0  0
 41 44  1  0  0  0
  3  4  2  0  0  0
  4  5  1  0  0  0
  5  6  1  0  0  0
  5  7  2  0  0  0
  7  8  1  0  0  0
  8  9  2  0  0  0
  9 10  1  0  0  0
 18 13  1  0  0  0
 10  1  1  0  0  0
 30 25  1  0  0  0
 40 35  1  0  0  0
 10  4  1  0  0  0
 20 23  1  0  0  0
 20 24  1  0  0  0
 33 34  1  0  0  0
  6 11  1  0  0  0
  6 12  1  0  0  0
M  END
> <minimizedAffinity>
-8.25429

> <CNNscore>
0.5698233247

> <CNNaffinity>
7.3840279579

> <CNN_VS>
4.2075915337

> <CNNaffinity_variance>
0.1557404548

$$$$
[H]c1nc(N([H])C(=O)c2c([H])c([H])c(-c3nc([C@@]4([H])C([H])([H])N(C([H])([H])C(=O)N([H])[H])C([H])([H])C([H])([H])C4([H])[H])n4c([H])c([H])nc(N([H])[H])c34)c([H])c2[H])c([H])c(C(F)(F)F)c1[H]


 44 48  0  0  0  0  0  0  0  0999 V2000
  -18.0555   13.0920  -21.2470 C   0  0  0  0  0  0  0  0  0  0  0  0
  -18.9248   13.1856  -20.1798 N   0  0  0  0  0  0  0  0  0  0  0  0
  -18.6460   12.1864  -19.2860 C   0  0  0  0  0  0  0  0  0  0  0  0
  -17.6145   11.4946  -19.8330 C   0  0  0  0  0  0  0  0  0  0  0  0
  -16.9109   10.3824  -19.3958 C   0  0  0  0  0  0  0  0  0  0  0  0
  -17.3097    9.7745  -18.1846 N   0  0  0  0  0  0  0  0  0  0  0  0
  -15.9106    9.8873  -20.1389 N   0  0  0  0  0  0  0  0  0  0  0  0
  -15.5800   10.4535  -21.3058 C   0  0  0  0  0  0  0  0  0  0  0  0
  -16.2540   11.5683  -21.7869 C   0  0  0  0  0  0  0  0  0  0  0  0
  -17.2531   12.0596  -21.0428 N   0  0  0  0  0  0  0  0  0  0  0  0
  -16.8536    9.8221  -17.2642 H   0  0  0  0  0  0  0  0  0  0  0  0
  -18.1816    9.1893  -18.2418 H   0  0  0  0  0  0  0  0  0  0  0  0
  -17.1080   16.3596  -22.6723 N   0  0  0  0  0  0  0  0  0  0  0  0
  -17.4081   16.2585  -24.0129 C   0  0  0  0  0  0  0  0  0  0  0  0
  -18.0592   15.0010  -24.5037 C   0  0  0  0  0  0  0  0  0  0  0  0
  -17.4887   13.8492  -23.6183 C   0  0  0  0  0  0  0  0  0  0  0  0
  -18.0657   14.1013  -22.2996 C   0  0  0  0  0  0  0  0  0  0  0  0
  -17.5073   15.4204  -21.7387 C   0  0  0  0  0  0  0  0  0  0  0  0
  -16.4839   17.4860  -22.1075 C   0  0  0  0  0  0  0  0  0  0  0  0
  -16.7309   18.5271  -19.8869 N   0  0  0  0  0  0  0  0  0  0  0  0
  -17.2768   18.3230  -21.2038 C   0  0  0  0  0  0  0  0  0  0  0  0
  -18.3467   18.8021  -21.6037 O   0  0  0  0  0  0  0  0  0  0  0  0
  -15.9320   19.2225  -19.7603 H   0  0  0  0  0  0  0  0  0  0  0  0
  -17.1129   18.0021  -19.0962 H   0  0  0  0  0  0  0  0  0  0  0  0
  -19.3264   12.0780  -18.0044 C   0  0  0  0  0  0  0  0  0  0  0  0
  -19.7104   10.9059  -17.4627 C   0  0  0  0  0  0  0  0  0  0  0  0
  -20.5658   10.8635  -16.3510 C   0  0  0  0  0  0  0  0  0  0  0  0
  -21.0519   11.9975  -15.7605 C   0  0  0  0  0  0  0  0  0  0  0  0
  -20.6574   13.2339  -16.3029 C   0  0  0  0  0  0  0  0  0  0  0  0
  -19.8213   13.2424  -17.3900 C   0  0  0  0  0  0  0  0  0  0  0  0
  -22.0466   11.9546  -14.7020 C   0  0  0  0  0  0  0  0  0  0  0  0
  -21.7750   12.4780  -13.5968 O   0  0  0  0  0  0  0  0  0  0  0  0
  -23.2756   11.3255  -14.9250 N   0  0  0  0  0  0  0  0  0  0  0  0
  -23.4897   10.9138  -15.8622 H   0  0  0  0  0  0  0  0  0  0  0  0
  -24.2231   11.0799  -13.9016 C   0  0  0  0  0  0  0  0  0  0  0  0
  -24.2137    9.9475  -13.1304 C   0  0  0  0  0  0  0  0  0  0  0  0
  -25.0854    9.7496  -12.0790 C   0  0  0  0  0  0  0  0  0  0  0  0
  -26.0127   10.7101  -11.7756 C   0  0  0  0  0  0  0  0  0  0  0  0
  -26.0250   11.8683  -12.5662 C   0  0  0  0  0  0  0  0  0  0  0  0
  -25.1635   12.0058  -13.5621 N   0  0  0  0  0  0  0  0  0  0  0  0
  -25.0139    8.4926  -11.2733 C   0  0  0  0  0  0  0  0  0  0  0  0
  -23.6927    8.1040  -11.3143 F   0  0  0  0  0  0  0  0  0  0  0  0
  -25.8113    7.5738  -11.9412 F   0  0  0  0  0  0  0  0  0  0  0  0
  -25.4452    8.7198   -9.9888 F   0  0  0  0  0  0  0  0  0  0  0  0
 20 21  1  0  0  0
 21 22  2  0  0  0
 21 19  1  0  0  0
 19 13  1  0  0  0
 13 14  1  0  0  0
 14 15  1  0  0  0
 15 16  1  0  0  0
 16 17  1  0  0  0
 17 18  1  0  0  0
 17  1  1  0  0  0
  1  2  2  0  0  0
  2  3  1  0  0  0
  3 25  1  0  0  0
 25 26  2  0  0  0
 26 27  1  0  0  0
 27 28  2  0  0  0
 28 29  1  0  0  0
 29 30  2  0  0  0
 28 31  1  0  0  0
 31 32  2  0  0  0
 31 33  1  0  0  0
 33 35  1  0  0  0
 35 36  2  0  0  0
 36 37  1  0  0  0
 37 38  2  0  0  0
 38 39  1  0  0  0
 39 40  2  0  0  0
 37 41  1  0  0  0
 41 42  1  0  0  0
 41 43  1  0  0  0
 41 44  1  0  0  0
  3  4  2  0  0  0
  4  5  1  0  0  0
  5  6  1  0  0  0
  5  7  2  0  0  0
  7  8  1  0  0  0
  8  9  2  0  0  0
  9 10  1  0  0  0
 18 13  1  0  0  0
 10  1  1  0  0  0
 30 25  1  0  0  0
 40 35  1  0  0  0
 10  4  1  0  0  0
 20 23  1  0  0  0
 20 24  1  0  0  0
 33 34  1  0  0  0
  6 11  1  0  0  0
  6 12  1  0  0  0
M  END
> <minimizedAffinity>
-8.32888

> <CNNscore>
0.5601511002

> <CNNaffinity>
7.1808042526

> <CNN_VS>
4.0223355293

> <CNNaffinity_variance>
0.0817650408

$$$$
[H]c1nc(N([H])C(=O)c2c([H])c([H])c(-c3nc([C@@]4([H])C([H])([H])N(C([H])([H])C(=O)N([H])[H])C([H])([H])C([H])([H])C4([H])[H])n4c([H])c([H])nc(N([H])[H])c34)c([H])c2[H])c([H])c(C(F)(F)F)c1[H]


 44 48  0  0  0  0  0  0  0  0999 V2000
  -17.8991   13.4190  -21.6474 C   0  0  0  0  0  0  0  0  0  0  0  0
  -18.6295   13.3164  -20.4815 N   0  0  0  0  0  0  0  0  0  0  0  0
  -18.1701   12.2488  -19.7575 C   0  0  0  0  0  0  0  0  0  0  0  0
  -17.1713   11.7134  -20.5041 C   0  0  0  0  0  0  0  0  0  0  0  0
  -16.3421   10.6218  -20.2944 C   0  0  0  0  0  0  0  0  0  0  0  0
  -16.5398    9.8481  -19.1290 N   0  0  0  0  0  0  0  0  0  0  0  0
  -15.4128   10.3009  -21.2061 N   0  0  0  0  0  0  0  0  0  0  0  0
  -15.2740   11.0225  -22.3249 C   0  0  0  0  0  0  0  0  0  0  0  0
  -16.0797   12.1241  -22.5811 C   0  0  0  0  0  0  0  0  0  0  0  0
  -17.0075   12.4413  -21.6689 N   0  0  0  0  0  0  0  0  0  0  0  0
  -15.9744    9.8286  -18.2703 H   0  0  0  0  0  0  0  0  0  0  0  0
  -17.3690    9.2019  -19.1545 H   0  0  0  0  0  0  0  0  0  0  0  0
  -18.6033   16.9636  -22.3862 N   0  0  0  0  0  0  0  0  0  0  0  0
  -18.2746   17.1176  -23.7149 C   0  0  0  0  0  0  0  0  0  0  0  0
  -17.8335   15.9091  -24.4838 C   0  0  0  0  0  0  0  0  0  0  0  0
  -17.0683   15.0083  -23.4645 C   0  0  0  0  0  0  0  0  0  0  0  0
  -18.1138   14.5374  -22.5584 C   0  0  0  0  0  0  0  0  0  0  0  0
  -18.6834   15.7284  -21.7689 C   0  0  0  0  0  0  0  0  0  0  0  0
  -19.0142   18.0306  -21.5676 C   0  0  0  0  0  0  0  0  0  0  0  0
  -18.2535   20.3549  -21.2591 N   0  0  0  0  0  0  0  0  0  0  0  0
  -17.9844   18.9515  -21.0804 C   0  0  0  0  0  0  0  0  0  0  0  0
  -16.9620   18.4931  -20.5525 O   0  0  0  0  0  0  0  0  0  0  0  0
  -18.9374   20.8386  -20.5986 H   0  0  0  0  0  0  0  0  0  0  0  0
  -17.7900   20.8644  -22.0155 H   0  0  0  0  0  0  0  0  0  0  0  0
  -18.6722   11.9378  -18.4276 C   0  0  0  0  0  0  0  0  0  0  0  0
  -19.0790   10.7090  -18.0545 C   0  0  0  0  0  0  0  0  0  0  0  0
  -19.7716   10.5060  -16.8510 C   0  0  0  0  0  0  0  0  0  0  0  0
  -20.0685   11.5329  -15.9975 C   0  0  0  0  0  0  0  0  0  0  0  0
  -19.6457   12.8241  -16.3613 C   0  0  0  0  0  0  0  0  0  0  0  0
  -18.9717   12.9905  -17.5442 C   0  0  0  0  0  0  0  0  0  0  0  0
  -20.9058   11.3480  -14.8244 C   0  0  0  0  0  0  0  0  0  0  0  0
  -22.1223   11.6371  -14.8993 O   0  0  0  0  0  0  0  0  0  0  0  0
  -20.3457   10.8667  -13.6367 N   0  0  0  0  0  0  0  0  0  0  0  0
  -19.3322   10.6113  -13.6025 H   0  0  0  0  0  0  0  0  0  0  0  0
  -21.0432   10.8286  -12.4048 C   0  0  0  0  0  0  0  0  0  0  0  0
  -21.3321   11.9511  -11.6745 C   0  0  0  0  0  0  0  0  0  0  0  0
  -22.0848   11.9197  -10.5182 C   0  0  0  0  0  0  0  0  0  0  0  0
  -22.5722   10.7262  -10.0572 C   0  0  0  0  0  0  0  0  0  0  0  0
  -22.2746    9.5762  -10.8026 C   0  0  0  0  0  0  0  0  0  0  0  0
  -21.5488    9.6654  -11.9063 N   0  0  0  0  0  0  0  0  0  0  0  0
  -22.3690   13.1851   -9.7749 C   0  0  0  0  0  0  0  0  0  0  0  0
  -22.7979   14.0830  -10.7279 F   0  0  0  0  0  0  0  0  0  0  0  0
  -21.1526   13.5872   -9.2413 F   0  0  0  0  0  0  0  0  0  0  0  0
  -23.3176   12.9700   -8.8047 F   0  0  0  0  0  0  0  0  0  0  0  0
 20 21  1  0  0  0
 21 22  2  0  0  0
 21 19  1  0  0  0
 19 13  1  0  0  0
 13 14  1  0  0  0
 14 15  1  0  0  0
 15 16  1  0  0  0
 16 17  1  0  0  0
 17 18  1  0  0  0
 17  1  1  0  0  0
  1  2  2  0  0  0
  2  3  1  0  0  0
  3 25  1  0  0  0
 25 26  2  0  0  0
 26 27  1  0  0  0
 27 28  2  0  0  0
 28 29  1  0  0  0
 29 30  2  0  0  0
 28 31  1  0  0  0
 31 32  2  0  0  0
 31 33  1  0  0  0
 33 35  1  0  0  0
 35 36  2  0  0  0
 36 37  1  0  0  0
 37 38  2  0  0  0
 38 39  1  0  0  0
 39 40  2  0  0  0
 37 41  1  0  0  0
 41 42  1  0  0  0
 41 43  1  0  0  0
 41 44  1  0  0  0
  3  4  2  0  0  0
  4  5  1  0  0  0
  5  6  1  0  0  0
  5  7  2  0  0  0
  7  8  1  0  0  0
  8  9  2  0  0  0
  9 10  1  0  0  0
 18 13  1  0  0  0
 10  1  1  0  0  0
 30 25  1  0  0  0
 40 35  1  0  0  0
 10  4  1  0  0  0
 20 23  1  0  0  0
 20 24  1  0  0  0
 33 34  1  0  0  0
  6 11  1  0  0  0
  6 12  1  0  0  0
M  END
> <minimizedAffinity>
-8.54408

> <CNNscore>
0.4916226864

> <CNNaffinity>
7.2542252541

> <CNN_VS>
3.5663416386

> <CNNaffinity_variance>
0.1148665547

$$$$
[H]c1nc(N([H])C(=O)c2c([H])c([H])c(-c3nc([C@@]4([H])C([H])([H])N(C([H])([H])C(=O)N([H])[H])C([H])([H])C([H])([H])C4([H])[H])n4c([H])c([H])nc(N([H])[H])c34)c([H])c2[H])c([H])c(C(F)(F)F)c1[H]


 44 48  0  0  0  0  0  0  0  0999 V2000
  -19.1505   11.0173  -17.4838 C   0  0  0  0  0  0  0  0  0  0  0  0
  -19.7732   12.2449  -17.5772 N   0  0  0  0  0  0  0  0  0  0  0  0
  -19.3022   12.9033  -18.6816 C   0  0  0  0  0  0  0  0  0  0  0  0
  -18.3906   12.0648  -19.2362 C   0  0  0  0  0  0  0  0  0  0  0  0
  -17.5864   12.1843  -20.3597 C   0  0  0  0  0  0  0  0  0  0  0  0
  -17.6388   13.3911  -21.0923 N   0  0  0  0  0  0  0  0  0  0  0  0
  -16.7571   11.1871  -20.6997 N   0  0  0  0  0  0  0  0  0  0  0  0
  -16.6917   10.0707  -19.9641 C   0  0  0  0  0  0  0  0  0  0  0  0
  -17.4761    9.9030  -18.8305 C   0  0  0  0  0  0  0  0  0  0  0  0
  -18.3026   10.9013  -18.4933 N   0  0  0  0  0  0  0  0  0  0  0  0
  -18.0948   13.5718  -21.9961 H   0  0  0  0  0  0  0  0  0  0  0  0
  -17.1340   14.2036  -20.6555 H   0  0  0  0  0  0  0  0  0  0  0  0
  -21.6108    9.4594  -15.2197 N   0  0  0  0  0  0  0  0  0  0  0  0
  -21.0050    8.3007  -14.7863 C   0  0  0  0  0  0  0  0  0  0  0  0
  -19.6006    8.0230  -15.2296 C   0  0  0  0  0  0  0  0  0  0  0  0
  -19.4782    8.6212  -16.6660 C   0  0  0  0  0  0  0  0  0  0  0  0
  -19.5440   10.0653  -16.4516 C   0  0  0  0  0  0  0  0  0  0  0  0
  -20.9385   10.4426  -15.9231 C   0  0  0  0  0  0  0  0  0  0  0  0
  -22.9286    9.8117  -14.8781 C   0  0  0  0  0  0  0  0  0  0  0  0
  -25.1801    9.9853  -15.8663 N   0  0  0  0  0  0  0  0  0  0  0  0
  -24.0188    9.1709  -15.6174 C   0  0  0  0  0  0  0  0  0  0  0  0
  -23.8933    7.9943  -15.9837 O   0  0  0  0  0  0  0  0  0  0  0  0
  -25.1421   10.7171  -16.6416 H   0  0  0  0  0  0  0  0  0  0  0  0
  -26.0194    9.8536  -15.2963 H   0  0  0  0  0  0  0  0  0  0  0  0
  -19.8400   14.1857  -19.1099 C   0  0  0  0  0  0  0  0  0  0  0  0
  -20.9164   14.3112  -19.9101 C   0  0  0  0  0  0  0  0  0  0  0  0
  -21.2549   15.5452  -20.4863 C   0  0  0  0  0  0  0  0  0  0  0  0
  -20.5198   16.6782  -20.2695 C   0  0  0  0  0  0  0  0  0  0  0  0
  -19.3962   16.5739  -19.4297 C   0  0  0  0  0  0  0  0  0  0  0  0
  -19.0907   15.3540  -18.8823 C   0  0  0  0  0  0  0  0  0  0  0  0
  -20.7847   17.9206  -20.9749 C   0  0  0  0  0  0  0  0  0  0  0  0
  -21.6327   18.7132  -20.5040 O   0  0  0  0  0  0  0  0  0  0  0  0
  -20.1057   18.2059  -22.1639 N   0  0  0  0  0  0  0  0  0  0  0  0
  -19.3862   17.5400  -22.5278 H   0  0  0  0  0  0  0  0  0  0  0  0
  -20.4307   19.2981  -23.0048 C   0  0  0  0  0  0  0  0  0  0  0  0
  -21.4306   19.2495  -23.9401 C   0  0  0  0  0  0  0  0  0  0  0  0
  -21.8007   20.3413  -24.6988 C   0  0  0  0  0  0  0  0  0  0  0  0
  -21.1527   21.5358  -24.5315 C   0  0  0  0  0  0  0  0  0  0  0  0
  -20.1271   21.5856  -23.5764 C   0  0  0  0  0  0  0  0  0  0  0  0
  -19.8151   20.5069  -22.8751 N   0  0  0  0  0  0  0  0  0  0  0  0
  -22.9073   20.2197  -25.6963 C   0  0  0  0  0  0  0  0  0  0  0  0
  -22.9895   18.8767  -25.9926 F   0  0  0  0  0  0  0  0  0  0  0  0
  -22.4898   20.9377  -26.8081 F   0  0  0  0  0  0  0  0  0  0  0  0
  -24.0813   20.7054  -25.1734 F   0  0  0  0  0  0  0  0  0  0  0  0
 20 21  1  0  0  0
 21 22  2  0  0  0
 21 19  1  0  0  0
 19 13  1  0  0  0
 13 14  1  0  0  0
 14 15  1  0  0  0
 15 16  1  0  0  0
 16 17  1  0  0  0
 17 18  1  0  0  0
 17  1  1  0  0  0
  1  2  2  0  0  0
  2  3  1  0  0  0
  3 25  1  0  0  0
 25 26  2  0  0  0
 26 27  1  0  0  0
 27 28  2  0  0  0
 28 29  1  0  0  0
 29 30  2  0  0  0
 28 31  1  0  0  0
 31 32  2  0  0  0
 31 33  1  0  0  0
 33 35  1  0  0  0
 35 36  2  0  0  0
 36 37  1  0  0  0
 37 38  2  0  0  0
 38 39  1  0  0  0
 39 40  2  0  0  0
 37 41  1  0  0  0
 41 42  1  0  0  0
 41 43  1  0  0  0
 41 44  1  0  0  0
  3  4  2  0  0  0
  4  5  1  0  0  0
  5  6  1  0  0  0
  5  7  2  0  0  0
  7  8  1  0  0  0
  8  9  2  0  0  0
  9 10  1  0  0  0
 18 13  1  0  0  0
 10  1  1  0  0  0
 30 25  1  0  0  0
 40 35  1  0  0  0
 10  4  1  0  0  0
 20 23  1  0  0  0
 20 24  1  0  0  0
 33 34  1  0  0  0
  6 11  1  0  0  0
  6 12  1  0  0  0
M  END
> <minimizedAffinity>
-9.09920

> <CNNscore>
0.3996508121

> <CNNaffinity>
7.0705156326

> <CNN_VS>
2.8257372379

> <CNNaffinity_variance>
0.0618109927

$$$$
[H]c1nc(N([H])C(=O)c2c([H])c([H])c(-c3nc([C@@]4([H])C([H])([H])N(C([H])([H])C(=O)N([H])[H])C([H])([H])C([H])([H])C4([H])[H])n4c([H])c([H])nc(N([H])[H])c34)c([H])c2[H])c([H])c(C(F)(F)F)c1[H]


 44 48  0  0  0  0  0  0  0  0999 V2000
  -20.6541   11.7159  -15.7006 C   0  0  0  0  0  0  0  0  0  0  0  0
  -20.3254   12.6314  -16.6789 N   0  0  0  0  0  0  0  0  0  0  0  0
  -19.4456   12.0542  -17.5552 C   0  0  0  0  0  0  0  0  0  0  0  0
  -19.2468   10.7964  -17.0861 C   0  0  0  0  0  0  0  0  0  0  0  0
  -18.4608    9.7505  -17.5460 C   0  0  0  0  0  0  0  0  0  0  0  0
  -17.6566    9.9718  -18.6862 N   0  0  0  0  0  0  0  0  0  0  0  0
  -18.4459    8.5830  -16.8869 N   0  0  0  0  0  0  0  0  0  0  0  0
  -19.1821    8.4114  -15.7823 C   0  0  0  0  0  0  0  0  0  0  0  0
  -19.9852    9.4277  -15.2818 C   0  0  0  0  0  0  0  0  0  0  0  0
  -19.9970   10.5928  -15.9420 N   0  0  0  0  0  0  0  0  0  0  0  0
  -17.8061    9.6418  -19.6486 H   0  0  0  0  0  0  0  0  0  0  0  0
  -16.7874   10.5397  -18.5192 H   0  0  0  0  0  0  0  0  0  0  0  0
  -23.9335   11.2679  -14.0725 N   0  0  0  0  0  0  0  0  0  0  0  0
  -23.8207   11.9263  -12.8679 C   0  0  0  0  0  0  0  0  0  0  0  0
  -22.5484   12.6625  -12.5756 C   0  0  0  0  0  0  0  0  0  0  0  0
  -21.4119   11.8454  -13.2661 C   0  0  0  0  0  0  0  0  0  0  0  0
  -21.6584   12.0385  -14.6936 C   0  0  0  0  0  0  0  0  0  0  0  0
  -22.9907   11.3730  -15.0790 C   0  0  0  0  0  0  0  0  0  0  0  0
  -25.0745   10.5343  -14.4432 C   0  0  0  0  0  0  0  0  0  0  0  0
  -24.8646    8.6524  -16.0214 N   0  0  0  0  0  0  0  0  0  0  0  0
  -24.9199    9.0926  -14.6513 C   0  0  0  0  0  0  0  0  0  0  0  0
  -24.8451    8.3428  -13.6682 O   0  0  0  0  0  0  0  0  0  0  0  0
  -23.9601    8.7851  -16.5711 H   0  0  0  0  0  0  0  0  0  0  0  0
  -25.6907    8.2243  -16.4467 H   0  0  0  0  0  0  0  0  0  0  0  0
  -18.9875   12.7340  -18.7574 C   0  0  0  0  0  0  0  0  0  0  0  0
  -18.8880   12.1338  -19.9593 C   0  0  0  0  0  0  0  0  0  0  0  0
  -18.2233   12.7530  -21.0291 C   0  0  0  0  0  0  0  0  0  0  0  0
  -17.6463   13.9877  -20.9134 C   0  0  0  0  0  0  0  0  0  0  0  0
  -17.7453   14.6383  -19.6703 C   0  0  0  0  0  0  0  0  0  0  0  0
  -18.4003   14.0070  -18.6439 C   0  0  0  0  0  0  0  0  0  0  0  0
  -16.8382   14.5677  -21.9728 C   0  0  0  0  0  0  0  0  0  0  0  0
  -16.7904   15.8147  -22.0817 O   0  0  0  0  0  0  0  0  0  0  0  0
  -16.1422   13.7346  -22.8546 N   0  0  0  0  0  0  0  0  0  0  0  0
  -16.1790   12.6967  -22.7323 H   0  0  0  0  0  0  0  0  0  0  0  0
  -15.4831   14.2055  -24.0162 C   0  0  0  0  0  0  0  0  0  0  0  0
  -16.1153   14.3661  -25.2210 C   0  0  0  0  0  0  0  0  0  0  0  0
  -15.4922   14.9045  -26.3284 C   0  0  0  0  0  0  0  0  0  0  0  0
  -14.1838   15.2994  -26.2466 C   0  0  0  0  0  0  0  0  0  0  0  0
  -13.5350   15.1327  -25.0145 C   0  0  0  0  0  0  0  0  0  0  0  0
  -14.1828   14.6117  -23.9841 N   0  0  0  0  0  0  0  0  0  0  0  0
  -16.2452   15.0588  -27.6104 C   0  0  0  0  0  0  0  0  0  0  0  0
  -17.0405   13.9380  -27.7070 F   0  0  0  0  0  0  0  0  0  0  0  0
  -15.2839   15.0600  -28.6114 F   0  0  0  0  0  0  0  0  0  0  0  0
  -16.9847   16.2166  -27.5972 F   0  0  0  0  0  0  0  0  0  0  0  0
 20 21  1  0  0  0
 21 22  2  0  0  0
 21 19  1  0  0  0
 19 13  1  0  0  0
 13 14  1  0  0  0
 14 15  1  0  0  0
 15 16  1  0  0  0
 16 17  1  0  0  0
 17 18  1  0  0  0
 17  1  1  0  0  0
  1  2  2  0  0  0
  2  3  1  0  0  0
  3 25  1  0  0  0
 25 26  2  0  0  0
 26 27  1  0  0  0
 27 28  2  0  0  0
 28 29  1  0  0  0
 29 30  2  0  0  0
 28 31  1  0  0  0
 31 32  2  0  0  0
 31 33  1  0  0  0
 33 35  1  0  0  0
 35 36  2  0  0  0
 36 37  1  0  0  0
 37 38  2  0  0  0
 38 39  1  0  0  0
 39 40  2  0  0  0
 37 41  1  0  0  0
 41 42  1  0  0  0
 41 43  1  0  0  0
 41 44  1  0  0  0
  3  4  2  0  0  0
  4  5  1  0  0  0
  5  6  1  0  0  0
  5  7  2  0  0  0
  7  8  1  0  0  0
  8  9  2  0  0  0
  9 10  1  0  0  0
 18 13  1  0  0  0
 10  1  1  0  0  0
 30 25  1  0  0  0
 40 35  1  0  0  0
 10  4  1  0  0  0
 20 23  1  0  0  0
 20 24  1  0  0  0
 33 34  1  0  0  0
  6 11  1  0  0  0
  6 12  1  0  0  0
M  END
> <minimizedAffinity>
-9.20402

> <CNNscore>
0.2433575839

> <CNNaffinity>
6.9124550819

> <CNN_VS>
1.6821984053

> <CNNaffinity_variance>
0.1065123230

$$$$
[H]c1nc(N([H])C(=O)c2c([H])c([H])c(-c3nc([C@@]4([H])C([H])([H])N(C([H])([H])C(=O)N([H])[H])C([H])([H])C([H])([H])C4([H])[H])n4c([H])c([H])nc(N([H])[H])c34)c([H])c2[H])c([H])c(C(F)(F)F)c1[H]


 44 48  0  0  0  0  0  0  0  0999 V2000
  -18.9112   10.9619  -17.4489 C   0  0  0  0  0  0  0  0  0  0  0  0
  -19.5597   12.1784  -17.5036 N   0  0  0  0  0  0  0  0  0  0  0  0
  -19.1776   12.8390  -18.6406 C   0  0  0  0  0  0  0  0  0  0  0  0
  -18.2925   12.0130  -19.2538 C   0  0  0  0  0  0  0  0  0  0  0  0
  -17.5703   12.1402  -20.4309 C   0  0  0  0  0  0  0  0  0  0  0  0
  -17.6938   13.3422  -21.1628 N   0  0  0  0  0  0  0  0  0  0  0  0
  -16.7497   11.1552  -20.8237 N   0  0  0  0  0  0  0  0  0  0  0  0
  -16.6145   10.0438  -20.0901 C   0  0  0  0  0  0  0  0  0  0  0  0
  -17.3155    9.8689  -18.9041 C   0  0  0  0  0  0  0  0  0  0  0  0
  -18.1335   10.8549  -18.5143 N   0  0  0  0  0  0  0  0  0  0  0  0
  -18.2144   13.5107  -22.0334 H   0  0  0  0  0  0  0  0  0  0  0  0
  -17.1738   14.1653  -20.7653 H   0  0  0  0  0  0  0  0  0  0  0  0
  -20.8912    9.7716  -14.5733 N   0  0  0  0  0  0  0  0  0  0  0  0
  -20.5238    8.4535  -14.4153 C   0  0  0  0  0  0  0  0  0  0  0  0
  -19.4542    7.9007  -15.3078 C   0  0  0  0  0  0  0  0  0  0  0  0
  -19.6170    8.6332  -16.6763 C   0  0  0  0  0  0  0  0  0  0  0  0
  -19.2160   10.0087  -16.3881 C   0  0  0  0  0  0  0  0  0  0  0  0
  -20.2233   10.6435  -15.4141 C   0  0  0  0  0  0  0  0  0  0  0  0
  -21.8923   10.3880  -13.8019 C   0  0  0  0  0  0  0  0  0  0  0  0
  -20.5834   11.2509  -11.8997 N   0  0  0  0  0  0  0  0  0  0  0  0
  -21.5055   11.5300  -12.9701 C   0  0  0  0  0  0  0  0  0  0  0  0
  -21.9749   12.6487  -13.2202 O   0  0  0  0  0  0  0  0  0  0  0  0
  -19.5494   11.1222  -12.1282 H   0  0  0  0  0  0  0  0  0  0  0  0
  -20.9321   11.1767  -10.9408 H   0  0  0  0  0  0  0  0  0  0  0  0
  -19.7654   14.1101  -19.0356 C   0  0  0  0  0  0  0  0  0  0  0  0
  -20.9177   14.2144  -19.7256 C   0  0  0  0  0  0  0  0  0  0  0  0
  -21.3218   15.4355  -20.2868 C   0  0  0  0  0  0  0  0  0  0  0  0
  -20.5773   16.5765  -20.1653 C   0  0  0  0  0  0  0  0  0  0  0  0
  -19.3743   16.4945  -19.4411 C   0  0  0  0  0  0  0  0  0  0  0  0
  -19.0061   15.2868  -18.9054 C   0  0  0  0  0  0  0  0  0  0  0  0
  -20.9212   17.8041  -20.8627 C   0  0  0  0  0  0  0  0  0  0  0  0
  -20.0028   18.4857  -21.3738 O   0  0  0  0  0  0  0  0  0  0  0  0
  -22.2571   18.2102  -20.9423 N   0  0  0  0  0  0  0  0  0  0  0  0
  -23.0101   17.6150  -20.5270 H   0  0  0  0  0  0  0  0  0  0  0  0
  -22.6601   19.4732  -21.4401 C   0  0  0  0  0  0  0  0  0  0  0  0
  -23.1954   19.6480  -22.6891 C   0  0  0  0  0  0  0  0  0  0  0  0
  -23.6650   20.8651  -23.1395 C   0  0  0  0  0  0  0  0  0  0  0  0
  -23.6005   21.9623  -22.3231 C   0  0  0  0  0  0  0  0  0  0  0  0
  -23.0501   21.7848  -21.0455 C   0  0  0  0  0  0  0  0  0  0  0  0
  -22.6164   20.5932  -20.6651 N   0  0  0  0  0  0  0  0  0  0  0  0
  -24.2448   20.9826  -24.5122 C   0  0  0  0  0  0  0  0  0  0  0  0
  -24.6166   19.7038  -24.8652 F   0  0  0  0  0  0  0  0  0  0  0  0
  -23.2076   21.4272  -25.3200 F   0  0  0  0  0  0  0  0  0  0  0  0
  -25.3116   21.8483  -24.5109 F   0  0  0  0  0  0  0  0  0  0  0  0
 20 21  1  0  0  0
 21 22  2  0  0  0
 21 19  1  0  0  0
 19 13  1  0  0  0
 13 14  1  0  0  0
 14 15  1  0  0  0
 15 16  1  0  0  0
 16 17  1  0  0  0
 17 18  1  0  0  0
 17  1  1  0  0  0
  1  2  2  0  0  0
  2  3  1  0  0  0
  3 25  1  0  0  0
 25 26  2  0  0  0
 26 27  1  0  0  0
 27 28  2  0  0  0
 28 29  1  0  0  0
 29 30  2  0  0  0
 28 31  1  0  0  0
 31 32  2  0  0  0
 31 33  1  0  0  0
 33 35  1  0  0  0
 35 36  2  0  0  0
 36 37  1  0  0  0
 37 38  2  0  0  0
 38 39  1  0  0  0
 39 40  2  0  0  0
 37 41  1  0  0  0
 41 42  1  0  0  0
 41 43  1  0  0  0
 41 44  1  0  0  0
  3  4  2  0  0  0
  4  5  1  0  0  0
  5  6  1  0  0  0
  5  7  2  0  0  0
  7  8  1  0  0  0
  8  9  2  0  0  0
  9 10  1  0  0  0
 18 13  1  0  0  0
 10  1  1  0  0  0
 30 25  1  0  0  0
 40 35  1  0  0  0
 10  4  1  0  0  0
 20 23  1  0  0  0
 20 24  1  0  0  0
 33 34  1  0  0  0
  6 11  1  0  0  0
  6 12  1  0  0  0
M  END
> <minimizedAffinity>
-7.78772

> <CNNscore>
0.2321463227

> <CNNaffinity>
6.8760757446

> <CNN_VS>
1.5962556601

> <CNNaffinity_variance>
0.2297822535

$$$$
[H]c1nc(N([H])C(=O)c2c([H])c([H])c(-c3nc([C@@]4([H])C([H])([H])N(C([H])([H])C(=O)N([H])[H])C([H])([H])C([H])([H])C4([H])[H])n4c([H])c([H])nc(N([H])[H])c34)c([H])c2[H])c([H])c(C(F)(F)F)c1[H]


 44 48  0  0  0  0  0  0  0  0999 V2000
  -20.4559   11.9914  -15.4520 C   0  0  0  0  0  0  0  0  0  0  0  0
  -20.5996   13.1603  -16.1707 N   0  0  0  0  0  0  0  0  0  0  0  0
  -19.9645   13.0257  -17.3764 C   0  0  0  0  0  0  0  0  0  0  0  0
  -19.4356   11.7761  -17.3646 C   0  0  0  0  0  0  0  0  0  0  0  0
  -18.6839   11.0804  -18.2997 C   0  0  0  0  0  0  0  0  0  0  0  0
  -18.3266   11.7432  -19.4950 N   0  0  0  0  0  0  0  0  0  0  0  0
  -18.2808    9.8285  -18.0384 N   0  0  0  0  0  0  0  0  0  0  0  0
  -18.5934    9.2369  -16.8792 C   0  0  0  0  0  0  0  0  0  0  0  0
  -19.3435    9.8912  -15.9110 C   0  0  0  0  0  0  0  0  0  0  0  0
  -19.7438   11.1417  -16.1747 N   0  0  0  0  0  0  0  0  0  0  0  0
  -18.7203   11.6205  -20.4370 H   0  0  0  0  0  0  0  0  0  0  0  0
  -17.5481   12.4442  -19.4041 H   0  0  0  0  0  0  0  0  0  0  0  0
  -23.0780   10.5806  -13.2748 N   0  0  0  0  0  0  0  0  0  0  0  0
  -22.6389   10.8250  -11.9923 C   0  0  0  0  0  0  0  0  0  0  0  0
  -21.3698   11.6011  -11.8103 C   0  0  0  0  0  0  0  0  0  0  0  0
  -20.4576   11.2206  -13.0182 C   0  0  0  0  0  0  0  0  0  0  0  0
  -21.1267   11.8260  -14.1677 C   0  0  0  0  0  0  0  0  0  0  0  0
  -22.4838   11.1375  -14.3928 C   0  0  0  0  0  0  0  0  0  0  0  0
  -24.2455    9.8510  -13.5613 C   0  0  0  0  0  0  0  0  0  0  0  0
  -24.8240    9.1197  -15.8431 N   0  0  0  0  0  0  0  0  0  0  0  0
  -24.1668    8.8186  -14.5975 C   0  0  0  0  0  0  0  0  0  0  0  0
  -23.5558    7.7674  -14.3609 O   0  0  0  0  0  0  0  0  0  0  0  0
  -24.3507    9.7844  -16.5301 H   0  0  0  0  0  0  0  0  0  0  0  0
  -25.7326    8.6966  -16.0483 H   0  0  0  0  0  0  0  0  0  0  0  0
  -20.0216   14.0545  -18.4039 C   0  0  0  0  0  0  0  0  0  0  0  0
  -19.2706   15.1726  -18.3797 C   0  0  0  0  0  0  0  0  0  0  0  0
  -19.5257   16.2396  -19.2548 C   0  0  0  0  0  0  0  0  0  0  0  0
  -20.5395   16.2046  -20.1724 C   0  0  0  0  0  0  0  0  0  0  0  0
  -21.3317   15.0435  -20.2228 C   0  0  0  0  0  0  0  0  0  0  0  0
  -21.0581   14.0181  -19.3539 C   0  0  0  0  0  0  0  0  0  0  0  0
  -20.8940   17.3596  -20.9799 C   0  0  0  0  0  0  0  0  0  0  0  0
  -21.5340   18.2952  -20.4469 O   0  0  0  0  0  0  0  0  0  0  0  0
  -20.5307   17.4049  -22.3297 N   0  0  0  0  0  0  0  0  0  0  0  0
  -19.9780   16.6223  -22.7489 H   0  0  0  0  0  0  0  0  0  0  0  0
  -20.9886   18.3996  -23.2276 C   0  0  0  0  0  0  0  0  0  0  0  0
  -22.0084   18.1903  -24.1182 C   0  0  0  0  0  0  0  0  0  0  0  0
  -22.5085   19.1860  -24.9325 C   0  0  0  0  0  0  0  0  0  0  0  0
  -21.9764   20.4459  -24.8696 C   0  0  0  0  0  0  0  0  0  0  0  0
  -20.9306   20.6604  -23.9603 C   0  0  0  0  0  0  0  0  0  0  0  0
  -20.4914   19.6681  -23.2019 N   0  0  0  0  0  0  0  0  0  0  0  0
  -23.6291   18.8894  -25.8762 C   0  0  0  0  0  0  0  0  0  0  0  0
  -24.6956   19.6373  -25.4275 F   0  0  0  0  0  0  0  0  0  0  0  0
  -23.8913   17.5342  -25.7320 F   0  0  0  0  0  0  0  0  0  0  0  0
  -23.2739   19.2171  -27.1623 F   0  0  0  0  0  0  0  0  0  0  0  0
 20 21  1  0  0  0
 21 22  2  0  0  0
 21 19  1  0  0  0
 19 13  1  0  0  0
 13 14  1  0  0  0
 14 15  1  0  0  0
 15 16  1  0  0  0
 16 17  1  0  0  0
 17 18  1  0  0  0
 17  1  1  0  0  0
  1  2  2  0  0  0
  2  3  1  0  0  0
  3 25  1  0  0  0
 25 26  2  0  0  0
 26 27  1  0  0  0
 27 28  2  0  0  0
 28 29  1  0  0  0
 29 30  2  0  0  0
 28 31  1  0  0  0
 31 32  2  0  0  0
 31 33  1  0  0  0
 33 35  1  0  0  0
 35 36  2  0  0  0
 36 37  1  0  0  0
 37 38  2  0  0  0
 38 39  1  0  0  0
 39 40  2  0  0  0
 37 41  1  0  0  0
 41 42  1  0  0  0
 41 43  1  0  0  0
 41 44  1  0  0  0
  3  4  2  0  0  0
  4  5  1  0  0  0
  5  6  1  0  0  0
  5  7  2  0  0  0
  7  8  1  0  0  0
  8  9  2  0  0  0
  9 10  1  0  0  0
 18 13  1  0  0  0
 10  1  1  0  0  0
 30 25  1  0  0  0
 40 35  1  0  0  0
 10  4  1  0  0  0
 20 23  1  0  0  0
 20 24  1  0  0  0
 33 34  1  0  0  0
  6 11  1  0  0  0
  6 12  1  0  0  0
M  END
> <minimizedAffinity>
-8.15703

> <CNNscore>
0.2044905424

> <CNNaffinity>
6.5152816772

> <CNN_VS>
1.3323135376

> <CNNaffinity_variance>
0.0295806713

$$$$
[H]c1nc(N([H])[H])c(C(=O)N([H])[H])c(N([H])c2c([H])c([H])c([H])c(C(=O)N3C([H])([H])C([H])([H])C([H])([H])[C@]([H])(N([H])[H])C3([H])[H])c2[H])n1


 33 35  0  0  0  0  0  0  0  0999 V2000
  -17.3133   13.6145  -22.1849 C   0  0  0  0  0  0  0  0  0  0  0  0
  -16.9424   12.3498  -21.8730 C   0  0  0  0  0  0  0  0  0  0  0  0
  -17.6324   11.7142  -20.8538 C   0  0  0  0  0  0  0  0  0  0  0  0
  -18.6523   12.3283  -20.1780 C   0  0  0  0  0  0  0  0  0  0  0  0
  -19.0674   13.6428  -20.4722 C   0  0  0  0  0  0  0  0  0  0  0  0
  -18.3698   14.2379  -21.4764 C   0  0  0  0  0  0  0  0  0  0  0  0
  -20.1300   14.1886  -19.6692 C   0  0  0  0  0  0  0  0  0  0  0  0
  -21.3484   13.9559  -20.1215 O   0  0  0  0  0  0  0  0  0  0  0  0
  -20.1412   14.9295  -18.4870 N   0  0  0  0  0  0  0  0  0  0  0  0
  -21.4880   15.2585  -17.9669 C   0  0  0  0  0  0  0  0  0  0  0  0
  -21.5464   16.6011  -17.3282 C   0  0  0  0  0  0  0  0  0  0  0  0
  -20.5207   16.6048  -16.2064 C   0  0  0  0  0  0  0  0  0  0  0  0
  -19.1467   16.4462  -16.7740 C   0  0  0  0  0  0  0  0  0  0  0  0
  -18.6303   17.7095  -17.2994 N   0  0  0  0  0  0  0  0  0  0  0  0
  -18.9822   15.3781  -17.8049 C   0  0  0  0  0  0  0  0  0  0  0  0
  -19.2263   18.5174  -17.0291 H   0  0  0  0  0  0  0  0  0  0  0  0
  -18.4720   17.6197  -18.3132 H   0  0  0  0  0  0  0  0  0  0  0  0
  -16.6919   14.3583  -23.2467 N   0  0  0  0  0  0  0  0  0  0  0  0
  -16.1710   15.1860  -22.9191 H   0  0  0  0  0  0  0  0  0  0  0  0
  -16.4910   14.8975  -25.6258 C   0  0  0  0  0  0  0  0  0  0  0  0
  -16.6792   14.4439  -26.9541 C   0  0  0  0  0  0  0  0  0  0  0  0
  -16.3886   15.3251  -28.0289 N   0  0  0  0  0  0  0  0  0  0  0  0
  -17.1247   13.2023  -27.1867 N   0  0  0  0  0  0  0  0  0  0  0  0
  -17.4062   12.3520  -26.1997 C   0  0  0  0  0  0  0  0  0  0  0  0
  -17.2288   12.7813  -24.9632 N   0  0  0  0  0  0  0  0  0  0  0  0
  -16.7890   14.0022  -24.6246 C   0  0  0  0  0  0  0  0  0  0  0  0
  -17.1235   15.9490  -28.3864 H   0  0  0  0  0  0  0  0  0  0  0  0
  -15.4470   15.3335  -28.4419 H   0  0  0  0  0  0  0  0  0  0  0  0
  -14.6916   16.7091  -25.4590 N   0  0  0  0  0  0  0  0  0  0  0  0
  -15.9981   16.2447  -25.4323 C   0  0  0  0  0  0  0  0  0  0  0  0
  -16.8834   17.1450  -25.2046 O   0  0  0  0  0  0  0  0  0  0  0  0
  -14.1065   16.8211  -24.6000 H   0  0  0  0  0  0  0  0  0  0  0  0
  -14.1926   16.9866  -26.3572 H   0  0  0  0  0  0  0  0  0  0  0  0
 29 30  1  0  0  0
 30 31  2  0  0  0
 30 20  1  0  0  0
 20 21  2  0  0  0
 21 22  1  0  0  0
 21 23  1  0  0  0
 23 24  2  0  0  0
 24 25  1  0  0  0
 25 26  2  0  0  0
 26 18  1  0  0  0
 18  1  1  0  0  0
  1  2  2  0  0  0
  2  3  1  0  0  0
  3  4  2  0  0  0
  4  5  1  0  0  0
  5  6  2  0  0  0
  5  7  1  0  0  0
  7  8  2  0  0  0
  7  9  1  0  0  0
  9 10  1  0  0  0
 10 11  1  0  0  0
 11 12  1  0  0  0
 12 13  1  0  0  0
 13 14  1  0  0  0
 13 15  1  0  0  0
 26 20  1  0  0  0
  6  1  1  0  0  0
 15  9  1  0  0  0
 29 32  1  0  0  0
 29 33  1  0  0  0
 22 27  1  0  0  0
 22 28  1  0  0  0
 18 19  1  0  0  0
 14 16  1  0  0  0
 14 17  1  0  0  0
M  END
> <minimizedAffinity>
-8.86741

> <CNNscore>
0.5249925852

> <CNNaffinity>
6.3968172073

> <CNN_VS>
3.3582816124

> <CNNaffinity_variance>
0.1178434268

$$$$
[H]c1nc(N([H])[H])c(C(=O)N([H])[H])c(N([H])c2c([H])c([H])c([H])c(C(=O)N3C([H])([H])C([H])([H])C([H])([H])[C@]([H])(N([H])[H])C3([H])[H])c2[H])n1


 33 35  0  0  0  0  0  0  0  0999 V2000
  -16.7284   13.8627  -23.0995 C   0  0  0  0  0  0  0  0  0  0  0  0
  -15.4267   13.8477  -23.4730 C   0  0  0  0  0  0  0  0  0  0  0  0
  -14.8478   15.0569  -23.8219 C   0  0  0  0  0  0  0  0  0  0  0  0
  -15.5522   16.2304  -23.7958 C   0  0  0  0  0  0  0  0  0  0  0  0
  -16.9078   16.2875  -23.4138 C   0  0  0  0  0  0  0  0  0  0  0  0
  -17.4452   15.0843  -23.0781 C   0  0  0  0  0  0  0  0  0  0  0  0
  -17.5463   17.5768  -23.4579 C   0  0  0  0  0  0  0  0  0  0  0  0
  -17.4395   18.2142  -24.6093 O   0  0  0  0  0  0  0  0  0  0  0  0
  -18.2695   18.3100  -22.5166 N   0  0  0  0  0  0  0  0  0  0  0  0
  -18.7973   19.6053  -23.0029 C   0  0  0  0  0  0  0  0  0  0  0  0
  -18.7832   20.6623  -21.9558 C   0  0  0  0  0  0  0  0  0  0  0  0
  -19.6130   20.1460  -20.7917 C   0  0  0  0  0  0  0  0  0  0  0  0
  -18.9643   18.9344  -20.2034 C   0  0  0  0  0  0  0  0  0  0  0  0
  -17.8643   19.2916  -19.3082 N   0  0  0  0  0  0  0  0  0  0  0  0
  -18.4942   17.9040  -21.1771 C   0  0  0  0  0  0  0  0  0  0  0  0
  -17.8431   20.3107  -19.1033 H   0  0  0  0  0  0  0  0  0  0  0  0
  -16.9816   18.9160  -19.6832 H   0  0  0  0  0  0  0  0  0  0  0  0
  -17.4228   12.6744  -22.6837 N   0  0  0  0  0  0  0  0  0  0  0  0
  -18.1386   12.3596  -23.3562 H   0  0  0  0  0  0  0  0  0  0  0  0
  -17.7665   12.3716  -20.2793 C   0  0  0  0  0  0  0  0  0  0  0  0
  -17.3859   11.6556  -19.1182 C   0  0  0  0  0  0  0  0  0  0  0  0
  -17.9751   12.0016  -17.8736 N   0  0  0  0  0  0  0  0  0  0  0  0
  -16.4839   10.6687  -19.1990 N   0  0  0  0  0  0  0  0  0  0  0  0
  -15.9133   10.3205  -20.3521 C   0  0  0  0  0  0  0  0  0  0  0  0
  -16.2722   10.9925  -21.4312 N   0  0  0  0  0  0  0  0  0  0  0  0
  -17.1632   11.9945  -21.4569 C   0  0  0  0  0  0  0  0  0  0  0  0
  -17.5364   12.7236  -17.2876 H   0  0  0  0  0  0  0  0  0  0  0  0
  -18.8351   11.5287  -17.5667 H   0  0  0  0  0  0  0  0  0  0  0  0
  -18.5720   14.7445  -19.7615 N   0  0  0  0  0  0  0  0  0  0  0  0
  -18.7526   13.4215  -20.1362 C   0  0  0  0  0  0  0  0  0  0  0  0
  -19.9677   13.0964  -20.3896 O   0  0  0  0  0  0  0  0  0  0  0  0
  -18.6848   15.0811  -18.7783 H   0  0  0  0  0  0  0  0  0  0  0  0
  -18.3074   15.5117  -20.4500 H   0  0  0  0  0  0  0  0  0  0  0  0
 29 30  1  0  0  0
 30 31  2  0  0  0
 30 20  1  0  0  0
 20 21  2  0  0  0
 21 22  1  0  0  0
 21 23  1  0  0  0
 23 24  2  0  0  0
 24 25  1  0  0  0
 25 26  2  0  0  0
 26 18  1  0  0  0
 18  1  1  0  0  0
  1  2  2  0  0  0
  2  3  1  0  0  0
  3  4  2  0  0  0
  4  5  1  0  0  0
  5  6  2  0  0  0
  5  7  1  0  0  0
  7  8  2  0  0  0
  7  9  1  0  0  0
  9 10  1  0  0  0
 10 11  1  0  0  0
 11 12  1  0  0  0
 12 13  1  0  0  0
 13 14  1  0  0  0
 13 15  1  0  0  0
 26 20  1  0  0  0
  6  1  1  0  0  0
 15  9  1  0  0  0
 29 32  1  0  0  0
 29 33  1  0  0  0
 22 27  1  0  0  0
 22 28  1  0  0  0
 18 19  1  0  0  0
 14 16  1  0  0  0
 14 17  1  0  0  0
M  END
> <minimizedAffinity>
-8.00269

> <CNNscore>
0.4309768677

> <CNNaffinity>
6.4430022240

> <CNN_VS>
2.7767848969

> <CNNaffinity_variance>
0.2724842131

$$$$
[H]c1nc(N([H])[H])c(C(=O)N([H])[H])c(N([H])c2c([H])c([H])c([H])c(C(=O)N3C([H])([H])C([H])([H])C([H])([H])[C@]([H])(N([H])[H])C3([H])[H])c2[H])n1


 33 35  0  0  0  0  0  0  0  0999 V2000
  -16.6777   13.9834  -22.4162 C   0  0  0  0  0  0  0  0  0  0  0  0
  -17.3217   15.1429  -22.1423 C   0  0  0  0  0  0  0  0  0  0  0  0
  -18.1376   15.1720  -21.0232 C   0  0  0  0  0  0  0  0  0  0  0  0
  -18.2973   14.0782  -20.2156 C   0  0  0  0  0  0  0  0  0  0  0  0
  -17.6453   12.8541  -20.4671 C   0  0  0  0  0  0  0  0  0  0  0  0
  -16.8531   12.8592  -21.5723 C   0  0  0  0  0  0  0  0  0  0  0  0
  -17.9198   11.7687  -19.5624 C   0  0  0  0  0  0  0  0  0  0  0  0
  -17.5540   10.5756  -19.9935 O   0  0  0  0  0  0  0  0  0  0  0  0
  -18.5057   11.7133  -18.2974 N   0  0  0  0  0  0  0  0  0  0  0  0
  -18.5564   10.3640  -17.6893 C   0  0  0  0  0  0  0  0  0  0  0  0
  -19.7889   10.1403  -16.8862 C   0  0  0  0  0  0  0  0  0  0  0  0
  -19.8213   11.2159  -15.8127 C   0  0  0  0  0  0  0  0  0  0  0  0
  -19.9475   12.5635  -16.4474 C   0  0  0  0  0  0  0  0  0  0  0  0
  -21.3289   12.8529  -16.8303 N   0  0  0  0  0  0  0  0  0  0  0  0
  -19.0470   12.8282  -17.6092 C   0  0  0  0  0  0  0  0  0  0  0  0
  -21.9962   12.1582  -16.4388 H   0  0  0  0  0  0  0  0  0  0  0  0
  -21.3849   12.9650  -17.8527 H   0  0  0  0  0  0  0  0  0  0  0  0
  -15.7792   13.8475  -23.5303 N   0  0  0  0  0  0  0  0  0  0  0  0
  -14.7841   13.8538  -23.2594 H   0  0  0  0  0  0  0  0  0  0  0  0
  -15.9088   14.6813  -25.8279 C   0  0  0  0  0  0  0  0  0  0  0  0
  -16.4401   14.4768  -27.1247 C   0  0  0  0  0  0  0  0  0  0  0  0
  -16.1625   15.4305  -28.1393 N   0  0  0  0  0  0  0  0  0  0  0  0
  -17.1919   13.3990  -27.3839 N   0  0  0  0  0  0  0  0  0  0  0  0
  -17.4701   12.4863  -26.4533 C   0  0  0  0  0  0  0  0  0  0  0  0
  -16.9719   12.6831  -25.2459 N   0  0  0  0  0  0  0  0  0  0  0  0
  -16.2104   13.7262  -24.8846 C   0  0  0  0  0  0  0  0  0  0  0  0
  -16.7895   16.2357  -28.2641 H   0  0  0  0  0  0  0  0  0  0  0  0
  -15.3379   15.3098  -28.7416 H   0  0  0  0  0  0  0  0  0  0  0  0
  -15.4138   17.0254  -24.9294 N   0  0  0  0  0  0  0  0  0  0  0  0
  -15.0949   15.8575  -25.6059 C   0  0  0  0  0  0  0  0  0  0  0  0
  -13.9101   15.8282  -26.0973 O   0  0  0  0  0  0  0  0  0  0  0  0
  -15.7774   17.8817  -25.4063 H   0  0  0  0  0  0  0  0  0  0  0  0
  -15.3087   17.1330  -23.8758 H   0  0  0  0  0  0  0  0  0  0  0  0
 29 30  1  0  0  0
 30 31  2  0  0  0
 30 20  1  0  0  0
 20 21  2  0  0  0
 21 22  1  0  0  0
 21 23  1  0  0  0
 23 24  2  0  0  0
 24 25  1  0  0  0
 25 26  2  0  0  0
 26 18  1  0  0  0
 18  1  1  0  0  0
  1  2  2  0  0  0
  2  3  1  0  0  0
  3  4  2  0  0  0
  4  5  1  0  0  0
  5  6  2  0  0  0
  5  7  1  0  0  0
  7  8  2  0  0  0
  7  9  1  0  0  0
  9 10  1  0  0  0
 10 11  1  0  0  0
 11 12  1  0  0  0
 12 13  1  0  0  0
 13 14  1  0  0  0
 13 15  1  0  0  0
 26 20  1  0  0  0
  6  1  1  0  0  0
 15  9  1  0  0  0
 29 32  1  0  0  0
 29 33  1  0  0  0
 22 27  1  0  0  0
 22 28  1  0  0  0
 18 19  1  0  0  0
 14 16  1  0  0  0
 14 17  1  0  0  0
M  END
> <minimizedAffinity>
-8.82340

> <CNNscore>
0.4173820615

> <CNNaffinity>
6.4672164917

> <CNN_VS>
2.6993000507

> <CNNaffinity_variance>
0.1097821146

$$$$
[H]c1nc(N([H])[H])c(C(=O)N([H])[H])c(N([H])c2c([H])c([H])c([H])c(C(=O)N3C([H])([H])C([H])([H])C([H])([H])[C@]([H])(N([H])[H])C3([H])[H])c2[H])n1


 33 35  0  0  0  0  0  0  0  0999 V2000
  -16.8167   12.5640  -22.3003 C   0  0  0  0  0  0  0  0  0  0  0  0
  -16.8835   11.6080  -21.3433 C   0  0  0  0  0  0  0  0  0  0  0  0
  -17.7546   11.8203  -20.2873 C   0  0  0  0  0  0  0  0  0  0  0  0
  -18.5247   12.9487  -20.2004 C   0  0  0  0  0  0  0  0  0  0  0  0
  -18.4835   13.9662  -21.1750 C   0  0  0  0  0  0  0  0  0  0  0  0
  -17.6187   13.7271  -22.1969 C   0  0  0  0  0  0  0  0  0  0  0  0
  -19.3178   15.1182  -20.9539 C   0  0  0  0  0  0  0  0  0  0  0  0
  -20.4920   14.8613  -20.4077 O   0  0  0  0  0  0  0  0  0  0  0  0
  -19.1408   16.4795  -21.2031 N   0  0  0  0  0  0  0  0  0  0  0  0
  -20.2620   17.3458  -20.7726 C   0  0  0  0  0  0  0  0  0  0  0  0
  -20.4895   18.4928  -21.6928 C   0  0  0  0  0  0  0  0  0  0  0  0
  -19.1912   19.2814  -21.7495 C   0  0  0  0  0  0  0  0  0  0  0  0
  -18.1120   18.4404  -22.3521 C   0  0  0  0  0  0  0  0  0  0  0  0
  -18.2010   18.4119  -23.8115 N   0  0  0  0  0  0  0  0  0  0  0  0
  -18.0044   17.0429  -21.8362 C   0  0  0  0  0  0  0  0  0  0  0  0
  -18.8776   19.1126  -24.1751 H   0  0  0  0  0  0  0  0  0  0  0  0
  -18.3799   17.4473  -24.1251 H   0  0  0  0  0  0  0  0  0  0  0  0
  -15.9746   12.4351  -23.4584 N   0  0  0  0  0  0  0  0  0  0  0  0
  -15.6245   11.4766  -23.6079 H   0  0  0  0  0  0  0  0  0  0  0  0
  -16.2683   13.7085  -25.5280 C   0  0  0  0  0  0  0  0  0  0  0  0
  -15.8098   14.7913  -26.3173 C   0  0  0  0  0  0  0  0  0  0  0  0
  -16.4209   15.0310  -27.5763 N   0  0  0  0  0  0  0  0  0  0  0  0
  -14.8151   15.5733  -25.8780 N   0  0  0  0  0  0  0  0  0  0  0  0
  -14.2215   15.3741  -24.7014 C   0  0  0  0  0  0  0  0  0  0  0  0
  -14.6535   14.3623  -23.9702 N   0  0  0  0  0  0  0  0  0  0  0  0
  -15.6396   13.5227  -24.3184 C   0  0  0  0  0  0  0  0  0  0  0  0
  -16.0514   14.5673  -28.4163 H   0  0  0  0  0  0  0  0  0  0  0  0
  -17.2274   15.6657  -27.6398 H   0  0  0  0  0  0  0  0  0  0  0  0
  -17.3027   11.8407  -26.9383 N   0  0  0  0  0  0  0  0  0  0  0  0
  -17.3525   12.9020  -26.0468 C   0  0  0  0  0  0  0  0  0  0  0  0
  -18.5294   13.1990  -25.6310 O   0  0  0  0  0  0  0  0  0  0  0  0
  -17.4503   11.9505  -27.9673 H   0  0  0  0  0  0  0  0  0  0  0  0
  -17.1125   10.8379  -26.6366 H   0  0  0  0  0  0  0  0  0  0  0  0
 29 30  1  0  0  0
 30 31  2  0  0  0
 30 20  1  0  0  0
 20 21  2  0  0  0
 21 22  1  0  0  0
 21 23  1  0  0  0
 23 24  2  0  0  0
 24 25  1  0  0  0
 25 26  2  0  0  0
 26 18  1  0  0  0
 18  1  1  0  0  0
  1  2  2  0  0  0
  2  3  1  0  0  0
  3  4  2  0  0  0
  4  5  1  0  0  0
  5  6  2  0  0  0
  5  7  1  0  0  0
  7  8  2  0  0  0
  7  9  1  0  0  0
  9 10  1  0  0  0
 10 11  1  0  0  0
 11 12  1  0  0  0
 12 13  1  0  0  0
 13 14  1  0  0  0
 13 15  1  0  0  0
 26 20  1  0  0  0
  6  1  1  0  0  0
 15  9  1  0  0  0
 29 32  1  0  0  0
 29 33  1  0  0  0
 22 27  1  0  0  0
 22 28  1  0  0  0
 18 19  1  0  0  0
 14 16  1  0  0  0
 14 17  1  0  0  0
M  END
> <minimizedAffinity>
-8.97571

> <CNNscore>
0.3483531475

> <CNNaffinity>
6.2530336380

> <CNN_VS>
2.1782639027

> <CNNaffinity_variance>
0.2173318118

$$$$
[H]c1nc(N([H])[H])c(C(=O)N([H])[H])c(N([H])c2c([H])c([H])c([H])c(C(=O)N3C([H])([H])C([H])([H])C([H])([H])[C@]([H])(N([H])[H])C3([H])[H])c2[H])n1


 33 35  0  0  0  0  0  0  0  0999 V2000
  -18.3538   14.4661  -21.5740 C   0  0  0  0  0  0  0  0  0  0  0  0
  -18.4143   15.5258  -20.7328 C   0  0  0  0  0  0  0  0  0  0  0  0
  -18.3625   15.2664  -19.3730 C   0  0  0  0  0  0  0  0  0  0  0  0
  -18.2551   13.9926  -18.8831 C   0  0  0  0  0  0  0  0  0  0  0  0
  -18.1901   12.8641  -19.7252 C   0  0  0  0  0  0  0  0  0  0  0  0
  -18.2437   13.1534  -21.0529 C   0  0  0  0  0  0  0  0  0  0  0  0
  -18.1104   11.5759  -19.0880 C   0  0  0  0  0  0  0  0  0  0  0  0
  -17.4241   10.6649  -19.7530 O   0  0  0  0  0  0  0  0  0  0  0  0
  -18.6195   11.0780  -17.8882 N   0  0  0  0  0  0  0  0  0  0  0  0
  -18.2570    9.6737  -17.5890 C   0  0  0  0  0  0  0  0  0  0  0  0
  -19.3478    8.9317  -16.9008 C   0  0  0  0  0  0  0  0  0  0  0  0
  -19.6633    9.6902  -15.6219 C   0  0  0  0  0  0  0  0  0  0  0  0
  -20.1952   11.0472  -15.9542 C   0  0  0  0  0  0  0  0  0  0  0  0
  -21.6109   10.9983  -16.3176 N   0  0  0  0  0  0  0  0  0  0  0  0
  -19.4436   11.8091  -16.9961 C   0  0  0  0  0  0  0  0  0  0  0  0
  -22.0350   10.0717  -16.1114 H   0  0  0  0  0  0  0  0  0  0  0  0
  -21.7253   11.3095  -17.2928 H   0  0  0  0  0  0  0  0  0  0  0  0
  -18.3639   14.6176  -23.0036 N   0  0  0  0  0  0  0  0  0  0  0  0
  -19.1631   14.1530  -23.4609 H   0  0  0  0  0  0  0  0  0  0  0  0
  -16.2778   14.6909  -24.2818 C   0  0  0  0  0  0  0  0  0  0  0  0
  -15.3259   15.5132  -24.9325 C   0  0  0  0  0  0  0  0  0  0  0  0
  -14.1826   14.9091  -25.5189 N   0  0  0  0  0  0  0  0  0  0  0  0
  -15.5065   16.8391  -24.9904 N   0  0  0  0  0  0  0  0  0  0  0  0
  -16.5687   17.4357  -24.4498 C   0  0  0  0  0  0  0  0  0  0  0  0
  -17.4526   16.6632  -23.8441 N   0  0  0  0  0  0  0  0  0  0  0  0
  -17.3648   15.3298  -23.7312 C   0  0  0  0  0  0  0  0  0  0  0  0
  -13.3338   14.7748  -24.9545 H   0  0  0  0  0  0  0  0  0  0  0  0
  -14.2108   14.6105  -26.5025 H   0  0  0  0  0  0  0  0  0  0  0  0
  -15.2607   12.5234  -23.3792 N   0  0  0  0  0  0  0  0  0  0  0  0
  -16.0378   13.2637  -24.2576 C   0  0  0  0  0  0  0  0  0  0  0  0
  -16.6203   12.5752  -25.1702 O   0  0  0  0  0  0  0  0  0  0  0  0
  -14.2673   12.2630  -23.5741 H   0  0  0  0  0  0  0  0  0  0  0  0
  -15.6225   12.1659  -22.4442 H   0  0  0  0  0  0  0  0  0  0  0  0
 29 30  1  0  0  0
 30 31  2  0  0  0
 30 20  1  0  0  0
 20 21  2  0  0  0
 21 22  1  0  0  0
 21 23  1  0  0  0
 23 24  2  0  0  0
 24 25  1  0  0  0
 25 26  2  0  0  0
 26 18  1  0  0  0
 18  1  1  0  0  0
  1  2  2  0  0  0
  2  3  1  0  0  0
  3  4  2  0  0  0
  4  5  1  0  0  0
  5  6  2  0  0  0
  5  7  1  0  0  0
  7  8  2  0  0  0
  7  9  1  0  0  0
  9 10  1  0  0  0
 10 11  1  0  0  0
 11 12  1  0  0  0
 12 13  1  0  0  0
 13 14  1  0  0  0
 13 15  1  0  0  0
 26 20  1  0  0  0
  6  1  1  0  0  0
 15  9  1  0  0  0
 29 32  1  0  0  0
 29 33  1  0  0  0
 22 27  1  0  0  0
 22 28  1  0  0  0
 18 19  1  0  0  0
 14 16  1  0  0  0
 14 17  1  0  0  0
M  END
> <minimizedAffinity>
-8.35168

> <CNNscore>
0.3165695369

> <CNNaffinity>
6.1727890968

> <CNN_VS>
1.9541169405

> <CNNaffinity_variance>
0.2181811333

$$$$
[H]c1nc(N([H])[H])c(C(=O)N([H])[H])c(N([H])c2c([H])c([H])c([H])c(C(=O)N3C([H])([H])C([H])([H])C([H])([H])[C@]([H])(N([H])[H])C3([H])[H])c2[H])n1


 33 35  0  0  0  0  0  0  0  0999 V2000
  -18.7391   14.7479  -19.5261 C   0  0  0  0  0  0  0  0  0  0  0  0
  -18.6485   15.6462  -18.5165 C   0  0  0  0  0  0  0  0  0  0  0  0
  -18.0407   16.8598  -18.7933 C   0  0  0  0  0  0  0  0  0  0  0  0
  -17.5452   17.1543  -20.0350 C   0  0  0  0  0  0  0  0  0  0  0  0
  -17.6195   16.2466  -21.1109 C   0  0  0  0  0  0  0  0  0  0  0  0
  -18.2210   15.0658  -20.8057 C   0  0  0  0  0  0  0  0  0  0  0  0
  -17.0336   16.6614  -22.3585 C   0  0  0  0  0  0  0  0  0  0  0  0
  -17.4397   17.8363  -22.8034 O   0  0  0  0  0  0  0  0  0  0  0  0
  -16.1064   16.0671  -23.2151 N   0  0  0  0  0  0  0  0  0  0  0  0
  -15.7401   16.8763  -24.3999 C   0  0  0  0  0  0  0  0  0  0  0  0
  -15.5040   16.0473  -25.6127 C   0  0  0  0  0  0  0  0  0  0  0  0
  -14.3974   15.0632  -25.2701 C   0  0  0  0  0  0  0  0  0  0  0  0
  -14.8560   14.1398  -24.1876 C   0  0  0  0  0  0  0  0  0  0  0  0
  -15.6976   13.0660  -24.7143 N   0  0  0  0  0  0  0  0  0  0  0  0
  -15.5420   14.7805  -23.0259 C   0  0  0  0  0  0  0  0  0  0  0  0
  -15.6820   13.0319  -25.7534 H   0  0  0  0  0  0  0  0  0  0  0  0
  -16.6407   13.1384  -24.3065 H   0  0  0  0  0  0  0  0  0  0  0  0
  -19.3797   13.4711  -19.3641 N   0  0  0  0  0  0  0  0  0  0  0  0
  -20.4041   13.5347  -19.2629 H   0  0  0  0  0  0  0  0  0  0  0  0
  -18.7501   11.3835  -18.2520 C   0  0  0  0  0  0  0  0  0  0  0  0
  -17.9625   10.2083  -18.3164 C   0  0  0  0  0  0  0  0  0  0  0  0
  -17.9981    9.2968  -17.2283 N   0  0  0  0  0  0  0  0  0  0  0  0
  -17.1980    9.9658  -19.3892 N   0  0  0  0  0  0  0  0  0  0  0  0
  -17.1430   10.8016  -20.4259 C   0  0  0  0  0  0  0  0  0  0  0  0
  -17.8796   11.8961  -20.3595 N   0  0  0  0  0  0  0  0  0  0  0  0
  -18.6759   12.2307  -19.3336 C   0  0  0  0  0  0  0  0  0  0  0  0
  -17.3405    9.4136  -16.4467 H   0  0  0  0  0  0  0  0  0  0  0  0
  -18.6800    8.5271  -17.2292 H   0  0  0  0  0  0  0  0  0  0  0  0
  -19.5015   12.6099  -16.1357 N   0  0  0  0  0  0  0  0  0  0  0  0
  -19.5651   11.5904  -17.0739 C   0  0  0  0  0  0  0  0  0  0  0  0
  -20.4787   10.7164  -16.8558 O   0  0  0  0  0  0  0  0  0  0  0  0
  -18.9691   12.5304  -15.2397 H   0  0  0  0  0  0  0  0  0  0  0  0
  -19.9928   13.5456  -16.2614 H   0  0  0  0  0  0  0  0  0  0  0  0
 29 30  1  0  0  0
 30 31  2  0  0  0
 30 20  1  0  0  0
 20 21  2  0  0  0
 21 22  1  0  0  0
 21 23  1  0  0  0
 23 24  2  0  0  0
 24 25  1  0  0  0
 25 26  2  0  0  0
 26 18  1  0  0  0
 18  1  1  0  0  0
  1  2  2  0  0  0
  2  3  1  0  0  0
  3  4  2  0  0  0
  4  5  1  0  0  0
  5  6  2  0  0  0
  5  7  1  0  0  0
  7  8  2  0  0  0
  7  9  1  0  0  0
  9 10  1  0  0  0
 10 11  1  0  0  0
 11 12  1  0  0  0
 12 13  1  0  0  0
 13 14  1  0  0  0
 13 15  1  0  0  0
 26 20  1  0  0  0
  6  1  1  0  0  0
 15  9  1  0  0  0
 29 32  1  0  0  0
 29 33  1  0  0  0
 22 27  1  0  0  0
 22 28  1  0  0  0
 18 19  1  0  0  0
 14 16  1  0  0  0
 14 17  1  0  0  0
M  END
> <minimizedAffinity>
-8.08640

> <CNNscore>
0.3159434795

> <CNNaffinity>
6.6330785751

> <CNN_VS>
2.0956778526

> <CNNaffinity_variance>
0.5024307966

$$$$
[H]c1nc(N([H])[H])c(C(=O)N([H])[H])c(N([H])c2c([H])c([H])c([H])c(C(=O)N3C([H])([H])C([H])([H])C([H])([H])[C@]([H])(N([H])[H])C3([H])[H])c2[H])n1


 33 35  0  0  0  0  0  0  0  0999 V2000
  -17.6237   13.1196  -21.7184 C   0  0  0  0  0  0  0  0  0  0  0  0
  -16.7151   12.1383  -21.9326 C   0  0  0  0  0  0  0  0  0  0  0  0
  -16.5847   11.1637  -20.9569 C   0  0  0  0  0  0  0  0  0  0  0  0
  -17.3382   11.1788  -19.8141 C   0  0  0  0  0  0  0  0  0  0  0  0
  -18.2931   12.1824  -19.5541 C   0  0  0  0  0  0  0  0  0  0  0  0
  -18.3957   13.1231  -20.5307 C   0  0  0  0  0  0  0  0  0  0  0  0
  -18.9991   12.1053  -18.3021 C   0  0  0  0  0  0  0  0  0  0  0  0
  -19.3836   13.2663  -17.8048 O   0  0  0  0  0  0  0  0  0  0  0  0
  -19.3690   11.0358  -17.4859 N   0  0  0  0  0  0  0  0  0  0  0  0
  -20.1398   11.4077  -16.2774 C   0  0  0  0  0  0  0  0  0  0  0  0
  -19.8143   10.5553  -15.1020 C   0  0  0  0  0  0  0  0  0  0  0  0
  -20.1018    9.1174  -15.5024 C   0  0  0  0  0  0  0  0  0  0  0  0
  -19.1874    8.7064  -16.6114 C   0  0  0  0  0  0  0  0  0  0  0  0
  -17.8626    8.3407  -16.1116 N   0  0  0  0  0  0  0  0  0  0  0  0
  -19.0404    9.6795  -17.7349 C   0  0  0  0  0  0  0  0  0  0  0  0
  -17.8448    8.2608  -15.0751 H   0  0  0  0  0  0  0  0  0  0  0  0
  -17.1599    8.9863  -16.4993 H   0  0  0  0  0  0  0  0  0  0  0  0
  -17.8690   14.1629  -22.6767 N   0  0  0  0  0  0  0  0  0  0  0  0
  -18.3855   14.9661  -22.2871 H   0  0  0  0  0  0  0  0  0  0  0  0
  -16.8670   15.1741  -24.6678 C   0  0  0  0  0  0  0  0  0  0  0  0
  -16.5487   15.0073  -26.0376 C   0  0  0  0  0  0  0  0  0  0  0  0
  -15.9428   16.0833  -26.7383 N   0  0  0  0  0  0  0  0  0  0  0  0
  -16.8175   13.8505  -26.6571 N   0  0  0  0  0  0  0  0  0  0  0  0
  -17.3855   12.8225  -26.0271 C   0  0  0  0  0  0  0  0  0  0  0  0
  -17.6802   12.9847  -24.7497 N   0  0  0  0  0  0  0  0  0  0  0  0
  -17.4531   14.0995  -24.0396 C   0  0  0  0  0  0  0  0  0  0  0  0
  -16.5348   16.7842  -27.2023 H   0  0  0  0  0  0  0  0  0  0  0  0
  -14.9177   16.1545  -26.7771 H   0  0  0  0  0  0  0  0  0  0  0  0
  -17.3776   17.5170  -23.7748 N   0  0  0  0  0  0  0  0  0  0  0  0
  -16.5456   16.4411  -24.0460 C   0  0  0  0  0  0  0  0  0  0  0  0
  -15.3238   16.6042  -23.6899 O   0  0  0  0  0  0  0  0  0  0  0  0
  -17.4813   18.3359  -24.4161 H   0  0  0  0  0  0  0  0  0  0  0  0
  -17.9683   17.5857  -22.8922 H   0  0  0  0  0  0  0  0  0  0  0  0
 29 30  1  0  0  0
 30 31  2  0  0  0
 30 20  1  0  0  0
 20 21  2  0  0  0
 21 22  1  0  0  0
 21 23  1  0  0  0
 23 24  2  0  0  0
 24 25  1  0  0  0
 25 26  2  0  0  0
 26 18  1  0  0  0
 18  1  1  0  0  0
  1  2  2  0  0  0
  2  3  1  0  0  0
  3  4  2  0  0  0
  4  5  1  0  0  0
  5  6  2  0  0  0
  5  7  1  0  0  0
  7  8  2  0  0  0
  7  9  1  0  0  0
  9 10  1  0  0  0
 10 11  1  0  0  0
 11 12  1  0  0  0
 12 13  1  0  0  0
 13 14  1  0  0  0
 13 15  1  0  0  0
 26 20  1  0  0  0
  6  1  1  0  0  0
 15  9  1  0  0  0
 29 32  1  0  0  0
 29 33  1  0  0  0
 22 27  1  0  0  0
 22 28  1  0  0  0
 18 19  1  0  0  0
 14 16  1  0  0  0
 14 17  1  0  0  0
M  END
> <minimizedAffinity>
-9.11732

> <CNNscore>
0.2828888595

> <CNNaffinity>
5.9746193886

> <CNN_VS>
1.6901532412

> <CNNaffinity_variance>
0.1507829875

$$$$
[H]c1nc(N([H])[H])c(C(=O)N([H])[H])c(N([H])c2c([H])c([H])c([H])c(C(=O)N3C([H])([H])C([H])([H])C([H])([H])[C@]([H])(N([H])[H])C3([H])[H])c2[H])n1


 33 35  0  0  0  0  0  0  0  0999 V2000
  -16.2246   16.6980  -23.3800 C   0  0  0  0  0  0  0  0  0  0  0  0
  -16.0069   16.6271  -22.0451 C   0  0  0  0  0  0  0  0  0  0  0  0
  -16.8734   17.3231  -21.2183 C   0  0  0  0  0  0  0  0  0  0  0  0
  -17.9143   18.0594  -21.7168 C   0  0  0  0  0  0  0  0  0  0  0  0
  -18.1735   18.1586  -23.0988 C   0  0  0  0  0  0  0  0  0  0  0  0
  -17.3050   17.4646  -23.8818 C   0  0  0  0  0  0  0  0  0  0  0  0
  -19.2788   18.9892  -23.4991 C   0  0  0  0  0  0  0  0  0  0  0  0
  -18.9430   20.1066  -24.1172 O   0  0  0  0  0  0  0  0  0  0  0  0
  -20.6614   18.8574  -23.3664 N   0  0  0  0  0  0  0  0  0  0  0  0
  -21.4557   19.9507  -23.9718 C   0  0  0  0  0  0  0  0  0  0  0  0
  -22.6776   20.2769  -23.1879 C   0  0  0  0  0  0  0  0  0  0  0  0
  -23.4999   19.0019  -23.0953 C   0  0  0  0  0  0  0  0  0  0  0  0
  -22.7459   17.9660  -22.3251 C   0  0  0  0  0  0  0  0  0  0  0  0
  -22.8515   18.1821  -20.8826 N   0  0  0  0  0  0  0  0  0  0  0  0
  -21.3094   17.7904  -22.6946 C   0  0  0  0  0  0  0  0  0  0  0  0
  -23.5661   18.8995  -20.6467 H   0  0  0  0  0  0  0  0  0  0  0  0
  -21.9161   18.3718  -20.4952 H   0  0  0  0  0  0  0  0  0  0  0  0
  -15.4112   15.9895  -24.3304 N   0  0  0  0  0  0  0  0  0  0  0  0
  -14.4029   16.0255  -24.1166 H   0  0  0  0  0  0  0  0  0  0  0  0
  -16.4224   14.0245  -25.3828 C   0  0  0  0  0  0  0  0  0  0  0  0
  -16.8644   13.4353  -26.5923 C   0  0  0  0  0  0  0  0  0  0  0  0
  -17.3762   12.1112  -26.5648 N   0  0  0  0  0  0  0  0  0  0  0  0
  -16.7982   14.1210  -27.7410 N   0  0  0  0  0  0  0  0  0  0  0  0
  -16.3231   15.3649  -27.7994 C   0  0  0  0  0  0  0  0  0  0  0  0
  -15.9121   15.9086  -26.6679 N   0  0  0  0  0  0  0  0  0  0  0  0
  -15.9356   15.3085  -25.4688 C   0  0  0  0  0  0  0  0  0  0  0  0
  -16.7349   11.3166  -26.6852 H   0  0  0  0  0  0  0  0  0  0  0  0
  -18.3830   11.9557  -26.4251 H   0  0  0  0  0  0  0  0  0  0  0  0
  -15.5612   12.4649  -23.5461 N   0  0  0  0  0  0  0  0  0  0  0  0
  -16.5260   13.2421  -24.1694 C   0  0  0  0  0  0  0  0  0  0  0  0
  -17.6638   13.2628  -23.5769 O   0  0  0  0  0  0  0  0  0  0  0  0
  -15.4667   11.4357  -23.7028 H   0  0  0  0  0  0  0  0  0  0  0  0
  -14.8493   12.8619  -22.8618 H   0  0  0  0  0  0  0  0  0  0  0  0
 29 30  1  0  0  0
 30 31  2  0  0  0
 30 20  1  0  0  0
 20 21  2  0  0  0
 21 22  1  0  0  0
 21 23  1  0  0  0
 23 24  2  0  0  0
 24 25  1  0  0  0
 25 26  2  0  0  0
 26 18  1  0  0  0
 18  1  1  0  0  0
  1  2  2  0  0  0
  2  3  1  0  0  0
  3  4  2  0  0  0
  4  5  1  0  0  0
  5  6  2  0  0  0
  5  7  1  0  0  0
  7  8  2  0  0  0
  7  9  1  0  0  0
  9 10  1  0  0  0
 10 11  1  0  0  0
 11 12  1  0  0  0
 12 13  1  0  0  0
 13 14  1  0  0  0
 13 15  1  0  0  0
 26 20  1  0  0  0
  6  1  1  0  0  0
 15  9  1  0  0  0
 29 32  1  0  0  0
 29 33  1  0  0  0
 22 27  1  0  0  0
 22 28  1  0  0  0
 18 19  1  0  0  0
 14 16  1  0  0  0
 14 17  1  0  0  0
M  END
> <minimizedAffinity>
-7.99303

> <CNNscore>
0.2794946432

> <CNNaffinity>
5.7431378365

> <CNN_VS>
1.6051762104

> <CNNaffinity_variance>
0.2654970586

$$$$
[H]c1nc(N([H])[H])c(C(=O)N([H])[H])c(N([H])c2c([H])c([H])c([H])c(C(=O)N3C([H])([H])C([H])([H])C([H])([H])[C@]([H])(N([H])[H])C3([H])[H])c2[H])n1


 33 35  0  0  0  0  0  0  0  0999 V2000
  -17.1956   13.1217  -22.0937 C   0  0  0  0  0  0  0  0  0  0  0  0
  -17.4924   12.1113  -21.2421 C   0  0  0  0  0  0  0  0  0  0  0  0
  -18.5077   12.3261  -20.3245 C   0  0  0  0  0  0  0  0  0  0  0  0
  -19.1935   13.5096  -20.2681 C   0  0  0  0  0  0  0  0  0  0  0  0
  -18.9142   14.5846  -21.1360 C   0  0  0  0  0  0  0  0  0  0  0  0
  -17.9129   14.3413  -22.0233 C   0  0  0  0  0  0  0  0  0  0  0  0
  -19.6836   15.7877  -20.9559 C   0  0  0  0  0  0  0  0  0  0  0  0
  -20.8822   15.6113  -20.4312 O   0  0  0  0  0  0  0  0  0  0  0  0
  -19.4213   17.1309  -21.2273 N   0  0  0  0  0  0  0  0  0  0  0  0
  -20.4983   18.0701  -20.8388 C   0  0  0  0  0  0  0  0  0  0  0  0
  -20.6381   19.2093  -21.7858 C   0  0  0  0  0  0  0  0  0  0  0  0
  -19.2947   19.9191  -21.8287 C   0  0  0  0  0  0  0  0  0  0  0  0
  -18.2545   19.0042  -22.3906 C   0  0  0  0  0  0  0  0  0  0  0  0
  -18.3139   18.9509  -23.8508 N   0  0  0  0  0  0  0  0  0  0  0  0
  -18.2405   17.6137  -21.8455 C   0  0  0  0  0  0  0  0  0  0  0  0
  -18.9402   19.6824  -24.2429 H   0  0  0  0  0  0  0  0  0  0  0  0
  -18.5428   17.9921  -24.1497 H   0  0  0  0  0  0  0  0  0  0  0  0
  -16.1856   12.9995  -23.1096 N   0  0  0  0  0  0  0  0  0  0  0  0
  -15.2690   12.6991  -22.7443 H   0  0  0  0  0  0  0  0  0  0  0  0
  -15.9163   14.4067  -25.0941 C   0  0  0  0  0  0  0  0  0  0  0  0
  -16.2576   14.5974  -26.4553 C   0  0  0  0  0  0  0  0  0  0  0  0
  -15.7727   15.7483  -27.1306 N   0  0  0  0  0  0  0  0  0  0  0  0
  -17.0261   13.7027  -27.0903 N   0  0  0  0  0  0  0  0  0  0  0  0
  -17.4965   12.6130  -26.4842 C   0  0  0  0  0  0  0  0  0  0  0  0
  -17.1749   12.4412  -25.2145 N   0  0  0  0  0  0  0  0  0  0  0  0
  -16.4143   13.2752  -24.4903 C   0  0  0  0  0  0  0  0  0  0  0  0
  -16.3234   16.6164  -27.1136 H   0  0  0  0  0  0  0  0  0  0  0  0
  -14.8756   15.7064  -27.6314 H   0  0  0  0  0  0  0  0  0  0  0  0
  -15.4433   16.5053  -23.7087 N   0  0  0  0  0  0  0  0  0  0  0  0
  -15.0750   15.3994  -24.4601 C   0  0  0  0  0  0  0  0  0  0  0  0
  -13.8094   15.2458  -24.6046 O   0  0  0  0  0  0  0  0  0  0  0  0
  -15.5484   17.4631  -24.1140 H   0  0  0  0  0  0  0  0  0  0  0  0
  -15.6432   16.4570  -22.6645 H   0  0  0  0  0  0  0  0  0  0  0  0
 29 30  1  0  0  0
 30 31  2  0  0  0
 30 20  1  0  0  0
 20 21  2  0  0  0
 21 22  1  0  0  0
 21 23  1  0  0  0
 23 24  2  0  0  0
 24 25  1  0  0  0
 25 26  2  0  0  0
 26 18  1  0  0  0
 18  1  1  0  0  0
  1  2  2  0  0  0
  2  3  1  0  0  0
  3  4  2  0  0  0
  4  5  1  0  0  0
  5  6  2  0  0  0
  5  7  1  0  0  0
  7  8  2  0  0  0
  7  9  1  0  0  0
  9 10  1  0  0  0
 10 11  1  0  0  0
 11 12  1  0  0  0
 12 13  1  0  0  0
 13 14  1  0  0  0
 13 15  1  0  0  0
 26 20  1  0  0  0
  6  1  1  0  0  0
 15  9  1  0  0  0
 29 32  1  0  0  0
 29 33  1  0  0  0
 22 27  1  0  0  0
 22 28  1  0  0  0
 18 19  1  0  0  0
 14 16  1  0  0  0
 14 17  1  0  0  0
M  END
> <minimizedAffinity>
-8.42675

> <CNNscore>
0.2780345380

> <CNNaffinity>
6.0191273689

> <CNN_VS>
1.6735253334

> <CNNaffinity_variance>
0.2021869868

$$$$
[H]c1nc(N([H])c2c([H])c([H])c(F)c([H])c2Cl)nc(-c2c([H])nn3nc([H])c([H])c([H])c23)c1[H]


 25 28  0  0  0  0  0  0  0  0999 V2000
  -16.5479   13.8027  -22.7547 C   0  0  0  0  0  0  0  0  0  0  0  0
  -16.9517   15.0360  -22.4337 N   0  0  0  0  0  0  0  0  0  0  0  0
  -17.5985   15.3812  -21.3257 C   0  0  0  0  0  0  0  0  0  0  0  0
  -17.8816   14.3549  -20.4123 C   0  0  0  0  0  0  0  0  0  0  0  0
  -17.5005   13.0668  -20.6737 C   0  0  0  0  0  0  0  0  0  0  0  0
  -16.8490   12.8449  -21.8337 N   0  0  0  0  0  0  0  0  0  0  0  0
  -17.7105   11.9577  -19.7524 C   0  0  0  0  0  0  0  0  0  0  0  0
  -17.0274   10.7639  -19.8644 C   0  0  0  0  0  0  0  0  0  0  0  0
  -17.4861    9.9649  -18.9001 N   0  0  0  0  0  0  0  0  0  0  0  0
  -18.4268   10.5959  -18.1852 N   0  0  0  0  0  0  0  0  0  0  0  0
  -19.1487   10.1830  -17.1617 N   0  0  0  0  0  0  0  0  0  0  0  0
  -20.0714   10.9518  -16.5741 C   0  0  0  0  0  0  0  0  0  0  0  0
  -20.2832   12.2195  -17.0469 C   0  0  0  0  0  0  0  0  0  0  0  0
  -19.5309   12.6540  -18.1152 C   0  0  0  0  0  0  0  0  0  0  0  0
  -18.5678   11.8429  -18.7199 C   0  0  0  0  0  0  0  0  0  0  0  0
  -15.8589   13.4386  -23.9378 N   0  0  0  0  0  0  0  0  0  0  0  0
  -15.3290   12.5055  -23.8639 H   0  0  0  0  0  0  0  0  0  0  0  0
  -15.7228   15.9500  -28.8729 F   0  0  0  0  0  0  0  0  0  0  0  0
  -15.7397   15.3417  -27.6475 C   0  0  0  0  0  0  0  0  0  0  0  0
  -14.8235   15.6912  -26.6728 C   0  0  0  0  0  0  0  0  0  0  0  0
  -14.8476   15.0621  -25.4183 C   0  0  0  0  0  0  0  0  0  0  0  0
  -15.7744   14.0972  -25.1417 C   0  0  0  0  0  0  0  0  0  0  0  0
  -16.6875   13.7709  -26.1589 C   0  0  0  0  0  0  0  0  0  0  0  0
  -17.8965   12.5509  -25.8782 Cl  0  0  0  0  0  0  0  0  0  0  0  0
  -16.6851   14.3708  -27.3933 C   0  0  0  0  0  0  0  0  0  0  0  0
 18 19  1  0  0  0
 19 20  2  0  0  0
 20 21  1  0  0  0
 21 22  2  0  0  0
 22 16  1  0  0  0
 16  1  1  0  0  0
  1  2  2  0  0  0
  2  3  1  0  0  0
  3  4  2  0  0  0
  4  5  1  0  0  0
  5  6  2  0  0  0
  5  7  1  0  0  0
  7  8  1  0  0  0
  8  9  2  0  0  0
  9 10  1  0  0  0
 10 11  1  0  0  0
 11 12  2  0  0  0
 12 13  1  0  0  0
 13 14  2  0  0  0
 14 15  1  0  0  0
 22 23  1  0  0  0
 23 24  1  0  0  0
 23 25  2  0  0  0
 25 19  1  0  0  0
  6  1  1  0  0  0
 15  7  2  0  0  0
 15 10  1  0  0  0
 16 17  1  0  0  0
M  END
> <minimizedAffinity>
-9.29241

> <CNNscore>
0.8595793247

> <CNNaffinity>
7.0204133987

> <CNN_VS>
6.0346021652

> <CNNaffinity_variance>
0.0415771008

$$$$
[H]c1nc(N([H])c2c([H])c([H])c(F)c([H])c2Cl)nc(-c2c([H])nn3nc([H])c([H])c([H])c23)c1[H]


 25 28  0  0  0  0  0  0  0  0999 V2000
  -16.7992   10.5419  -19.8975 C   0  0  0  0  0  0  0  0  0  0  0  0
  -15.7442    9.9027  -20.4129 N   0  0  0  0  0  0  0  0  0  0  0  0
  -15.1167   10.2169  -21.5411 C   0  0  0  0  0  0  0  0  0  0  0  0
  -15.6094   11.3205  -22.2531 C   0  0  0  0  0  0  0  0  0  0  0  0
  -16.6877   12.0231  -21.7878 C   0  0  0  0  0  0  0  0  0  0  0  0
  -17.2369   11.6047  -20.6291 N   0  0  0  0  0  0  0  0  0  0  0  0
  -17.2235   13.2101  -22.4411 C   0  0  0  0  0  0  0  0  0  0  0  0
  -17.3463   13.3077  -23.8122 C   0  0  0  0  0  0  0  0  0  0  0  0
  -17.8247   14.5254  -24.0710 N   0  0  0  0  0  0  0  0  0  0  0  0
  -18.0088   15.2022  -22.9299 N   0  0  0  0  0  0  0  0  0  0  0  0
  -18.4447   16.4289  -22.7198 N   0  0  0  0  0  0  0  0  0  0  0  0
  -18.5472   16.9573  -21.4958 C   0  0  0  0  0  0  0  0  0  0  0  0
  -18.1871   16.2029  -20.4110 C   0  0  0  0  0  0  0  0  0  0  0  0
  -17.7320   14.9214  -20.6267 C   0  0  0  0  0  0  0  0  0  0  0  0
  -17.6312   14.3787  -21.9099 C   0  0  0  0  0  0  0  0  0  0  0  0
  -17.4660   10.2031  -18.6943 N   0  0  0  0  0  0  0  0  0  0  0  0
  -17.1076    9.2977  -18.2375 H   0  0  0  0  0  0  0  0  0  0  0  0
  -21.6299   12.6081  -15.9450 F   0  0  0  0  0  0  0  0  0  0  0  0
  -20.5973   12.0328  -16.6339 C   0  0  0  0  0  0  0  0  0  0  0  0
  -19.8443   12.7733  -17.5263 C   0  0  0  0  0  0  0  0  0  0  0  0
  -18.7866   12.1753  -18.2291 C   0  0  0  0  0  0  0  0  0  0  0  0
  -18.4856   10.8559  -18.0427 C   0  0  0  0  0  0  0  0  0  0  0  0
  -19.2745   10.1384  -17.1274 C   0  0  0  0  0  0  0  0  0  0  0  0
  -18.9493    8.4533  -16.8388 Cl  0  0  0  0  0  0  0  0  0  0  0  0
  -20.3137   10.6993  -16.4280 C   0  0  0  0  0  0  0  0  0  0  0  0
 18 19  1  0  0  0
 19 20  2  0  0  0
 20 21  1  0  0  0
 21 22  2  0  0  0
 22 16  1  0  0  0
 16  1  1  0  0  0
  1  2  2  0  0  0
  2  3  1  0  0  0
  3  4  2  0  0  0
  4  5  1  0  0  0
  5  6  2  0  0  0
  5  7  1  0  0  0
  7  8  1  0  0  0
  8  9  2  0  0  0
  9 10  1  0  0  0
 10 11  1  0  0  0
 11 12  2  0  0  0
 12 13  1  0  0  0
 13 14  2  0  0  0
 14 15  1  0  0  0
 22 23  1  0  0  0
 23 24  1  0  0  0
 23 25  2  0  0  0
 25 19  1  0  0  0
  6  1  1  0  0  0
 15  7  2  0  0  0
 15 10  1  0  0  0
 16 17  1  0  0  0
M  END
> <minimizedAffinity>
-7.90164

> <CNNscore>
0.8138025403

> <CNNaffinity>
6.9014000893

> <CNN_VS>
5.6163768768

> <CNNaffinity_variance>
0.0445991680

$$$$
[H]c1nc(N([H])c2c([H])c([H])c(F)c([H])c2Cl)nc(-c2c([H])nn3nc([H])c([H])c([H])c23)c1[H]


 25 28  0  0  0  0  0  0  0  0999 V2000
  -16.8893   12.1289  -21.9407 C   0  0  0  0  0  0  0  0  0  0  0  0
  -15.8315   11.3254  -22.0919 N   0  0  0  0  0  0  0  0  0  0  0  0
  -15.4337   10.3903  -21.2360 C   0  0  0  0  0  0  0  0  0  0  0  0
  -16.1957   10.2355  -20.0686 C   0  0  0  0  0  0  0  0  0  0  0  0
  -17.2918   11.0235  -19.8441 C   0  0  0  0  0  0  0  0  0  0  0  0
  -17.5930   11.9367  -20.7900 N   0  0  0  0  0  0  0  0  0  0  0  0
  -18.1628   10.8873  -18.6840 C   0  0  0  0  0  0  0  0  0  0  0  0
  -18.2124    9.7340  -17.9279 C   0  0  0  0  0  0  0  0  0  0  0  0
  -19.1318    9.9318  -16.9823 N   0  0  0  0  0  0  0  0  0  0  0  0
  -19.6663   11.1538  -17.1053 N   0  0  0  0  0  0  0  0  0  0  0  0
  -20.6077   11.7539  -16.4034 N   0  0  0  0  0  0  0  0  0  0  0  0
  -21.0393   12.9880  -16.6839 C   0  0  0  0  0  0  0  0  0  0  0  0
  -20.4886   13.6634  -17.7403 C   0  0  0  0  0  0  0  0  0  0  0  0
  -19.5051   13.0400  -18.4750 C   0  0  0  0  0  0  0  0  0  0  0  0
  -19.0602   11.7511  -18.1714 C   0  0  0  0  0  0  0  0  0  0  0  0
  -17.3098   13.1254  -22.8556 N   0  0  0  0  0  0  0  0  0  0  0  0
  -18.3710   13.3006  -22.8518 H   0  0  0  0  0  0  0  0  0  0  0  0
  -14.4418   16.0629  -26.5741 F   0  0  0  0  0  0  0  0  0  0  0  0
  -15.1397   15.3474  -25.6397 C   0  0  0  0  0  0  0  0  0  0  0  0
  -14.9119   15.5381  -24.2894 C   0  0  0  0  0  0  0  0  0  0  0  0
  -15.6322   14.7998  -23.3373 C   0  0  0  0  0  0  0  0  0  0  0  0
  -16.5669   13.8839  -23.7292 C   0  0  0  0  0  0  0  0  0  0  0  0
  -16.7684   13.7199  -25.1103 C   0  0  0  0  0  0  0  0  0  0  0  0
  -17.9432   12.5708  -25.6834 Cl  0  0  0  0  0  0  0  0  0  0  0  0
  -16.0777   14.4288  -26.0610 C   0  0  0  0  0  0  0  0  0  0  0  0
 18 19  1  0  0  0
 19 20  2  0  0  0
 20 21  1  0  0  0
 21 22  2  0  0  0
 22 16  1  0  0  0
 16  1  1  0  0  0
  1  2  2  0  0  0
  2  3  1  0  0  0
  3  4  2  0  0  0
  4  5  1  0  0  0
  5  6  2  0  0  0
  5  7  1  0  0  0
  7  8  1  0  0  0
  8  9  2  0  0  0
  9 10  1  0  0  0
 10 11  1  0  0  0
 11 12  2  0  0  0
 12 13  1  0  0  0
 13 14  2  0  0  0
 14 15  1  0  0  0
 22 23  1  0  0  0
 23 24  1  0  0  0
 23 25  2  0  0  0
 25 19  1  0  0  0
  6  1  1  0  0  0
 15  7  2  0  0  0
 15 10  1  0  0  0
 16 17  1  0  0  0
M  END
> <minimizedAffinity>
-8.81845

> <CNNscore>
0.7654591203

> <CNNaffinity>
7.0424003601

> <CNN_VS>
5.3906693459

> <CNNaffinity_variance>
0.0445518270

$$$$
[H]c1nc(N([H])c2c([H])c([H])c(F)c([H])c2Cl)nc(-c2c([H])nn3nc([H])c([H])c([H])c23)c1[H]


 25 28  0  0  0  0  0  0  0  0999 V2000
  -16.9676   12.0403  -21.9037 C   0  0  0  0  0  0  0  0  0  0  0  0
  -15.9634   11.1598  -21.8437 N   0  0  0  0  0  0  0  0  0  0  0  0
  -15.6567   10.3965  -20.8004 C   0  0  0  0  0  0  0  0  0  0  0  0
  -16.4623   10.5301  -19.6599 C   0  0  0  0  0  0  0  0  0  0  0  0
  -17.5080   11.4129  -19.6467 C   0  0  0  0  0  0  0  0  0  0  0  0
  -17.7171   12.1304  -20.7696 N   0  0  0  0  0  0  0  0  0  0  0  0
  -18.4207   11.5699  -18.5219 C   0  0  0  0  0  0  0  0  0  0  0  0
  -18.9557   12.7919  -18.1688 C   0  0  0  0  0  0  0  0  0  0  0  0
  -19.7046   12.5865  -17.0845 N   0  0  0  0  0  0  0  0  0  0  0  0
  -19.6674   11.2940  -16.7348 N   0  0  0  0  0  0  0  0  0  0  0  0
  -20.2405   10.6591  -15.7311 N   0  0  0  0  0  0  0  0  0  0  0  0
  -20.0751    9.3494  -15.5187 C   0  0  0  0  0  0  0  0  0  0  0  0
  -19.2805    8.6302  -16.3711 C   0  0  0  0  0  0  0  0  0  0  0  0
  -18.6808    9.2899  -17.4205 C   0  0  0  0  0  0  0  0  0  0  0  0
  -18.8626   10.6582  -17.6343 C   0  0  0  0  0  0  0  0  0  0  0  0
  -17.2910   12.8529  -23.0182 N   0  0  0  0  0  0  0  0  0  0  0  0
  -18.3352   12.8433  -23.2761 H   0  0  0  0  0  0  0  0  0  0  0  0
  -14.1261   15.9136  -26.3792 F   0  0  0  0  0  0  0  0  0  0  0  0
  -14.8971   15.1655  -25.5320 C   0  0  0  0  0  0  0  0  0  0  0  0
  -14.7003   15.2195  -24.1645 C   0  0  0  0  0  0  0  0  0  0  0  0
  -15.4957   14.4486  -23.3024 C   0  0  0  0  0  0  0  0  0  0  0  0
  -16.4742   13.6353  -23.7999 C   0  0  0  0  0  0  0  0  0  0  0  0
  -16.6422   13.6089  -25.1949 C   0  0  0  0  0  0  0  0  0  0  0  0
  -17.8692   12.5960  -25.9000 Cl  0  0  0  0  0  0  0  0  0  0  0  0
  -15.8781   14.3524  -26.0591 C   0  0  0  0  0  0  0  0  0  0  0  0
 18 19  1  0  0  0
 19 20  2  0  0  0
 20 21  1  0  0  0
 21 22  2  0  0  0
 22 16  1  0  0  0
 16  1  1  0  0  0
  1  2  2  0  0  0
  2  3  1  0  0  0
  3  4  2  0  0  0
  4  5  1  0  0  0
  5  6  2  0  0  0
  5  7  1  0  0  0
  7  8  1  0  0  0
  8  9  2  0  0  0
  9 10  1  0  0  0
 10 11  1  0  0  0
 11 12  2  0  0  0
 12 13  1  0  0  0
 13 14  2  0  0  0
 14 15  1  0  0  0
 22 23  1  0  0  0
 23 24  1  0  0  0
 23 25  2  0  0  0
 25 19  1  0  0  0
  6  1  1  0  0  0
 15  7  2  0  0  0
 15 10  1  0  0  0
 16 17  1  0  0  0
M  END
> <minimizedAffinity>
-9.07731

> <CNNscore>
0.7395811677

> <CNNaffinity>
6.9863381386

> <CNN_VS>
5.1669640541

> <CNNaffinity_variance>
0.1043980867

$$$$
[H]c1nc(N([H])c2c([H])c([H])c(F)c([H])c2Cl)nc(-c2c([H])nn3nc([H])c([H])c([H])c23)c1[H]


 25 28  0  0  0  0  0  0  0  0999 V2000
  -17.1641   11.6756  -20.2501 C   0  0  0  0  0  0  0  0  0  0  0  0
  -16.2100   10.7391  -20.2609 N   0  0  0  0  0  0  0  0  0  0  0  0
  -15.3905   10.4722  -21.2720 C   0  0  0  0  0  0  0  0  0  0  0  0
  -15.5438   11.2457  -22.4320 C   0  0  0  0  0  0  0  0  0  0  0  0
  -16.5006   12.2222  -22.4953 C   0  0  0  0  0  0  0  0  0  0  0  0
  -17.2701   12.3966  -21.4013 N   0  0  0  0  0  0  0  0  0  0  0  0
  -16.6857   13.1010  -23.6426 C   0  0  0  0  0  0  0  0  0  0  0  0
  -17.8978   13.2261  -24.2903 C   0  0  0  0  0  0  0  0  0  0  0  0
  -17.7066   14.0670  -25.3077 N   0  0  0  0  0  0  0  0  0  0  0  0
  -16.4321   14.4780  -25.3348 N   0  0  0  0  0  0  0  0  0  0  0  0
  -15.8089   15.2892  -26.1670 N   0  0  0  0  0  0  0  0  0  0  0  0
  -14.5079   15.5765  -26.0543 C   0  0  0  0  0  0  0  0  0  0  0  0
  -13.7851   15.0105  -25.0381 C   0  0  0  0  0  0  0  0  0  0  0  0
  -14.4327   14.1634  -24.1670 C   0  0  0  0  0  0  0  0  0  0  0  0
  -15.7931   13.8721  -24.2929 C   0  0  0  0  0  0  0  0  0  0  0  0
  -18.0364   11.9567  -19.1699 N   0  0  0  0  0  0  0  0  0  0  0  0
  -18.3097   12.9939  -19.0889 H   0  0  0  0  0  0  0  0  0  0  0  0
  -20.3629    8.7234  -15.3210 F   0  0  0  0  0  0  0  0  0  0  0  0
  -19.7745    9.5061  -16.2765 C   0  0  0  0  0  0  0  0  0  0  0  0
  -18.7159    9.0288  -17.0269 C   0  0  0  0  0  0  0  0  0  0  0  0
  -18.1178    9.8385  -18.0052 C   0  0  0  0  0  0  0  0  0  0  0  0
  -18.5714   11.1072  -18.2304 C   0  0  0  0  0  0  0  0  0  0  0  0
  -19.6488   11.5546  -17.4468 C   0  0  0  0  0  0  0  0  0  0  0  0
  -20.2796   13.1600  -17.6782 Cl  0  0  0  0  0  0  0  0  0  0  0  0
  -20.2508   10.7833  -16.4844 C   0  0  0  0  0  0  0  0  0  0  0  0
 18 19  1  0  0  0
 19 20  2  0  0  0
 20 21  1  0  0  0
 21 22  2  0  0  0
 22 16  1  0  0  0
 16  1  1  0  0  0
  1  2  2  0  0  0
  2  3  1  0  0  0
  3  4  2  0  0  0
  4  5  1  0  0  0
  5  6  2  0  0  0
  5  7  1  0  0  0
  7  8  1  0  0  0
  8  9  2  0  0  0
  9 10  1  0  0  0
 10 11  1  0  0  0
 11 12  2  0  0  0
 12 13  1  0  0  0
 13 14  2  0  0  0
 14 15  1  0  0  0
 22 23  1  0  0  0
 23 24  1  0  0  0
 23 25  2  0  0  0
 25 19  1  0  0  0
  6  1  1  0  0  0
 15  7  2  0  0  0
 15 10  1  0  0  0
 16 17  1  0  0  0
M  END
> <minimizedAffinity>
-8.54068

> <CNNscore>
0.6795461774

> <CNNaffinity>
6.9116487503

> <CNN_VS>
4.6967844963

> <CNNaffinity_variance>
0.0705902874

$$$$
[H]c1nc(N([H])c2c([H])c([H])c(F)c([H])c2Cl)nc(-c2c([H])nn3nc([H])c([H])c([H])c23)c1[H]


 25 28  0  0  0  0  0  0  0  0999 V2000
  -15.9905   12.1481  -22.6256 C   0  0  0  0  0  0  0  0  0  0  0  0
  -15.2479   11.0498  -22.4530 N   0  0  0  0  0  0  0  0  0  0  0  0
  -15.3207   10.2129  -21.4238 C   0  0  0  0  0  0  0  0  0  0  0  0
  -16.2639   10.5128  -20.4297 C   0  0  0  0  0  0  0  0  0  0  0  0
  -17.0588   11.6216  -20.5372 C   0  0  0  0  0  0  0  0  0  0  0  0
  -16.8892   12.3923  -21.6311 N   0  0  0  0  0  0  0  0  0  0  0  0
  -18.0960   11.9703  -19.5752 C   0  0  0  0  0  0  0  0  0  0  0  0
  -18.2941   11.2574  -18.4104 C   0  0  0  0  0  0  0  0  0  0  0  0
  -19.3368   11.8123  -17.7910 N   0  0  0  0  0  0  0  0  0  0  0  0
  -19.8076   12.8404  -18.5088 N   0  0  0  0  0  0  0  0  0  0  0  0
  -20.8230   13.6513  -18.2838 N   0  0  0  0  0  0  0  0  0  0  0  0
  -21.1684   14.6257  -19.1318 C   0  0  0  0  0  0  0  0  0  0  0  0
  -20.4458   14.7961  -20.2825 C   0  0  0  0  0  0  0  0  0  0  0  0
  -19.3847   13.9515  -20.5205 C   0  0  0  0  0  0  0  0  0  0  0  0
  -19.0313   12.9382  -19.6263 C   0  0  0  0  0  0  0  0  0  0  0  0
  -15.9093   13.0384  -23.7245 N   0  0  0  0  0  0  0  0  0  0  0  0
  -15.5485   12.5821  -24.6293 H   0  0  0  0  0  0  0  0  0  0  0  0
  -17.3746   18.3630  -24.1510 F   0  0  0  0  0  0  0  0  0  0  0  0
  -16.9956   17.0536  -24.0340 C   0  0  0  0  0  0  0  0  0  0  0  0
  -15.8565   16.7083  -23.3304 C   0  0  0  0  0  0  0  0  0  0  0  0
  -15.4747   15.3625  -23.2152 C   0  0  0  0  0  0  0  0  0  0  0  0
  -16.2206   14.3758  -23.7949 C   0  0  0  0  0  0  0  0  0  0  0  0
  -17.3705   14.7682  -24.5010 C   0  0  0  0  0  0  0  0  0  0  0  0
  -18.3694   13.5656  -25.2657 Cl  0  0  0  0  0  0  0  0  0  0  0  0
  -17.7655   16.0764  -24.6284 C   0  0  0  0  0  0  0  0  0  0  0  0
 18 19  1  0  0  0
 19 20  2  0  0  0
 20 21  1  0  0  0
 21 22  2  0  0  0
 22 16  1  0  0  0
 16  1  1  0  0  0
  1  2  2  0  0  0
  2  3  1  0  0  0
  3  4  2  0  0  0
  4  5  1  0  0  0
  5  6  2  0  0  0
  5  7  1  0  0  0
  7  8  1  0  0  0
  8  9  2  0  0  0
  9 10  1  0  0  0
 10 11  1  0  0  0
 11 12  2  0  0  0
 12 13  1  0  0  0
 13 14  2  0  0  0
 14 15  1  0  0  0
 22 23  1  0  0  0
 23 24  1  0  0  0
 23 25  2  0  0  0
 25 19  1  0  0  0
  6  1  1  0  0  0
 15  7  2  0  0  0
 15 10  1  0  0  0
 16 17  1  0  0  0
M  END
> <minimizedAffinity>
-8.03182

> <CNNscore>
0.5698780417

> <CNNaffinity>
6.7676515579

> <CNN_VS>
3.8567359447

> <CNNaffinity_variance>
0.1354865730

$$$$
[H]c1nc(N([H])c2c([H])c([H])c(F)c([H])c2Cl)nc(-c2c([H])nn3nc([H])c([H])c([H])c23)c1[H]


 25 28  0  0  0  0  0  0  0  0999 V2000
  -17.0466   11.9588  -21.6572 C   0  0  0  0  0  0  0  0  0  0  0  0
  -16.2032   10.9811  -21.3108 N   0  0  0  0  0  0  0  0  0  0  0  0
  -16.0325   10.4958  -20.0858 C   0  0  0  0  0  0  0  0  0  0  0  0
  -16.8101   11.0641  -19.0660 C   0  0  0  0  0  0  0  0  0  0  0  0
  -17.6944   12.0707  -19.3447 C   0  0  0  0  0  0  0  0  0  0  0  0
  -17.7760   12.4753  -20.6288 N   0  0  0  0  0  0  0  0  0  0  0  0
  -18.5735   12.6738  -18.3516 C   0  0  0  0  0  0  0  0  0  0  0  0
  -19.4209   11.9241  -17.5615 C   0  0  0  0  0  0  0  0  0  0  0  0
  -20.1035   12.7837  -16.8039 N   0  0  0  0  0  0  0  0  0  0  0  0
  -19.7291   14.0402  -17.0782 N   0  0  0  0  0  0  0  0  0  0  0  0
  -20.1484   15.1885  -16.5836 N   0  0  0  0  0  0  0  0  0  0  0  0
  -19.6705   16.3676  -16.9950 C   0  0  0  0  0  0  0  0  0  0  0  0
  -18.7079   16.3943  -17.9687 C   0  0  0  0  0  0  0  0  0  0  0  0
  -18.2675   15.1972  -18.4871 C   0  0  0  0  0  0  0  0  0  0  0  0
  -18.7722   13.9709  -18.0480 C   0  0  0  0  0  0  0  0  0  0  0  0
  -17.2252   12.4739  -22.9647 N   0  0  0  0  0  0  0  0  0  0  0  0
  -18.1464   12.1713  -23.4303 H   0  0  0  0  0  0  0  0  0  0  0  0
  -14.0578   15.7009  -26.1640 F   0  0  0  0  0  0  0  0  0  0  0  0
  -14.8280   14.9090  -25.3568 C   0  0  0  0  0  0  0  0  0  0  0  0
  -14.5459   14.7887  -24.0085 C   0  0  0  0  0  0  0  0  0  0  0  0
  -15.3410   13.9740  -23.1874 C   0  0  0  0  0  0  0  0  0  0  0  0
  -16.4031   13.2892  -23.7062 C   0  0  0  0  0  0  0  0  0  0  0  0
  -16.6562   13.4382  -25.0805 C   0  0  0  0  0  0  0  0  0  0  0  0
  -17.9926   12.5960  -25.8110 Cl  0  0  0  0  0  0  0  0  0  0  0  0
  -15.8944   14.2281  -25.9047 C   0  0  0  0  0  0  0  0  0  0  0  0
 18 19  1  0  0  0
 19 20  2  0  0  0
 20 21  1  0  0  0
 21 22  2  0  0  0
 22 16  1  0  0  0
 16  1  1  0  0  0
  1  2  2  0  0  0
  2  3  1  0  0  0
  3  4  2  0  0  0
  4  5  1  0  0  0
  5  6  2  0  0  0
  5  7  1  0  0  0
  7  8  1  0  0  0
  8  9  2  0  0  0
  9 10  1  0  0  0
 10 11  1  0  0  0
 11 12  2  0  0  0
 12 13  1  0  0  0
 13 14  2  0  0  0
 14 15  1  0  0  0
 22 23  1  0  0  0
 23 24  1  0  0  0
 23 25  2  0  0  0
 25 19  1  0  0  0
  6  1  1  0  0  0
 15  7  2  0  0  0
 15 10  1  0  0  0
 16 17  1  0  0  0
M  END
> <minimizedAffinity>
-8.38463

> <CNNscore>
0.5510051847

> <CNNaffinity>
6.8819108009

> <CNN_VS>
3.7919685841

> <CNNaffinity_variance>
0.1503181607

$$$$
[H]c1nc(N([H])c2c([H])c([H])c(F)c([H])c2Cl)nc(-c2c([H])nn3nc([H])c([H])c([H])c23)c1[H]


 25 28  0  0  0  0  0  0  0  0999 V2000
  -16.7288   12.3330  -22.1714 C   0  0  0  0  0  0  0  0  0  0  0  0
  -16.7800   11.3600  -21.2560 N   0  0  0  0  0  0  0  0  0  0  0  0
  -17.4121   11.4196  -20.0890 C   0  0  0  0  0  0  0  0  0  0  0  0
  -18.0858   12.6141  -19.7944 C   0  0  0  0  0  0  0  0  0  0  0  0
  -18.0763   13.6551  -20.6827 C   0  0  0  0  0  0  0  0  0  0  0  0
  -17.3987   13.4705  -21.8343 N   0  0  0  0  0  0  0  0  0  0  0  0
  -18.7949   14.9050  -20.4728 C   0  0  0  0  0  0  0  0  0  0  0  0
  -20.1675   14.9554  -20.3396 C   0  0  0  0  0  0  0  0  0  0  0  0
  -20.4953   16.2413  -20.2055 N   0  0  0  0  0  0  0  0  0  0  0  0
  -19.3961   17.0056  -20.2488 N   0  0  0  0  0  0  0  0  0  0  0  0
  -19.2570   18.3147  -20.1723 N   0  0  0  0  0  0  0  0  0  0  0  0
  -18.0671   18.9188  -20.2559 C   0  0  0  0  0  0  0  0  0  0  0  0
  -16.9425   18.1567  -20.4285 C   0  0  0  0  0  0  0  0  0  0  0  0
  -17.0840   16.7894  -20.5084 C   0  0  0  0  0  0  0  0  0  0  0  0
  -18.3321   16.1687  -20.4173 C   0  0  0  0  0  0  0  0  0  0  0  0
  -16.0529   12.2657  -23.4146 N   0  0  0  0  0  0  0  0  0  0  0  0
  -15.7787   11.2679  -23.7081 H   0  0  0  0  0  0  0  0  0  0  0  0
  -14.8687   16.2803  -27.0425 F   0  0  0  0  0  0  0  0  0  0  0  0
  -15.1435   15.2937  -26.1353 C   0  0  0  0  0  0  0  0  0  0  0  0
  -14.3036   15.0690  -25.0601 C   0  0  0  0  0  0  0  0  0  0  0  0
  -14.5928   14.0547  -24.1340 C   0  0  0  0  0  0  0  0  0  0  0  0
  -15.7056   13.2759  -24.2802 C   0  0  0  0  0  0  0  0  0  0  0  0
  -16.5332   13.5362  -25.3858 C   0  0  0  0  0  0  0  0  0  0  0  0
  -17.9682   12.5840  -25.6361 Cl  0  0  0  0  0  0  0  0  0  0  0  0
  -16.2729   14.5213  -26.3052 C   0  0  0  0  0  0  0  0  0  0  0  0
 18 19  1  0  0  0
 19 20  2  0  0  0
 20 21  1  0  0  0
 21 22  2  0  0  0
 22 16  1  0  0  0
 16  1  1  0  0  0
  1  2  2  0  0  0
  2  3  1  0  0  0
  3  4  2  0  0  0
  4  5  1  0  0  0
  5  6  2  0  0  0
  5  7  1  0  0  0
  7  8  1  0  0  0
  8  9  2  0  0  0
  9 10  1  0  0  0
 10 11  1  0  0  0
 11 12  2  0  0  0
 12 13  1  0  0  0
 13 14  2  0  0  0
 14 15  1  0  0  0
 22 23  1  0  0  0
 23 24  1  0  0  0
 23 25  2  0  0  0
 25 19  1  0  0  0
  6  1  1  0  0  0
 15  7  2  0  0  0
 15 10  1  0  0  0
 16 17  1  0  0  0
M  END
> <minimizedAffinity>
-8.40607

> <CNNscore>
0.5272580385

> <CNNaffinity>
6.9291887283

> <CNN_VS>
3.6534705162

> <CNNaffinity_variance>
0.1084972247

$$$$
[H]c1nc(N([H])c2c([H])c([H])c(F)c([H])c2Cl)nc(-c2c([H])nn3nc([H])c([H])c([H])c23)c1[H]


 25 28  0  0  0  0  0  0  0  0999 V2000
  -16.5134   12.1314  -22.4985 C   0  0  0  0  0  0  0  0  0  0  0  0
  -15.5570   11.2080  -22.3570 N   0  0  0  0  0  0  0  0  0  0  0  0
  -15.3494   10.4588  -21.2796 C   0  0  0  0  0  0  0  0  0  0  0  0
  -16.2148   10.6583  -20.1938 C   0  0  0  0  0  0  0  0  0  0  0  0
  -17.2169   11.5876  -20.2649 C   0  0  0  0  0  0  0  0  0  0  0  0
  -17.3245   12.2847  -21.4146 N   0  0  0  0  0  0  0  0  0  0  0  0
  -18.1870   11.8149  -19.2018 C   0  0  0  0  0  0  0  0  0  0  0  0
  -18.8170   13.0296  -19.0230 C   0  0  0  0  0  0  0  0  0  0  0  0
  -19.5980   12.9048  -17.9490 N   0  0  0  0  0  0  0  0  0  0  0  0
  -19.4907   11.6704  -17.4401 N   0  0  0  0  0  0  0  0  0  0  0  0
  -20.0645   11.1232  -16.3865 N   0  0  0  0  0  0  0  0  0  0  0  0
  -19.8223    9.8641  -16.0069 C   0  0  0  0  0  0  0  0  0  0  0  0
  -18.9447    9.1050  -16.7341 C   0  0  0  0  0  0  0  0  0  0  0  0
  -18.3441    9.6731  -17.8352 C   0  0  0  0  0  0  0  0  0  0  0  0
  -18.6065   10.9889  -18.2241 C   0  0  0  0  0  0  0  0  0  0  0  0
  -16.7309   12.9287  -23.6491 N   0  0  0  0  0  0  0  0  0  0  0  0
  -16.7079   12.3771  -24.5722 H   0  0  0  0  0  0  0  0  0  0  0  0
  -17.4035   18.4116  -24.0574 F   0  0  0  0  0  0  0  0  0  0  0  0
  -17.2587   17.0549  -23.9561 C   0  0  0  0  0  0  0  0  0  0  0  0
  -18.3659   16.2304  -23.8780 C   0  0  0  0  0  0  0  0  0  0  0  0
  -18.2086   14.8394  -23.7742 C   0  0  0  0  0  0  0  0  0  0  0  0
  -16.9624   14.2804  -23.7488 C   0  0  0  0  0  0  0  0  0  0  0  0
  -15.8634   15.1525  -23.8303 C   0  0  0  0  0  0  0  0  0  0  0  0
  -14.2457   14.5114  -23.8037 Cl  0  0  0  0  0  0  0  0  0  0  0  0
  -15.9901   16.5152  -23.9323 C   0  0  0  0  0  0  0  0  0  0  0  0
 18 19  1  0  0  0
 19 20  2  0  0  0
 20 21  1  0  0  0
 21 22  2  0  0  0
 22 16  1  0  0  0
 16  1  1  0  0  0
  1  2  2  0  0  0
  2  3  1  0  0  0
  3  4  2  0  0  0
  4  5  1  0  0  0
  5  6  2  0  0  0
  5  7  1  0  0  0
  7  8  1  0  0  0
  8  9  2  0  0  0
  9 10  1  0  0  0
 10 11  1  0  0  0
 11 12  2  0  0  0
 12 13  1  0  0  0
 13 14  2  0  0  0
 14 15  1  0  0  0
 22 23  1  0  0  0
 23 24  1  0  0  0
 23 25  2  0  0  0
 25 19  1  0  0  0
  6  1  1  0  0  0
 15  7  2  0  0  0
 15 10  1  0  0  0
 16 17  1  0  0  0
M  END
> <minimizedAffinity>
-8.61510

> <CNNscore>
0.5145806074

> <CNNaffinity>
6.7626295090

> <CNN_VS>
3.4799180031

> <CNNaffinity_variance>
0.1142148823

$$$$
[H]c1c([H])c(Cl)c(N([H])c2nc3c([H])c(-c4nn([H])c(N([H])C([H])([H])C([H])([H])C([H])([H])N5C([H])([H])C([H])([H])N(C([H])([H])[H])C([H])([H])C5([H])[H])c4[H])c([H])c([H])c3n2C([H])([H])[H])c([H])c1Cl


 38 42  0  0  0  0  0  0  0  0999 V2000
  -17.5643   10.7972  -19.3586 C   0  0  0  0  0  0  0  0  0  0  0  0
  -18.3881   11.8369  -18.9829 C   0  0  0  0  0  0  0  0  0  0  0  0
  -19.2726   11.7623  -17.9403 C   0  0  0  0  0  0  0  0  0  0  0  0
  -19.3515   10.5801  -17.2164 C   0  0  0  0  0  0  0  0  0  0  0  0
  -20.1229   10.2022  -16.1408 N   0  0  0  0  0  0  0  0  0  0  0  0
  -21.0188   11.1372  -15.4961 C   0  0  0  0  0  0  0  0  0  0  0  0
  -19.8295    8.9642  -15.8171 C   0  0  0  0  0  0  0  0  0  0  0  0
  -18.8571    8.5604  -16.6977 N   0  0  0  0  0  0  0  0  0  0  0  0
  -18.5474    9.5236  -17.5609 C   0  0  0  0  0  0  0  0  0  0  0  0
  -17.6661    9.6371  -18.6206 C   0  0  0  0  0  0  0  0  0  0  0  0
  -15.5736   11.5679  -22.3690 C   0  0  0  0  0  0  0  0  0  0  0  0
  -16.6527   11.8146  -21.5173 C   0  0  0  0  0  0  0  0  0  0  0  0
  -16.6336   10.9151  -20.4800 C   0  0  0  0  0  0  0  0  0  0  0  0
  -15.5678   10.1336  -20.6892 N   0  0  0  0  0  0  0  0  0  0  0  0
  -14.9415   10.5241  -21.8114 N   0  0  0  0  0  0  0  0  0  0  0  0
  -14.0909   10.0447  -22.1613 H   0  0  0  0  0  0  0  0  0  0  0  0
  -15.2532   12.2720  -23.5666 N   0  0  0  0  0  0  0  0  0  0  0  0
  -15.3175   11.6828  -24.4622 H   0  0  0  0  0  0  0  0  0  0  0  0
  -14.8692   13.6543  -23.6320 C   0  0  0  0  0  0  0  0  0  0  0  0
  -15.9446   14.5809  -24.1367 C   0  0  0  0  0  0  0  0  0  0  0  0
  -15.6622   15.9559  -23.5683 C   0  0  0  0  0  0  0  0  0  0  0  0
  -18.2623   18.3808  -19.6826 C   0  0  0  0  0  0  0  0  0  0  0  0
  -17.4697   18.5211  -20.8761 N   0  0  0  0  0  0  0  0  0  0  0  0
  -16.2619   17.7266  -20.7896 C   0  0  0  0  0  0  0  0  0  0  0  0
  -16.5422   16.3673  -21.3486 C   0  0  0  0  0  0  0  0  0  0  0  0
  -16.7124   16.4762  -22.7601 N   0  0  0  0  0  0  0  0  0  0  0  0
  -17.2696   17.7164  -23.1859 C   0  0  0  0  0  0  0  0  0  0  0  0
  -18.1968   18.2148  -22.0716 C   0  0  0  0  0  0  0  0  0  0  0  0
  -20.3700    8.0601  -14.8838 N   0  0  0  0  0  0  0  0  0  0  0  0
  -20.1285    7.0002  -15.1129 H   0  0  0  0  0  0  0  0  0  0  0  0
  -21.1270    8.2032  -13.7554 C   0  0  0  0  0  0  0  0  0  0  0  0
  -20.4548    8.3166  -12.5144 C   0  0  0  0  0  0  0  0  0  0  0  0
  -18.7002    8.3861  -12.4962 Cl  0  0  0  0  0  0  0  0  0  0  0  0
  -21.1445    8.3745  -11.3268 C   0  0  0  0  0  0  0  0  0  0  0  0
  -22.5098    8.3256  -11.2806 C   0  0  0  0  0  0  0  0  0  0  0  0
  -23.1879    8.2142  -12.4706 C   0  0  0  0  0  0  0  0  0  0  0  0
  -24.9279    8.1500  -12.4444 Cl  0  0  0  0  0  0  0  0  0  0  0  0
  -22.4795    8.1547  -13.6781 C   0  0  0  0  0  0  0  0  0  0  0  0
 22 23  1  0  0  0
 23 24  1  0  0  0
 24 25  1  0  0  0
 25 26  1  0  0  0
 26 21  1  0  0  0
 21 20  1  0  0  0
 20 19  1  0  0  0
 19 17  1  0  0  0
 17 11  1  0  0  0
 11 12  2  0  0  0
 12 13  1  0  0  0
 13 14  2  0  0  0
 14 15  1  0  0  0
 13  1  1  0  0  0
  1  2  2  0  0  0
  2  3  1  0  0  0
  3  4  2  0  0  0
  4  5  1  0  0  0
  5  6  1  0  0  0
  5  7  1  0  0  0
  7 29  1  0  0  0
 29 31  1  0  0  0
 31 32  2  0  0  0
 32 33  1  0  0  0
 32 34  1  0  0  0
 34 35  2  0  0  0
 35 36  1  0  0  0
 36 37  1  0  0  0
 36 38  2  0  0  0
  7  8  2  0  0  0
  8  9  1  0  0  0
  9 10  2  0  0  0
 26 27  1  0  0  0
 27 28  1  0  0  0
 28 23  1  0  0  0
 15 11  1  0  0  0
 10  1  1  0  0  0
  9  4  1  0  0  0
 38 31  1  0  0  0
 17 18  1  0  0  0
 15 16  1  0  0  0
 29 30  1  0  0  0
M  END
> <minimizedAffinity>
-8.23722

> <CNNscore>
0.7732364535

> <CNNaffinity>
7.5201301575

> <CNN_VS>
5.8148388863

> <CNNaffinity_variance>
0.0446951166

$$$$
[H]c1c([H])c(Cl)c(N([H])c2nc3c([H])c(-c4nn([H])c(N([H])C([H])([H])C([H])([H])C([H])([H])N5C([H])([H])C([H])([H])N(C([H])([H])[H])C([H])([H])C5([H])[H])c4[H])c([H])c([H])c3n2C([H])([H])[H])c([H])c1Cl


 38 42  0  0  0  0  0  0  0  0999 V2000
  -17.5527   11.4554  -19.9925 C   0  0  0  0  0  0  0  0  0  0  0  0
  -18.5530   12.3597  -19.7059 C   0  0  0  0  0  0  0  0  0  0  0  0
  -19.3783   12.2552  -18.6183 C   0  0  0  0  0  0  0  0  0  0  0  0
  -19.2065   11.1842  -17.7516 C   0  0  0  0  0  0  0  0  0  0  0  0
  -19.8610   10.8102  -16.5999 N   0  0  0  0  0  0  0  0  0  0  0  0
  -20.9046   11.6342  -16.0301 C   0  0  0  0  0  0  0  0  0  0  0  0
  -19.3238    9.7034  -16.1419 C   0  0  0  0  0  0  0  0  0  0  0  0
  -18.3148    9.3801  -17.0146 N   0  0  0  0  0  0  0  0  0  0  0  0
  -18.2214   10.2637  -18.0042 C   0  0  0  0  0  0  0  0  0  0  0  0
  -17.4072   10.4033  -19.1134 C   0  0  0  0  0  0  0  0  0  0  0  0
  -15.7145   12.3320  -23.0702 C   0  0  0  0  0  0  0  0  0  0  0  0
  -16.7127   12.5820  -22.1258 C   0  0  0  0  0  0  0  0  0  0  0  0
  -16.6925   11.6005  -21.1658 C   0  0  0  0  0  0  0  0  0  0  0  0
  -15.7051   10.7664  -21.5119 N   0  0  0  0  0  0  0  0  0  0  0  0
  -15.1273   11.2039  -22.6428 N   0  0  0  0  0  0  0  0  0  0  0  0
  -14.3405   10.6970  -23.0897 H   0  0  0  0  0  0  0  0  0  0  0  0
  -15.4223   13.1089  -24.2294 N   0  0  0  0  0  0  0  0  0  0  0  0
  -15.9973   12.8485  -25.0984 H   0  0  0  0  0  0  0  0  0  0  0  0
  -14.4504   14.1643  -24.2904 C   0  0  0  0  0  0  0  0  0  0  0  0
  -15.0335   15.5469  -24.4267 C   0  0  0  0  0  0  0  0  0  0  0  0
  -16.3497   15.4134  -25.1638 C   0  0  0  0  0  0  0  0  0  0  0  0
  -20.0115   17.5240  -22.0213 C   0  0  0  0  0  0  0  0  0  0  0  0
  -18.6088   17.3649  -22.3031 N   0  0  0  0  0  0  0  0  0  0  0  0
  -18.2734   15.9670  -22.4788 C   0  0  0  0  0  0  0  0  0  0  0  0
  -18.4226   15.6172  -23.9259 C   0  0  0  0  0  0  0  0  0  0  0  0
  -17.3826   16.2557  -24.6634 N   0  0  0  0  0  0  0  0  0  0  0  0
  -16.9596   17.5010  -24.1155 C   0  0  0  0  0  0  0  0  0  0  0  0
  -18.1708   18.1391  -23.4258 C   0  0  0  0  0  0  0  0  0  0  0  0
  -19.6532    8.8427  -15.0783 N   0  0  0  0  0  0  0  0  0  0  0  0
  -19.0804    9.0564  -14.1507 H   0  0  0  0  0  0  0  0  0  0  0  0
  -20.5261    7.8009  -14.9384 C   0  0  0  0  0  0  0  0  0  0  0  0
  -21.0910    7.5746  -13.6599 C   0  0  0  0  0  0  0  0  0  0  0  0
  -20.7392    8.7004  -12.3589 Cl  0  0  0  0  0  0  0  0  0  0  0  0
  -21.9075    6.4961  -13.4163 C   0  0  0  0  0  0  0  0  0  0  0  0
  -22.2162    5.5884  -14.3907 C   0  0  0  0  0  0  0  0  0  0  0  0
  -21.6805    5.7831  -15.6410 C   0  0  0  0  0  0  0  0  0  0  0  0
  -22.0557    4.6439  -16.9035 Cl  0  0  0  0  0  0  0  0  0  0  0  0
  -20.8480    6.8838  -15.8833 C   0  0  0  0  0  0  0  0  0  0  0  0
 22 23  1  0  0  0
 23 24  1  0  0  0
 24 25  1  0  0  0
 25 26  1  0  0  0
 26 21  1  0  0  0
 21 20  1  0  0  0
 20 19  1  0  0  0
 19 17  1  0  0  0
 17 11  1  0  0  0
 11 12  2  0  0  0
 12 13  1  0  0  0
 13 14  2  0  0  0
 14 15  1  0  0  0
 13  1  1  0  0  0
  1  2  2  0  0  0
  2  3  1  0  0  0
  3  4  2  0  0  0
  4  5  1  0  0  0
  5  6  1  0  0  0
  5  7  1  0  0  0
  7 29  1  0  0  0
 29 31  1  0  0  0
 31 32  2  0  0  0
 32 33  1  0  0  0
 32 34  1  0  0  0
 34 35  2  0  0  0
 35 36  1  0  0  0
 36 37  1  0  0  0
 36 38  2  0  0  0
  7  8  2  0  0  0
  8  9  1  0  0  0
  9 10  2  0  0  0
 26 27  1  0  0  0
 27 28  1  0  0  0
 28 23  1  0  0  0
 15 11  1  0  0  0
 10  1  1  0  0  0
  9  4  1  0  0  0
 38 31  1  0  0  0
 17 18  1  0  0  0
 15 16  1  0  0  0
 29 30  1  0  0  0
M  END
> <minimizedAffinity>
-8.56375

> <CNNscore>
0.7292322516

> <CNNaffinity>
7.5048737526

> <CNN_VS>
5.4727959633

> <CNNaffinity_variance>
0.1081604734

$$$$
[H]c1c([H])c(Cl)c(N([H])c2nc3c([H])c(-c4nn([H])c(N([H])C([H])([H])C([H])([H])C([H])([H])N5C([H])([H])C([H])([H])N(C([H])([H])[H])C([H])([H])C5([H])[H])c4[H])c([H])c([H])c3n2C([H])([H])[H])c([H])c1Cl


 38 42  0  0  0  0  0  0  0  0999 V2000
  -17.4375   11.2377  -19.9513 C   0  0  0  0  0  0  0  0  0  0  0  0
  -18.3281   12.1916  -19.5068 C   0  0  0  0  0  0  0  0  0  0  0  0
  -19.1301   12.0248  -18.4097 C   0  0  0  0  0  0  0  0  0  0  0  0
  -19.0496   10.8342  -17.7000 C   0  0  0  0  0  0  0  0  0  0  0  0
  -19.7088   10.3757  -16.5819 N   0  0  0  0  0  0  0  0  0  0  0  0
  -20.6433   11.2163  -15.8659 C   0  0  0  0  0  0  0  0  0  0  0  0
  -19.2799    9.1681  -16.2968 C   0  0  0  0  0  0  0  0  0  0  0  0
  -18.3349    8.8656  -17.2452 N   0  0  0  0  0  0  0  0  0  0  0  0
  -18.1749    9.8613  -18.1123 C   0  0  0  0  0  0  0  0  0  0  0  0
  -17.3808   10.0667  -19.2257 C   0  0  0  0  0  0  0  0  0  0  0  0
  -15.6795   12.2761  -23.0255 C   0  0  0  0  0  0  0  0  0  0  0  0
  -16.6781   12.4542  -22.0654 C   0  0  0  0  0  0  0  0  0  0  0  0
  -16.5988   11.4527  -21.1295 C   0  0  0  0  0  0  0  0  0  0  0  0
  -15.5754   10.6769  -21.5053 N   0  0  0  0  0  0  0  0  0  0  0  0
  -15.0326   11.1688  -22.6312 N   0  0  0  0  0  0  0  0  0  0  0  0
  -14.2268   10.7122  -23.0980 H   0  0  0  0  0  0  0  0  0  0  0  0
  -15.4391   13.0934  -24.1687 N   0  0  0  0  0  0  0  0  0  0  0  0
  -16.0623   12.8725  -25.0150 H   0  0  0  0  0  0  0  0  0  0  0  0
  -14.4584   14.1401  -24.2417 C   0  0  0  0  0  0  0  0  0  0  0  0
  -14.8107   15.2655  -25.1794 C   0  0  0  0  0  0  0  0  0  0  0  0
  -16.2489   15.0644  -25.6091 C   0  0  0  0  0  0  0  0  0  0  0  0
  -19.4739   17.4360  -22.1865 C   0  0  0  0  0  0  0  0  0  0  0  0
  -18.1148   17.1560  -22.5695 N   0  0  0  0  0  0  0  0  0  0  0  0
  -17.9220   15.7372  -22.7870 C   0  0  0  0  0  0  0  0  0  0  0  0
  -18.2031   15.4309  -24.2243 C   0  0  0  0  0  0  0  0  0  0  0  0
  -17.1629   15.9869  -25.0254 N   0  0  0  0  0  0  0  0  0  0  0  0
  -16.5903   17.1778  -24.4926 C   0  0  0  0  0  0  0  0  0  0  0  0
  -17.6869   17.9093  -23.7102 C   0  0  0  0  0  0  0  0  0  0  0  0
  -19.6699    8.2090  -15.3437 N   0  0  0  0  0  0  0  0  0  0  0  0
  -20.2205    7.3520  -15.7872 H   0  0  0  0  0  0  0  0  0  0  0  0
  -19.5173    8.1022  -13.9900 C   0  0  0  0  0  0  0  0  0  0  0  0
  -19.7911    6.8505  -13.3873 C   0  0  0  0  0  0  0  0  0  0  0  0
  -20.1943    5.4802  -14.4088 Cl  0  0  0  0  0  0  0  0  0  0  0  0
  -19.7469    6.6853  -12.0235 C   0  0  0  0  0  0  0  0  0  0  0  0
  -19.4381    7.7158  -11.1801 C   0  0  0  0  0  0  0  0  0  0  0  0
  -19.1692    8.9423  -11.7382 C   0  0  0  0  0  0  0  0  0  0  0  0
  -18.7720   10.2747  -10.6896 Cl  0  0  0  0  0  0  0  0  0  0  0  0
  -19.2165    9.1050  -13.1291 C   0  0  0  0  0  0  0  0  0  0  0  0
 22 23  1  0  0  0
 23 24  1  0  0  0
 24 25  1  0  0  0
 25 26  1  0  0  0
 26 21  1  0  0  0
 21 20  1  0  0  0
 20 19  1  0  0  0
 19 17  1  0  0  0
 17 11  1  0  0  0
 11 12  2  0  0  0
 12 13  1  0  0  0
 13 14  2  0  0  0
 14 15  1  0  0  0
 13  1  1  0  0  0
  1  2  2  0  0  0
  2  3  1  0  0  0
  3  4  2  0  0  0
  4  5  1  0  0  0
  5  6  1  0  0  0
  5  7  1  0  0  0
  7 29  1  0  0  0
 29 31  1  0  0  0
 31 32  2  0  0  0
 32 33  1  0  0  0
 32 34  1  0  0  0
 34 35  2  0  0  0
 35 36  1  0  0  0
 36 37  1  0  0  0
 36 38  2  0  0  0
  7  8  2  0  0  0
  8  9  1  0  0  0
  9 10  2  0  0  0
 26 27  1  0  0  0
 27 28  1  0  0  0
 28 23  1  0  0  0
 15 11  1  0  0  0
 10  1  1  0  0  0
  9  4  1  0  0  0
 38 31  1  0  0  0
 17 18  1  0  0  0
 15 16  1  0  0  0
 29 30  1  0  0  0
M  END
> <minimizedAffinity>
-8.81649

> <CNNscore>
0.7125220299

> <CNNaffinity>
7.5070509911

> <CNN_VS>
5.3489394188

> <CNNaffinity_variance>
0.0958758369

$$$$
[H]c1c([H])c(Cl)c(N([H])c2nc3c([H])c(-c4nn([H])c(N([H])C([H])([H])C([H])([H])C([H])([H])N5C([H])([H])C([H])([H])N(C([H])([H])[H])C([H])([H])C5([H])[H])c4[H])c([H])c([H])c3n2C([H])([H])[H])c([H])c1Cl


 38 42  0  0  0  0  0  0  0  0999 V2000
  -17.3628   11.5480  -20.3169 C   0  0  0  0  0  0  0  0  0  0  0  0
  -18.2873   12.4880  -19.9141 C   0  0  0  0  0  0  0  0  0  0  0  0
  -19.0989   12.3313  -18.8225 C   0  0  0  0  0  0  0  0  0  0  0  0
  -18.9925   11.1663  -18.0745 C   0  0  0  0  0  0  0  0  0  0  0  0
  -19.6529   10.7232  -16.9510 N   0  0  0  0  0  0  0  0  0  0  0  0
  -20.6216   11.5572  -16.2737 C   0  0  0  0  0  0  0  0  0  0  0  0
  -19.1921    9.5387  -16.6225 C   0  0  0  0  0  0  0  0  0  0  0  0
  -18.2258    9.2354  -17.5489 N   0  0  0  0  0  0  0  0  0  0  0  0
  -18.0838   10.2079  -18.4449 C   0  0  0  0  0  0  0  0  0  0  0  0
  -17.2811   10.4024  -19.5541 C   0  0  0  0  0  0  0  0  0  0  0  0
  -15.5918   12.5457  -23.3972 C   0  0  0  0  0  0  0  0  0  0  0  0
  -16.6060   12.7257  -22.4538 C   0  0  0  0  0  0  0  0  0  0  0  0
  -16.5150   11.7514  -21.4906 C   0  0  0  0  0  0  0  0  0  0  0  0
  -15.4694   10.9901  -21.8338 N   0  0  0  0  0  0  0  0  0  0  0  0
  -14.9244   11.4647  -22.9660 N   0  0  0  0  0  0  0  0  0  0  0  0
  -14.1027   11.0148  -23.4111 H   0  0  0  0  0  0  0  0  0  0  0  0
  -15.3564   13.3380  -24.5589 N   0  0  0  0  0  0  0  0  0  0  0  0
  -15.9200   13.0415  -25.4237 H   0  0  0  0  0  0  0  0  0  0  0  0
  -14.4523   14.4517  -24.6272 C   0  0  0  0  0  0  0  0  0  0  0  0
  -14.8898   15.5591  -25.5505 C   0  0  0  0  0  0  0  0  0  0  0  0
  -15.4853   16.6560  -24.6928 C   0  0  0  0  0  0  0  0  0  0  0  0
  -18.8342   16.5134  -20.6303 C   0  0  0  0  0  0  0  0  0  0  0  0
  -18.6096   16.9081  -21.9964 N   0  0  0  0  0  0  0  0  0  0  0  0
  -17.3789   17.6615  -22.1199 C   0  0  0  0  0  0  0  0  0  0  0  0
  -16.2599   16.7079  -22.3976 C   0  0  0  0  0  0  0  0  0  0  0  0
  -16.4124   16.1909  -23.7176 N   0  0  0  0  0  0  0  0  0  0  0  0
  -17.7662   16.0818  -24.1479 C   0  0  0  0  0  0  0  0  0  0  0  0
  -18.6253   15.8042  -22.9090 C   0  0  0  0  0  0  0  0  0  0  0  0
  -19.5663    8.5983  -15.6446 N   0  0  0  0  0  0  0  0  0  0  0  0
  -19.5974    7.5569  -16.0301 H   0  0  0  0  0  0  0  0  0  0  0  0
  -19.8990    8.6881  -14.3223 C   0  0  0  0  0  0  0  0  0  0  0  0
  -21.2734    8.7267  -13.9842 C   0  0  0  0  0  0  0  0  0  0  0  0
  -22.4714    8.5407  -15.2546 Cl  0  0  0  0  0  0  0  0  0  0  0  0
  -21.6887    8.9051  -12.6862 C   0  0  0  0  0  0  0  0  0  0  0  0
  -20.8013    9.0543  -11.6572 C   0  0  0  0  0  0  0  0  0  0  0  0
  -19.4607    9.0221  -11.9572 C   0  0  0  0  0  0  0  0  0  0  0  0
  -18.3056    9.2090  -10.6675 Cl  0  0  0  0  0  0  0  0  0  0  0  0
  -19.0431    8.8409  -13.2823 C   0  0  0  0  0  0  0  0  0  0  0  0
 22 23  1  0  0  0
 23 24  1  0  0  0
 24 25  1  0  0  0
 25 26  1  0  0  0
 26 21  1  0  0  0
 21 20  1  0  0  0
 20 19  1  0  0  0
 19 17  1  0  0  0
 17 11  1  0  0  0
 11 12  2  0  0  0
 12 13  1  0  0  0
 13 14  2  0  0  0
 14 15  1  0  0  0
 13  1  1  0  0  0
  1  2  2  0  0  0
  2  3  1  0  0  0
  3  4  2  0  0  0
  4  5  1  0  0  0
  5  6  1  0  0  0
  5  7  1  0  0  0
  7 29  1  0  0  0
 29 31  1  0  0  0
 31 32  2  0  0  0
 32 33  1  0  0  0
 32 34  1  0  0  0
 34 35  2  0  0  0
 35 36  1  0  0  0
 36 37  1  0  0  0
 36 38  2  0  0  0
  7  8  2  0  0  0
  8  9  1  0  0  0
  9 10  2  0  0  0
 26 27  1  0  0  0
 27 28  1  0  0  0
 28 23  1  0  0  0
 15 11  1  0  0  0
 10  1  1  0  0  0
  9  4  1  0  0  0
 38 31  1  0  0  0
 17 18  1  0  0  0
 15 16  1  0  0  0
 29 30  1  0  0  0
M  END
> <minimizedAffinity>
-8.68535

> <CNNscore>
0.6811089516

> <CNNaffinity>
7.5399246216

> <CNN_VS>
5.1355099678

> <CNNaffinity_variance>
0.0996218696

$$$$
[H]c1c([H])c(Cl)c(N([H])c2nc3c([H])c(-c4nn([H])c(N([H])C([H])([H])C([H])([H])C([H])([H])N5C([H])([H])C([H])([H])N(C([H])([H])[H])C([H])([H])C5([H])[H])c4[H])c([H])c([H])c3n2C([H])([H])[H])c([H])c1Cl


 38 42  0  0  0  0  0  0  0  0999 V2000
  -17.6822   10.9255  -19.3045 C   0  0  0  0  0  0  0  0  0  0  0  0
  -18.5351   11.9702  -19.0184 C   0  0  0  0  0  0  0  0  0  0  0  0
  -19.4307   11.9537  -17.9828 C   0  0  0  0  0  0  0  0  0  0  0  0
  -19.4908   10.8286  -17.1715 C   0  0  0  0  0  0  0  0  0  0  0  0
  -20.2668   10.5149  -16.0786 N   0  0  0  0  0  0  0  0  0  0  0  0
  -21.1926   11.4741  -15.5171 C   0  0  0  0  0  0  0  0  0  0  0  0
  -19.9483    9.3127  -15.6580 C   0  0  0  0  0  0  0  0  0  0  0  0
  -18.9555    8.8669  -16.4945 N   0  0  0  0  0  0  0  0  0  0  0  0
  -18.6577    9.7689  -17.4254 C   0  0  0  0  0  0  0  0  0  0  0  0
  -17.7659    9.8229  -18.4811 C   0  0  0  0  0  0  0  0  0  0  0  0
  -15.6570   11.5313  -22.3295 C   0  0  0  0  0  0  0  0  0  0  0  0
  -16.7412   11.8290  -21.5009 C   0  0  0  0  0  0  0  0  0  0  0  0
  -16.7404   10.9804  -20.4214 C   0  0  0  0  0  0  0  0  0  0  0  0
  -15.6806   10.1795  -20.5827 N   0  0  0  0  0  0  0  0  0  0  0  0
  -15.0404   10.5095  -21.7165 N   0  0  0  0  0  0  0  0  0  0  0  0
  -14.1915   10.0058  -22.0349 H   0  0  0  0  0  0  0  0  0  0  0  0
  -15.3189   12.1738  -23.5565 N   0  0  0  0  0  0  0  0  0  0  0  0
  -15.4645   11.5695  -24.4323 H   0  0  0  0  0  0  0  0  0  0  0  0
  -14.8200   13.5154  -23.6738 C   0  0  0  0  0  0  0  0  0  0  0  0
  -15.8564   14.5385  -24.0597 C   0  0  0  0  0  0  0  0  0  0  0  0
  -15.1880   15.8970  -24.0238 C   0  0  0  0  0  0  0  0  0  0  0  0
  -19.3535   18.8836  -22.8123 C   0  0  0  0  0  0  0  0  0  0  0  0
  -18.6458   17.6505  -22.5869 N   0  0  0  0  0  0  0  0  0  0  0  0
  -18.3485   16.9898  -23.8410 C   0  0  0  0  0  0  0  0  0  0  0  0
  -17.0137   17.4612  -24.3255 C   0  0  0  0  0  0  0  0  0  0  0  0
  -16.0009   16.9289  -23.4748 N   0  0  0  0  0  0  0  0  0  0  0  0
  -16.4127   16.7443  -22.1234 C   0  0  0  0  0  0  0  0  0  0  0  0
  -17.4571   17.8206  -21.8061 C   0  0  0  0  0  0  0  0  0  0  0  0
  -20.4791    8.4694  -14.6642 N   0  0  0  0  0  0  0  0  0  0  0  0
  -21.5819    8.3538  -14.7335 H   0  0  0  0  0  0  0  0  0  0  0  0
  -19.9319    7.7604  -13.6322 C   0  0  0  0  0  0  0  0  0  0  0  0
  -19.2637    8.4802  -12.6123 C   0  0  0  0  0  0  0  0  0  0  0  0
  -19.2718   10.2356  -12.6597 Cl  0  0  0  0  0  0  0  0  0  0  0  0
  -18.6116    7.8361  -11.5881 C   0  0  0  0  0  0  0  0  0  0  0  0
  -18.5733    6.4725  -11.4999 C   0  0  0  0  0  0  0  0  0  0  0  0
  -19.2126    5.7487  -12.4775 C   0  0  0  0  0  0  0  0  0  0  0  0
  -19.1818    4.0097  -12.3923 Cl  0  0  0  0  0  0  0  0  0  0  0  0
  -19.8750    6.4108  -13.5197 C   0  0  0  0  0  0  0  0  0  0  0  0
 22 23  1  0  0  0
 23 24  1  0  0  0
 24 25  1  0  0  0
 25 26  1  0  0  0
 26 21  1  0  0  0
 21 20  1  0  0  0
 20 19  1  0  0  0
 19 17  1  0  0  0
 17 11  1  0  0  0
 11 12  2  0  0  0
 12 13  1  0  0  0
 13 14  2  0  0  0
 14 15  1  0  0  0
 13  1  1  0  0  0
  1  2  2  0  0  0
  2  3  1  0  0  0
  3  4  2  0  0  0
  4  5  1  0  0  0
  5  6  1  0  0  0
  5  7  1  0  0  0
  7 29  1  0  0  0
 29 31  1  0  0  0
 31 32  2  0  0  0
 32 33  1  0  0  0
 32 34  1  0  0  0
 34 35  2  0  0  0
 35 36  1  0  0  0
 36 37  1  0  0  0
 36 38  2  0  0  0
  7  8  2  0  0  0
  8  9  1  0  0  0
  9 10  2  0  0  0
 26 27  1  0  0  0
 27 28  1  0  0  0
 28 23  1  0  0  0
 15 11  1  0  0  0
 10  1  1  0  0  0
  9  4  1  0  0  0
 38 31  1  0  0  0
 17 18  1  0  0  0
 15 16  1  0  0  0
 29 30  1  0  0  0
M  END
> <minimizedAffinity>
-8.53491

> <CNNscore>
0.6448503733

> <CNNaffinity>
7.3961915970

> <CNN_VS>
4.7694368362

> <CNNaffinity_variance>
0.0910610557

$$$$
[H]c1c([H])c(Cl)c(N([H])c2nc3c([H])c(-c4nn([H])c(N([H])C([H])([H])C([H])([H])C([H])([H])N5C([H])([H])C([H])([H])N(C([H])([H])[H])C([H])([H])C5([H])[H])c4[H])c([H])c([H])c3n2C([H])([H])[H])c([H])c1Cl


 38 42  0  0  0  0  0  0  0  0999 V2000
  -18.8844   11.1699  -17.9101 C   0  0  0  0  0  0  0  0  0  0  0  0
  -19.8655   12.1372  -17.8622 C   0  0  0  0  0  0  0  0  0  0  0  0
  -19.8977   13.2239  -18.6946 C   0  0  0  0  0  0  0  0  0  0  0  0
  -18.8923   13.3682  -19.6414 C   0  0  0  0  0  0  0  0  0  0  0  0
  -18.6516   14.3283  -20.5980 N   0  0  0  0  0  0  0  0  0  0  0  0
  -19.5782   15.4176  -20.8159 C   0  0  0  0  0  0  0  0  0  0  0  0
  -17.5563   14.0169  -21.2513 C   0  0  0  0  0  0  0  0  0  0  0  0
  -17.1054   12.8429  -20.7013 N   0  0  0  0  0  0  0  0  0  0  0  0
  -17.8988   12.4257  -19.7190 C   0  0  0  0  0  0  0  0  0  0  0  0
  -17.9005   11.3414  -18.8605 C   0  0  0  0  0  0  0  0  0  0  0  0
  -19.3543    8.5667  -15.3367 C   0  0  0  0  0  0  0  0  0  0  0  0
  -19.7038    9.7832  -15.9272 C   0  0  0  0  0  0  0  0  0  0  0  0
  -18.8838   10.0241  -17.0019 C   0  0  0  0  0  0  0  0  0  0  0  0
  -18.0495    8.9802  -17.0704 N   0  0  0  0  0  0  0  0  0  0  0  0
  -18.3318    8.1176  -16.0803 N   0  0  0  0  0  0  0  0  0  0  0  0
  -17.7963    7.2394  -15.9471 H   0  0  0  0  0  0  0  0  0  0  0  0
  -19.9550    7.9713  -14.1890 N   0  0  0  0  0  0  0  0  0  0  0  0
  -20.4532    8.6631  -13.5358 H   0  0  0  0  0  0  0  0  0  0  0  0
  -19.9286    6.5693  -13.8791 C   0  0  0  0  0  0  0  0  0  0  0  0
  -20.7564    6.1755  -12.6834 C   0  0  0  0  0  0  0  0  0  0  0  0
  -20.8924    7.4000  -11.8027 C   0  0  0  0  0  0  0  0  0  0  0  0
  -25.2349   10.2477  -12.6816 C   0  0  0  0  0  0  0  0  0  0  0  0
  -24.3692    9.1934  -13.1411 N   0  0  0  0  0  0  0  0  0  0  0  0
  -22.9888    9.6311  -13.1605 C   0  0  0  0  0  0  0  0  0  0  0  0
  -22.3695    9.3204  -11.8344 C   0  0  0  0  0  0  0  0  0  0  0  0
  -22.2198    7.9074  -11.7160 N   0  0  0  0  0  0  0  0  0  0  0  0
  -23.2192    7.1562  -12.3992 C   0  0  0  0  0  0  0  0  0  0  0  0
  -24.5097    7.9835  -12.3875 C   0  0  0  0  0  0  0  0  0  0  0  0
  -16.8053   14.6787  -22.2405 N   0  0  0  0  0  0  0  0  0  0  0  0
  -16.1216   15.4501  -21.8260 H   0  0  0  0  0  0  0  0  0  0  0  0
  -16.7336   14.5777  -23.6013 C   0  0  0  0  0  0  0  0  0  0  0  0
  -16.3634   15.7310  -24.3345 C   0  0  0  0  0  0  0  0  0  0  0  0
  -15.9048   17.1859  -23.4645 Cl  0  0  0  0  0  0  0  0  0  0  0  0
  -16.3541   15.7358  -25.7089 C   0  0  0  0  0  0  0  0  0  0  0  0
  -16.7005   14.6326  -26.4380 C   0  0  0  0  0  0  0  0  0  0  0  0
  -17.0655   13.4994  -25.7518 C   0  0  0  0  0  0  0  0  0  0  0  0
  -17.5117   12.0776  -26.6529 Cl  0  0  0  0  0  0  0  0  0  0  0  0
  -17.0739   13.5007  -24.3507 C   0  0  0  0  0  0  0  0  0  0  0  0
 22 23  1  0  0  0
 23 24  1  0  0  0
 24 25  1  0  0  0
 25 26  1  0  0  0
 26 21  1  0  0  0
 21 20  1  0  0  0
 20 19  1  0  0  0
 19 17  1  0  0  0
 17 11  1  0  0  0
 11 12  2  0  0  0
 12 13  1  0  0  0
 13 14  2  0  0  0
 14 15  1  0  0  0
 13  1  1  0  0  0
  1  2  2  0  0  0
  2  3  1  0  0  0
  3  4  2  0  0  0
  4  5  1  0  0  0
  5  6  1  0  0  0
  5  7  1  0  0  0
  7 29  1  0  0  0
 29 31  1  0  0  0
 31 32  2  0  0  0
 32 33  1  0  0  0
 32 34  1  0  0  0
 34 35  2  0  0  0
 35 36  1  0  0  0
 36 37  1  0  0  0
 36 38  2  0  0  0
  7  8  2  0  0  0
  8  9  1  0  0  0
  9 10  2  0  0  0
 26 27  1  0  0  0
 27 28  1  0  0  0
 28 23  1  0  0  0
 15 11  1  0  0  0
 10  1  1  0  0  0
  9  4  1  0  0  0
 38 31  1  0  0  0
 17 18  1  0  0  0
 15 16  1  0  0  0
 29 30  1  0  0  0
M  END
> <minimizedAffinity>
-7.48863

> <CNNscore>
0.4542747140

> <CNNaffinity>
7.0981101990

> <CNN_VS>
3.2244920731

> <CNNaffinity_variance>
0.1988133192

$$$$
[H]c1c([H])c(Cl)c(N([H])c2nc3c([H])c(-c4nn([H])c(N([H])C([H])([H])C([H])([H])C([H])([H])N5C([H])([H])C([H])([H])N(C([H])([H])[H])C([H])([H])C5([H])[H])c4[H])c([H])c([H])c3n2C([H])([H])[H])c([H])c1Cl


 38 42  0  0  0  0  0  0  0  0999 V2000
  -18.1472   10.5987  -18.5378 C   0  0  0  0  0  0  0  0  0  0  0  0
  -17.0009    9.9518  -18.9480 C   0  0  0  0  0  0  0  0  0  0  0  0
  -16.3108   10.2826  -20.0834 C   0  0  0  0  0  0  0  0  0  0  0  0
  -16.7830   11.3243  -20.8707 C   0  0  0  0  0  0  0  0  0  0  0  0
  -16.3242   11.8810  -22.0431 N   0  0  0  0  0  0  0  0  0  0  0  0
  -15.0863   11.4397  -22.6478 C   0  0  0  0  0  0  0  0  0  0  0  0
  -17.1313   12.8526  -22.4006 C   0  0  0  0  0  0  0  0  0  0  0  0
  -18.1076   12.9107  -21.4375 N   0  0  0  0  0  0  0  0  0  0  0  0
  -17.9209   11.9915  -20.4946 C   0  0  0  0  0  0  0  0  0  0  0  0
  -18.5906   11.6283  -19.3405 C   0  0  0  0  0  0  0  0  0  0  0  0
  -20.3347   10.0831  -15.6106 C   0  0  0  0  0  0  0  0  0  0  0  0
  -20.0043   10.7535  -16.7905 C   0  0  0  0  0  0  0  0  0  0  0  0
  -18.8574   10.2144  -17.3190 C   0  0  0  0  0  0  0  0  0  0  0  0
  -18.4911    9.2355  -16.4835 N   0  0  0  0  0  0  0  0  0  0  0  0
  -19.3703    9.1608  -15.4708 N   0  0  0  0  0  0  0  0  0  0  0  0
  -19.2683    8.4699  -14.7041 H   0  0  0  0  0  0  0  0  0  0  0  0
  -21.4438   10.3542  -14.7568 N   0  0  0  0  0  0  0  0  0  0  0  0
  -22.0714    9.5059  -14.5566 H   0  0  0  0  0  0  0  0  0  0  0  0
  -21.7478   11.6349  -14.1826 C   0  0  0  0  0  0  0  0  0  0  0  0
  -21.2572   11.8216  -12.7704 C   0  0  0  0  0  0  0  0  0  0  0  0
  -22.0083   10.8397  -11.8957 C   0  0  0  0  0  0  0  0  0  0  0  0
  -17.8072    9.1770   -9.1891 C   0  0  0  0  0  0  0  0  0  0  0  0
  -18.7577   10.2346   -9.4132 N   0  0  0  0  0  0  0  0  0  0  0  0
  -18.8486   10.5565  -10.8223 C   0  0  0  0  0  0  0  0  0  0  0  0
  -19.9152    9.7077  -11.4392 C   0  0  0  0  0  0  0  0  0  0  0  0
  -21.1855   10.1466  -10.9632 N   0  0  0  0  0  0  0  0  0  0  0  0
  -21.1611   10.6763   -9.6408 C   0  0  0  0  0  0  0  0  0  0  0  0
  -20.0524    9.9495   -8.8709 C   0  0  0  0  0  0  0  0  0  0  0  0
  -17.1999   13.6761  -23.5397 N   0  0  0  0  0  0  0  0  0  0  0  0
  -17.1217   13.1102  -24.4926 H   0  0  0  0  0  0  0  0  0  0  0  0
  -17.3429   15.0219  -23.7285 C   0  0  0  0  0  0  0  0  0  0  0  0
  -16.1837   15.7775  -24.0285 C   0  0  0  0  0  0  0  0  0  0  0  0
  -14.6556   14.9433  -24.2577 Cl  0  0  0  0  0  0  0  0  0  0  0  0
  -16.2292   17.1463  -24.1451 C   0  0  0  0  0  0  0  0  0  0  0  0
  -17.3904   17.8480  -23.9780 C   0  0  0  0  0  0  0  0  0  0  0  0
  -18.5308   17.1396  -23.6847 C   0  0  0  0  0  0  0  0  0  0  0  0
  -20.0259   18.0054  -23.4666 Cl  0  0  0  0  0  0  0  0  0  0  0  0
  -18.4783   15.7445  -23.5662 C   0  0  0  0  0  0  0  0  0  0  0  0
 22 23  1  0  0  0
 23 24  1  0  0  0
 24 25  1  0  0  0
 25 26  1  0  0  0
 26 21  1  0  0  0
 21 20  1  0  0  0
 20 19  1  0  0  0
 19 17  1  0  0  0
 17 11  1  0  0  0
 11 12  2  0  0  0
 12 13  1  0  0  0
 13 14  2  0  0  0
 14 15  1  0  0  0
 13  1  1  0  0  0
  1  2  2  0  0  0
  2  3  1  0  0  0
  3  4  2  0  0  0
  4  5  1  0  0  0
  5  6  1  0  0  0
  5  7  1  0  0  0
  7 29  1  0  0  0
 29 31  1  0  0  0
 31 32  2  0  0  0
 32 33  1  0  0  0
 32 34  1  0  0  0
 34 35  2  0  0  0
 35 36  1  0  0  0
 36 37  1  0  0  0
 36 38  2  0  0  0
  7  8  2  0  0  0
  8  9  1  0  0  0
  9 10  2  0  0  0
 26 27  1  0  0  0
 27 28  1  0  0  0
 28 23  1  0  0  0
 15 11  1  0  0  0
 10  1  1  0  0  0
  9  4  1  0  0  0
 38 31  1  0  0  0
 17 18  1  0  0  0
 15 16  1  0  0  0
 29 30  1  0  0  0
M  END
> <minimizedAffinity>
-7.90500

> <CNNscore>
0.4068373442

> <CNNaffinity>
7.0492734909

> <CNN_VS>
2.8679077625

> <CNNaffinity_variance>
0.0011463586

$$$$
[H]c1c([H])c(Cl)c(N([H])c2nc3c([H])c(-c4nn([H])c(N([H])C([H])([H])C([H])([H])C([H])([H])N5C([H])([H])C([H])([H])N(C([H])([H])[H])C([H])([H])C5([H])[H])c4[H])c([H])c([H])c3n2C([H])([H])[H])c([H])c1Cl


 38 42  0  0  0  0  0  0  0  0999 V2000
  -18.1343   10.4524  -18.3646 C   0  0  0  0  0  0  0  0  0  0  0  0
  -17.3215    9.6964  -19.1822 C   0  0  0  0  0  0  0  0  0  0  0  0
  -16.7207   10.1844  -20.3117 C   0  0  0  0  0  0  0  0  0  0  0  0
  -16.9356   11.5109  -20.6609 C   0  0  0  0  0  0  0  0  0  0  0  0
  -16.4844   12.2771  -21.7117 N   0  0  0  0  0  0  0  0  0  0  0  0
  -15.5459   11.7469  -22.6765 C   0  0  0  0  0  0  0  0  0  0  0  0
  -16.9782   13.4885  -21.6018 C   0  0  0  0  0  0  0  0  0  0  0  0
  -17.7460   13.4851  -20.4639 N   0  0  0  0  0  0  0  0  0  0  0  0
  -17.7387   12.2944  -19.8716 C   0  0  0  0  0  0  0  0  0  0  0  0
  -18.3282   11.7654  -18.7379 C   0  0  0  0  0  0  0  0  0  0  0  0
  -20.0717    9.5487  -15.3564 C   0  0  0  0  0  0  0  0  0  0  0  0
  -19.7889   10.4103  -16.4187 C   0  0  0  0  0  0  0  0  0  0  0  0
  -18.7599    9.8940  -17.1669 C   0  0  0  0  0  0  0  0  0  0  0  0
  -18.4178    8.7420  -16.5783 N   0  0  0  0  0  0  0  0  0  0  0  0
  -19.1986    8.5408  -15.5040 N   0  0  0  0  0  0  0  0  0  0  0  0
  -19.0951    7.7055  -14.8980 H   0  0  0  0  0  0  0  0  0  0  0  0
  -21.0597    9.7357  -14.3457 N   0  0  0  0  0  0  0  0  0  0  0  0
  -21.7322    8.9078  -14.2196 H   0  0  0  0  0  0  0  0  0  0  0  0
  -21.1940   10.9116  -13.5322 C   0  0  0  0  0  0  0  0  0  0  0  0
  -20.3688   10.8998  -12.2717 C   0  0  0  0  0  0  0  0  0  0  0  0
  -20.6480    9.5931  -11.5590 C   0  0  0  0  0  0  0  0  0  0  0  0
  -16.7449    6.1363  -10.8132 C   0  0  0  0  0  0  0  0  0  0  0  0
  -18.1354    6.4493  -10.6108 N   0  0  0  0  0  0  0  0  0  0  0  0
  -18.2884    7.7693  -10.0349 C   0  0  0  0  0  0  0  0  0  0  0  0
  -18.4089    8.7649  -11.1454 C   0  0  0  0  0  0  0  0  0  0  0  0
  -19.6683    8.5860  -11.7893 N   0  0  0  0  0  0  0  0  0  0  0  0
  -20.1424    7.2425  -11.7793 C   0  0  0  0  0  0  0  0  0  0  0  0
  -18.9189    6.3192  -11.8027 C   0  0  0  0  0  0  0  0  0  0  0  0
  -16.9317   14.6251  -22.4303 N   0  0  0  0  0  0  0  0  0  0  0  0
  -17.4745   15.4967  -22.0062 H   0  0  0  0  0  0  0  0  0  0  0  0
  -16.3624   14.8899  -23.6439 C   0  0  0  0  0  0  0  0  0  0  0  0
  -17.2181   15.0243  -24.7640 C   0  0  0  0  0  0  0  0  0  0  0  0
  -18.9565   14.9626  -24.5235 Cl  0  0  0  0  0  0  0  0  0  0  0  0
  -16.7184   15.2028  -26.0319 C   0  0  0  0  0  0  0  0  0  0  0  0
  -15.3750   15.2594  -26.2783 C   0  0  0  0  0  0  0  0  0  0  0  0
  -14.5213   15.1304  -25.2093 C   0  0  0  0  0  0  0  0  0  0  0  0
  -12.8043   15.1989  -25.4912 Cl  0  0  0  0  0  0  0  0  0  0  0  0
  -15.0363   14.9478  -23.9191 C   0  0  0  0  0  0  0  0  0  0  0  0
 22 23  1  0  0  0
 23 24  1  0  0  0
 24 25  1  0  0  0
 25 26  1  0  0  0
 26 21  1  0  0  0
 21 20  1  0  0  0
 20 19  1  0  0  0
 19 17  1  0  0  0
 17 11  1  0  0  0
 11 12  2  0  0  0
 12 13  1  0  0  0
 13 14  2  0  0  0
 14 15  1  0  0  0
 13  1  1  0  0  0
  1  2  2  0  0  0
  2  3  1  0  0  0
  3  4  2  0  0  0
  4  5  1  0  0  0
  5  6  1  0  0  0
  5  7  1  0  0  0
  7 29  1  0  0  0
 29 31  1  0  0  0
 31 32  2  0  0  0
 32 33  1  0  0  0
 32 34  1  0  0  0
 34 35  2  0  0  0
 35 36  1  0  0  0
 36 37  1  0  0  0
 36 38  2  0  0  0
  7  8  2  0  0  0
  8  9  1  0  0  0
  9 10  2  0  0  0
 26 27  1  0  0  0
 27 28  1  0  0  0
 28 23  1  0  0  0
 15 11  1  0  0  0
 10  1  1  0  0  0
  9  4  1  0  0  0
 38 31  1  0  0  0
 17 18  1  0  0  0
 15 16  1  0  0  0
 29 30  1  0  0  0
M  END
> <minimizedAffinity>
-7.70298

> <CNNscore>
0.3915943503

> <CNNaffinity>
7.0299973488

> <CNN_VS>
2.7529072762

> <CNNaffinity_variance>
0.1711708009

$$$$
[H]c1c([H])c(Cl)c(N([H])c2nc3c([H])c(-c4nn([H])c(N([H])C([H])([H])C([H])([H])C([H])([H])N5C([H])([H])C([H])([H])N(C([H])([H])[H])C([H])([H])C5([H])[H])c4[H])c([H])c([H])c3n2C([H])([H])[H])c([H])c1Cl


 38 42  0  0  0  0  0  0  0  0999 V2000
  -17.1820   12.8602  -21.5327 C   0  0  0  0  0  0  0  0  0  0  0  0
  -16.4856   12.9062  -22.7216 C   0  0  0  0  0  0  0  0  0  0  0  0
  -16.5362   13.9658  -23.5873 C   0  0  0  0  0  0  0  0  0  0  0  0
  -17.3288   15.0575  -23.2589 C   0  0  0  0  0  0  0  0  0  0  0  0
  -17.5834   16.2456  -23.9059 N   0  0  0  0  0  0  0  0  0  0  0  0
  -16.9122   16.5843  -25.1418 C   0  0  0  0  0  0  0  0  0  0  0  0
  -18.4159   16.9575  -23.1825 C   0  0  0  0  0  0  0  0  0  0  0  0
  -18.6843   16.2092  -22.0635 N   0  0  0  0  0  0  0  0  0  0  0  0
  -18.0366   15.0478  -22.0840 C   0  0  0  0  0  0  0  0  0  0  0  0
  -17.9598   13.9588  -21.2350 C   0  0  0  0  0  0  0  0  0  0  0  0
  -17.3599   10.2814  -18.8987 C   0  0  0  0  0  0  0  0  0  0  0  0
  -17.7079   11.5315  -19.4151 C   0  0  0  0  0  0  0  0  0  0  0  0
  -17.1033   11.7087  -20.6351 C   0  0  0  0  0  0  0  0  0  0  0  0
  -16.3998   10.5936  -20.8634 N   0  0  0  0  0  0  0  0  0  0  0  0
  -16.5545    9.7491  -19.8304 N   0  0  0  0  0  0  0  0  0  0  0  0
  -16.0863    8.8241  -19.8019 H   0  0  0  0  0  0  0  0  0  0  0  0
  -17.7686    9.7303  -17.6489 N   0  0  0  0  0  0  0  0  0  0  0  0
  -16.9991    9.7017  -16.9002 H   0  0  0  0  0  0  0  0  0  0  0  0
  -19.0856    9.2378  -17.3569 C   0  0  0  0  0  0  0  0  0  0  0  0
  -19.6096    9.6168  -15.9961 C   0  0  0  0  0  0  0  0  0  0  0  0
  -20.4845    8.4786  -15.5138 C   0  0  0  0  0  0  0  0  0  0  0  0
  -25.4762    9.6434  -14.3031 C   0  0  0  0  0  0  0  0  0  0  0  0
  -24.4958    8.6119  -14.5204 N   0  0  0  0  0  0  0  0  0  0  0  0
  -23.8064    8.8122  -15.7782 C   0  0  0  0  0  0  0  0  0  0  0  0
  -22.5992    9.6612  -15.5323 C   0  0  0  0  0  0  0  0  0  0  0  0
  -21.6421    8.8994  -14.7998 N   0  0  0  0  0  0  0  0  0  0  0  0
  -22.2143    7.9368  -13.9190 C   0  0  0  0  0  0  0  0  0  0  0  0
  -23.5621    8.4892  -13.4412 C   0  0  0  0  0  0  0  0  0  0  0  0
  -19.0789   18.1793  -23.4023 N   0  0  0  0  0  0  0  0  0  0  0  0
  -18.3834   19.0276  -23.5781 H   0  0  0  0  0  0  0  0  0  0  0  0
  -20.3936   18.5488  -23.4476 C   0  0  0  0  0  0  0  0  0  0  0  0
  -20.6925   19.9281  -23.5611 C   0  0  0  0  0  0  0  0  0  0  0  0
  -19.3764   21.0745  -23.7548 Cl  0  0  0  0  0  0  0  0  0  0  0  0
  -21.9873   20.3877  -23.5241 C   0  0  0  0  0  0  0  0  0  0  0  0
  -23.0508   19.5417  -23.3761 C   0  0  0  0  0  0  0  0  0  0  0  0
  -22.7894   18.1974  -23.2623 C   0  0  0  0  0  0  0  0  0  0  0  0
  -24.1235   17.0943  -23.0731 Cl  0  0  0  0  0  0  0  0  0  0  0  0
  -21.4674   17.7348  -23.2998 C   0  0  0  0  0  0  0  0  0  0  0  0
 22 23  1  0  0  0
 23 24  1  0  0  0
 24 25  1  0  0  0
 25 26  1  0  0  0
 26 21  1  0  0  0
 21 20  1  0  0  0
 20 19  1  0  0  0
 19 17  1  0  0  0
 17 11  1  0  0  0
 11 12  2  0  0  0
 12 13  1  0  0  0
 13 14  2  0  0  0
 14 15  1  0  0  0
 13  1  1  0  0  0
  1  2  2  0  0  0
  2  3  1  0  0  0
  3  4  2  0  0  0
  4  5  1  0  0  0
  5  6  1  0  0  0
  5  7  1  0  0  0
  7 29  1  0  0  0
 29 31  1  0  0  0
 31 32  2  0  0  0
 32 33  1  0  0  0
 32 34  1  0  0  0
 34 35  2  0  0  0
 35 36  1  0  0  0
 36 37  1  0  0  0
 36 38  2  0  0  0
  7  8  2  0  0  0
  8  9  1  0  0  0
  9 10  2  0  0  0
 26 27  1  0  0  0
 27 28  1  0  0  0
 28 23  1  0  0  0
 15 11  1  0  0  0
 10  1  1  0  0  0
  9  4  1  0  0  0
 38 31  1  0  0  0
 17 18  1  0  0  0
 15 16  1  0  0  0
 29 30  1  0  0  0
M  END
> <minimizedAffinity>
-7.97881

> <CNNscore>
0.3836153746

> <CNNaffinity>
7.1167016029

> <CNN_VS>
2.7300760746

> <CNNaffinity_variance>
0.2011572868

$$$$
[H]c1c([H])c(Cl)c(N([H])c2nc3c([H])c(OC([H])([H])[H])c([H])c([H])c3n3c([H])nc([H])c23)c(C([H])([H])[H])c1[H]


 25 28  0  0  0  0  0  0  0  0999 V2000
  -19.9447   14.7694  -20.0362 C   0  0  0  0  0  0  0  0  0  0  0  0
  -19.7944   13.7923  -19.0755 C   0  0  0  0  0  0  0  0  0  0  0  0
  -18.8858   12.7698  -19.2479 C   0  0  0  0  0  0  0  0  0  0  0  0
  -18.1085   12.7124  -20.3956 C   0  0  0  0  0  0  0  0  0  0  0  0
  -18.2527   13.6855  -21.3609 C   0  0  0  0  0  0  0  0  0  0  0  0
  -19.1623   14.6969  -21.1734 C   0  0  0  0  0  0  0  0  0  0  0  0
  -17.4776   13.6032  -22.4748 N   0  0  0  0  0  0  0  0  0  0  0  0
  -16.5940   12.6204  -22.6566 C   0  0  0  0  0  0  0  0  0  0  0  0
  -16.4485   11.6490  -21.6955 C   0  0  0  0  0  0  0  0  0  0  0  0
  -15.6331   10.5224  -21.5944 C   0  0  0  0  0  0  0  0  0  0  0  0
  -15.9415    9.9558  -20.4175 N   0  0  0  0  0  0  0  0  0  0  0  0
  -16.8952   10.6662  -19.7925 C   0  0  0  0  0  0  0  0  0  0  0  0
  -17.2104   11.7249  -20.5945 N   0  0  0  0  0  0  0  0  0  0  0  0
  -21.0321   16.8302  -20.8066 C   0  0  0  0  0  0  0  0  0  0  0  0
  -20.8666   15.8083  -19.8630 O   0  0  0  0  0  0  0  0  0  0  0  0
  -15.8169   12.5789  -23.8237 N   0  0  0  0  0  0  0  0  0  0  0  0
  -15.1652   11.7620  -23.9522 H   0  0  0  0  0  0  0  0  0  0  0  0
  -15.8583   13.5729  -24.8398 C   0  0  0  0  0  0  0  0  0  0  0  0
  -14.9549   14.6131  -24.8096 C   0  0  0  0  0  0  0  0  0  0  0  0
  -13.9531   14.6778  -23.7153 C   0  0  0  0  0  0  0  0  0  0  0  0
  -14.9583   15.6065  -25.7813 C   0  0  0  0  0  0  0  0  0  0  0  0
  -15.8818   15.5603  -26.8030 C   0  0  0  0  0  0  0  0  0  0  0  0
  -16.7990   14.5303  -26.8591 C   0  0  0  0  0  0  0  0  0  0  0  0
  -16.7707   13.5509  -25.8724 C   0  0  0  0  0  0  0  0  0  0  0  0
  -17.9146   12.2102  -25.8877 Cl  0  0  0  0  0  0  0  0  0  0  0  0
 14 15  1  0  0  0
 15  1  1  0  0  0
  1  2  2  0  0  0
  2  3  1  0  0  0
  3  4  2  0  0  0
  4  5  1  0  0  0
  5  6  2  0  0  0
  5  7  1  0  0  0
  7  8  2  0  0  0
  8 16  1  0  0  0
 16 18  1  0  0  0
 18 19  2  0  0  0
 19 20  1  0  0  0
 19 21  1  0  0  0
 21 22  2  0  0  0
 22 23  1  0  0  0
 23 24  2  0  0  0
 24 25  1  0  0  0
  8  9  1  0  0  0
  9 10  2  0  0  0
 10 11  1  0  0  0
 11 12  2  0  0  0
 12 13  1  0  0  0
  6  1  1  0  0  0
 24 18  1  0  0  0
 13  9  1  0  0  0
 13  4  1  0  0  0
 16 17  1  0  0  0
M  END
> <minimizedAffinity>
-8.96470

> <CNNscore>
0.9365900159

> <CNNaffinity>
7.4837660789

> <CNN_VS>
7.0092206001

> <CNNaffinity_variance>
0.0904425904

$$$$
[H]c1c([H])c(Cl)c(N([H])c2nc3c([H])c(OC([H])([H])[H])c([H])c([H])c3n3c([H])nc([H])c23)c(C([H])([H])[H])c1[H]


 25 28  0  0  0  0  0  0  0  0999 V2000
  -19.8803   14.8207  -20.0071 C   0  0  0  0  0  0  0  0  0  0  0  0
  -19.6722   13.8852  -19.0162 C   0  0  0  0  0  0  0  0  0  0  0  0
  -18.7595   12.8667  -19.1905 C   0  0  0  0  0  0  0  0  0  0  0  0
  -18.0365   12.7712  -20.3707 C   0  0  0  0  0  0  0  0  0  0  0  0
  -18.2386   13.7026  -21.3663 C   0  0  0  0  0  0  0  0  0  0  0  0
  -19.1515   14.7107  -21.1764 C   0  0  0  0  0  0  0  0  0  0  0  0
  -17.5159   13.5837  -22.5116 N   0  0  0  0  0  0  0  0  0  0  0  0
  -16.6292   12.6042  -22.6957 C   0  0  0  0  0  0  0  0  0  0  0  0
  -16.4260   11.6743  -21.7044 C   0  0  0  0  0  0  0  0  0  0  0  0
  -15.5921   10.5618  -21.5971 C   0  0  0  0  0  0  0  0  0  0  0  0
  -15.8373   10.0402  -20.3850 N   0  0  0  0  0  0  0  0  0  0  0  0
  -16.7697   10.7649  -19.7444 C   0  0  0  0  0  0  0  0  0  0  0  0
  -17.1360   11.7865  -20.5723 N   0  0  0  0  0  0  0  0  0  0  0  0
  -20.8762   16.9549  -20.6972 C   0  0  0  0  0  0  0  0  0  0  0  0
  -20.8065   15.8555  -19.8320 O   0  0  0  0  0  0  0  0  0  0  0  0
  -15.9074   12.5238  -23.8959 N   0  0  0  0  0  0  0  0  0  0  0  0
  -15.3292   11.6604  -24.0655 H   0  0  0  0  0  0  0  0  0  0  0  0
  -15.9116   13.5375  -24.8932 C   0  0  0  0  0  0  0  0  0  0  0  0
  -16.8162   13.4661  -25.9303 C   0  0  0  0  0  0  0  0  0  0  0  0
  -17.7716   12.3308  -25.9883 C   0  0  0  0  0  0  0  0  0  0  0  0
  -16.8565   14.4339  -26.9268 C   0  0  0  0  0  0  0  0  0  0  0  0
  -15.9763   15.4934  -26.8868 C   0  0  0  0  0  0  0  0  0  0  0  0
  -15.0590   15.5911  -25.8599 C   0  0  0  0  0  0  0  0  0  0  0  0
  -15.0431   14.6073  -24.8774 C   0  0  0  0  0  0  0  0  0  0  0  0
  -13.8966   14.6748  -23.5405 Cl  0  0  0  0  0  0  0  0  0  0  0  0
 14 15  1  0  0  0
 15  1  1  0  0  0
  1  2  2  0  0  0
  2  3  1  0  0  0
  3  4  2  0  0  0
  4  5  1  0  0  0
  5  6  2  0  0  0
  5  7  1  0  0  0
  7  8  2  0  0  0
  8 16  1  0  0  0
 16 18  1  0  0  0
 18 19  2  0  0  0
 19 20  1  0  0  0
 19 21  1  0  0  0
 21 22  2  0  0  0
 22 23  1  0  0  0
 23 24  2  0  0  0
 24 25  1  0  0  0
  8  9  1  0  0  0
  9 10  2  0  0  0
 10 11  1  0  0  0
 11 12  2  0  0  0
 12 13  1  0  0  0
  6  1  1  0  0  0
 24 18  1  0  0  0
 13  9  1  0  0  0
 13  4  1  0  0  0
 16 17  1  0  0  0
M  END
> <minimizedAffinity>
-8.87694

> <CNNscore>
0.9316620827

> <CNNaffinity>
7.4350690842

> <CNN_VS>
6.9269719124

> <CNNaffinity_variance>
0.0731185377

$$$$
[H]c1c([H])c(Cl)c(N([H])c2nc3c([H])c(OC([H])([H])[H])c([H])c([H])c3n3c([H])nc([H])c23)c(C([H])([H])[H])c1[H]


 25 28  0  0  0  0  0  0  0  0999 V2000
  -18.9102   11.0688  -17.8904 C   0  0  0  0  0  0  0  0  0  0  0  0
  -17.8543   10.2188  -18.1409 C   0  0  0  0  0  0  0  0  0  0  0  0
  -17.0753   10.3772  -19.2674 C   0  0  0  0  0  0  0  0  0  0  0  0
  -17.3464   11.3988  -20.1660 C   0  0  0  0  0  0  0  0  0  0  0  0
  -18.4003   12.2530  -19.9229 C   0  0  0  0  0  0  0  0  0  0  0  0
  -19.1662   12.0813  -18.7961 C   0  0  0  0  0  0  0  0  0  0  0  0
  -18.6420   13.2446  -20.8209 N   0  0  0  0  0  0  0  0  0  0  0  0
  -17.8977   13.4111  -21.9154 C   0  0  0  0  0  0  0  0  0  0  0  0
  -16.8464   12.5606  -22.1600 C   0  0  0  0  0  0  0  0  0  0  0  0
  -15.9076   12.4761  -23.1875 C   0  0  0  0  0  0  0  0  0  0  0  0
  -15.1238   11.4315  -22.8778 N   0  0  0  0  0  0  0  0  0  0  0  0
  -15.5252   10.8720  -21.7243 C   0  0  0  0  0  0  0  0  0  0  0  0
  -16.6032   11.5805  -21.2776 N   0  0  0  0  0  0  0  0  0  0  0  0
  -19.8472    9.6758  -16.1004 C   0  0  0  0  0  0  0  0  0  0  0  0
  -19.7022   10.9097  -16.7474 O   0  0  0  0  0  0  0  0  0  0  0  0
  -18.1872   14.4499  -22.8127 N   0  0  0  0  0  0  0  0  0  0  0  0
  -19.1786   14.8019  -22.8547 H   0  0  0  0  0  0  0  0  0  0  0  0
  -17.2224   15.0528  -23.6658 C   0  0  0  0  0  0  0  0  0  0  0  0
  -17.1967   14.7212  -25.0032 C   0  0  0  0  0  0  0  0  0  0  0  0
  -18.1780   13.7393  -25.5304 C   0  0  0  0  0  0  0  0  0  0  0  0
  -16.2719   15.2853  -25.8737 C   0  0  0  0  0  0  0  0  0  0  0  0
  -15.3549   16.1980  -25.3994 C   0  0  0  0  0  0  0  0  0  0  0  0
  -15.3568   16.5493  -24.0645 C   0  0  0  0  0  0  0  0  0  0  0  0
  -16.2945   15.9680  -23.2181 C   0  0  0  0  0  0  0  0  0  0  0  0
  -16.3487   16.3744  -21.5040 Cl  0  0  0  0  0  0  0  0  0  0  0  0
 14 15  1  0  0  0
 15  1  1  0  0  0
  1  2  2  0  0  0
  2  3  1  0  0  0
  3  4  2  0  0  0
  4  5  1  0  0  0
  5  6  2  0  0  0
  5  7  1  0  0  0
  7  8  2  0  0  0
  8 16  1  0  0  0
 16 18  1  0  0  0
 18 19  2  0  0  0
 19 20  1  0  0  0
 19 21  1  0  0  0
 21 22  2  0  0  0
 22 23  1  0  0  0
 23 24  2  0  0  0
 24 25  1  0  0  0
  8  9  1  0  0  0
  9 10  2  0  0  0
 10 11  1  0  0  0
 11 12  2  0  0  0
 12 13  1  0  0  0
  6  1  1  0  0  0
 24 18  1  0  0  0
 13  9  1  0  0  0
 13  4  1  0  0  0
 16 17  1  0  0  0
M  END
> <minimizedAffinity>
-8.23314

> <CNNscore>
0.7886438370

> <CNNaffinity>
7.1645212173

> <CNN_VS>
5.6502556801

> <CNNaffinity_variance>
0.0705441758

$$$$
[H]c1c([H])c(Cl)c(N([H])c2nc3c([H])c(OC([H])([H])[H])c([H])c([H])c3n3c([H])nc([H])c23)c(C([H])([H])[H])c1[H]


 25 28  0  0  0  0  0  0  0  0999 V2000
  -18.3106   15.0167  -23.3021 C   0  0  0  0  0  0  0  0  0  0  0  0
  -17.5931   14.0733  -24.0061 C   0  0  0  0  0  0  0  0  0  0  0  0
  -17.0482   12.9811  -23.3650 C   0  0  0  0  0  0  0  0  0  0  0  0
  -17.2166   12.8182  -21.9976 C   0  0  0  0  0  0  0  0  0  0  0  0
  -17.9326   13.7569  -21.2865 C   0  0  0  0  0  0  0  0  0  0  0  0
  -18.4687   14.8388  -21.9405 C   0  0  0  0  0  0  0  0  0  0  0  0
  -18.0811   13.5708  -19.9480 N   0  0  0  0  0  0  0  0  0  0  0  0
  -17.5602   12.5196  -19.3130 C   0  0  0  0  0  0  0  0  0  0  0  0
  -16.8458   11.5823  -20.0199 C   0  0  0  0  0  0  0  0  0  0  0  0
  -16.1945   10.4049  -19.6540 C   0  0  0  0  0  0  0  0  0  0  0  0
  -15.6701    9.9132  -20.7875 N   0  0  0  0  0  0  0  0  0  0  0  0
  -15.9604   10.7172  -21.8239 C   0  0  0  0  0  0  0  0  0  0  0  0
  -16.6960   11.7606  -21.3406 N   0  0  0  0  0  0  0  0  0  0  0  0
  -19.3904   17.2200  -23.2517 C   0  0  0  0  0  0  0  0  0  0  0  0
  -18.8646   16.1262  -23.9512 O   0  0  0  0  0  0  0  0  0  0  0  0
  -17.7409   12.3718  -17.9298 N   0  0  0  0  0  0  0  0  0  0  0  0
  -16.8812   12.3119  -17.3249 H   0  0  0  0  0  0  0  0  0  0  0  0
  -19.0135   12.2983  -17.2996 C   0  0  0  0  0  0  0  0  0  0  0  0
  -19.5948   11.0675  -17.0845 C   0  0  0  0  0  0  0  0  0  0  0  0
  -18.8813    9.8384  -17.5149 C   0  0  0  0  0  0  0  0  0  0  0  0
  -20.8367   10.9479  -16.4724 C   0  0  0  0  0  0  0  0  0  0  0  0
  -21.5111   12.0792  -16.0674 C   0  0  0  0  0  0  0  0  0  0  0  0
  -20.9534   13.3256  -16.2698 C   0  0  0  0  0  0  0  0  0  0  0  0
  -19.7094   13.4131  -16.8848 C   0  0  0  0  0  0  0  0  0  0  0  0
  -18.9439   14.9746  -17.1718 Cl  0  0  0  0  0  0  0  0  0  0  0  0
 14 15  1  0  0  0
 15  1  1  0  0  0
  1  2  2  0  0  0
  2  3  1  0  0  0
  3  4  2  0  0  0
  4  5  1  0  0  0
  5  6  2  0  0  0
  5  7  1  0  0  0
  7  8  2  0  0  0
  8 16  1  0  0  0
 16 18  1  0  0  0
 18 19  2  0  0  0
 19 20  1  0  0  0
 19 21  1  0  0  0
 21 22  2  0  0  0
 22 23  1  0  0  0
 23 24  2  0  0  0
 24 25  1  0  0  0
  8  9  1  0  0  0
  9 10  2  0  0  0
 10 11  1  0  0  0
 11 12  2  0  0  0
 12 13  1  0  0  0
  6  1  1  0  0  0
 24 18  1  0  0  0
 13  9  1  0  0  0
 13  4  1  0  0  0
 16 17  1  0  0  0
M  END
> <minimizedAffinity>
-7.68269

> <CNNscore>
0.7563801408

> <CNNaffinity>
6.8682060242

> <CNN_VS>
5.1949744225

> <CNNaffinity_variance>
0.1416071653

$$$$
[H]c1c([H])c(Cl)c(N([H])c2nc3c([H])c(OC([H])([H])[H])c([H])c([H])c3n3c([H])nc([H])c23)c(C([H])([H])[H])c1[H]


 25 28  0  0  0  0  0  0  0  0999 V2000
  -20.1261   14.3359  -17.1681 C   0  0  0  0  0  0  0  0  0  0  0  0
  -19.4464   13.1890  -16.8174 C   0  0  0  0  0  0  0  0  0  0  0  0
  -18.6741   12.5183  -17.7419 C   0  0  0  0  0  0  0  0  0  0  0  0
  -18.5717   12.9922  -19.0417 C   0  0  0  0  0  0  0  0  0  0  0  0
  -19.2481   14.1382  -19.4003 C   0  0  0  0  0  0  0  0  0  0  0  0
  -20.0128   14.7941  -18.4673 C   0  0  0  0  0  0  0  0  0  0  0  0
  -19.1288   14.5787  -20.6809 N   0  0  0  0  0  0  0  0  0  0  0  0
  -18.3857   13.9412  -21.5870 C   0  0  0  0  0  0  0  0  0  0  0  0
  -17.7104   12.7983  -21.2318 C   0  0  0  0  0  0  0  0  0  0  0  0
  -16.8746   11.9284  -21.9312 C   0  0  0  0  0  0  0  0  0  0  0  0
  -16.5127   10.9847  -21.0481 N   0  0  0  0  0  0  0  0  0  0  0  0
  -17.0755   11.2237  -19.8519 C   0  0  0  0  0  0  0  0  0  0  0  0
  -17.8243   12.3590  -19.9699 N   0  0  0  0  0  0  0  0  0  0  0  0
  -22.0268   14.4341  -15.6187 C   0  0  0  0  0  0  0  0  0  0  0  0
  -20.9106   15.0183  -16.2310 O   0  0  0  0  0  0  0  0  0  0  0  0
  -18.2942   14.4355  -22.8967 N   0  0  0  0  0  0  0  0  0  0  0  0
  -19.1886   14.6926  -23.3892 H   0  0  0  0  0  0  0  0  0  0  0  0
  -17.0676   14.6087  -23.5951 C   0  0  0  0  0  0  0  0  0  0  0  0
  -16.1456   15.5223  -23.1321 C   0  0  0  0  0  0  0  0  0  0  0  0
  -16.4494   16.3106  -21.9109 C   0  0  0  0  0  0  0  0  0  0  0  0
  -14.9342   15.7247  -23.7823 C   0  0  0  0  0  0  0  0  0  0  0  0
  -14.6379   15.0009  -24.9168 C   0  0  0  0  0  0  0  0  0  0  0  0
  -15.5423   14.0787  -25.4038 C   0  0  0  0  0  0  0  0  0  0  0  0
  -16.7460   13.8984  -24.7313 C   0  0  0  0  0  0  0  0  0  0  0  0
  -17.9422   12.7368  -25.3023 Cl  0  0  0  0  0  0  0  0  0  0  0  0
 14 15  1  0  0  0
 15  1  1  0  0  0
  1  2  2  0  0  0
  2  3  1  0  0  0
  3  4  2  0  0  0
  4  5  1  0  0  0
  5  6  2  0  0  0
  5  7  1  0  0  0
  7  8  2  0  0  0
  8 16  1  0  0  0
 16 18  1  0  0  0
 18 19  2  0  0  0
 19 20  1  0  0  0
 19 21  1  0  0  0
 21 22  2  0  0  0
 22 23  1  0  0  0
 23 24  2  0  0  0
 24 25  1  0  0  0
  8  9  1  0  0  0
  9 10  2  0  0  0
 10 11  1  0  0  0
 11 12  2  0  0  0
 12 13  1  0  0  0
  6  1  1  0  0  0
 24 18  1  0  0  0
 13  9  1  0  0  0
 13  4  1  0  0  0
 16 17  1  0  0  0
M  END
> <minimizedAffinity>
-7.22066

> <CNNscore>
0.7220367193

> <CNNaffinity>
7.1238412857

> <CNN_VS>
5.1436748505

> <CNNaffinity_variance>
0.3004435897

$$$$
[H]c1c([H])c(Cl)c(N([H])c2nc3c([H])c(OC([H])([H])[H])c([H])c([H])c3n3c([H])nc([H])c23)c(C([H])([H])[H])c1[H]


 25 28  0  0  0  0  0  0  0  0999 V2000
  -19.6254   10.5807  -16.6845 C   0  0  0  0  0  0  0  0  0  0  0  0
  -18.6789    9.6832  -17.1306 C   0  0  0  0  0  0  0  0  0  0  0  0
  -17.9624    9.9305  -18.2823 C   0  0  0  0  0  0  0  0  0  0  0  0
  -18.1867   11.0909  -19.0088 C   0  0  0  0  0  0  0  0  0  0  0  0
  -19.1312   11.9933  -18.5695 C   0  0  0  0  0  0  0  0  0  0  0  0
  -19.8360   11.7317  -17.4204 C   0  0  0  0  0  0  0  0  0  0  0  0
  -19.3292   13.1215  -19.3018 N   0  0  0  0  0  0  0  0  0  0  0  0
  -18.6443   13.3753  -20.4181 C   0  0  0  0  0  0  0  0  0  0  0  0
  -17.7020   12.4769  -20.8581 C   0  0  0  0  0  0  0  0  0  0  0  0
  -16.8449   12.4561  -21.9578 C   0  0  0  0  0  0  0  0  0  0  0  0
  -16.1520   11.3111  -21.8560 N   0  0  0  0  0  0  0  0  0  0  0  0
  -16.5324   10.6305  -20.7620 C   0  0  0  0  0  0  0  0  0  0  0  0
  -17.5023   11.3623  -20.1398 N   0  0  0  0  0  0  0  0  0  0  0  0
  -21.7532   10.3804  -15.4783 C   0  0  0  0  0  0  0  0  0  0  0  0
  -20.3538   10.3315  -15.5156 O   0  0  0  0  0  0  0  0  0  0  0  0
  -18.8849   14.5541  -21.1394 N   0  0  0  0  0  0  0  0  0  0  0  0
  -19.0799   14.4688  -22.1706 H   0  0  0  0  0  0  0  0  0  0  0  0
  -18.8807   15.8530  -20.5606 C   0  0  0  0  0  0  0  0  0  0  0  0
  -17.7062   16.5724  -20.5149 C   0  0  0  0  0  0  0  0  0  0  0  0
  -16.4645   15.9781  -21.0716 C   0  0  0  0  0  0  0  0  0  0  0  0
  -17.6552   17.8449  -19.9588 C   0  0  0  0  0  0  0  0  0  0  0  0
  -18.7991   18.4099  -19.4382 C   0  0  0  0  0  0  0  0  0  0  0  0
  -19.9901   17.7128  -19.4700 C   0  0  0  0  0  0  0  0  0  0  0  0
  -20.0096   16.4415  -20.0330 C   0  0  0  0  0  0  0  0  0  0  0  0
  -21.4981   15.5003  -20.1039 Cl  0  0  0  0  0  0  0  0  0  0  0  0
 14 15  1  0  0  0
 15  1  1  0  0  0
  1  2  2  0  0  0
  2  3  1  0  0  0
  3  4  2  0  0  0
  4  5  1  0  0  0
  5  6  2  0  0  0
  5  7  1  0  0  0
  7  8  2  0  0  0
  8 16  1  0  0  0
 16 18  1  0  0  0
 18 19  2  0  0  0
 19 20  1  0  0  0
 19 21  1  0  0  0
 21 22  2  0  0  0
 22 23  1  0  0  0
 23 24  2  0  0  0
 24 25  1  0  0  0
  8  9  1  0  0  0
  9 10  2  0  0  0
 10 11  1  0  0  0
 11 12  2  0  0  0
 12 13  1  0  0  0
  6  1  1  0  0  0
 24 18  1  0  0  0
 13  9  1  0  0  0
 13  4  1  0  0  0
 16 17  1  0  0  0
M  END
> <minimizedAffinity>
-7.04676

> <CNNscore>
0.5716081858

> <CNNaffinity>
6.7438340187

> <CNN_VS>
3.8548307419

> <CNNaffinity_variance>
0.1728259325

$$$$
[H]c1c([H])c(Cl)c(N([H])c2nc3c([H])c(OC([H])([H])[H])c([H])c([H])c3n3c([H])nc([H])c23)c(C([H])([H])[H])c1[H]


 25 28  0  0  0  0  0  0  0  0999 V2000
  -18.8396   16.2392  -17.9148 C   0  0  0  0  0  0  0  0  0  0  0  0
  -18.6884   15.1758  -17.0508 C   0  0  0  0  0  0  0  0  0  0  0  0
  -18.3205   13.9333  -17.5219 C   0  0  0  0  0  0  0  0  0  0  0  0
  -18.0972   13.7382  -18.8771 C   0  0  0  0  0  0  0  0  0  0  0  0
  -18.2463   14.7963  -19.7475 C   0  0  0  0  0  0  0  0  0  0  0  0
  -18.6131   16.0273  -19.2618 C   0  0  0  0  0  0  0  0  0  0  0  0
  -18.0208   14.5752  -21.0699 N   0  0  0  0  0  0  0  0  0  0  0  0
  -17.6644   13.3793  -21.5413 C   0  0  0  0  0  0  0  0  0  0  0  0
  -17.5153   12.3227  -20.6753 C   0  0  0  0  0  0  0  0  0  0  0  0
  -17.1618   10.9858  -20.8544 C   0  0  0  0  0  0  0  0  0  0  0  0
  -17.1845   10.4373  -19.6296 N   0  0  0  0  0  0  0  0  0  0  0  0
  -17.5300   11.3563  -18.7126 C   0  0  0  0  0  0  0  0  0  0  0  0
  -17.7363   12.5348  -19.3697 N   0  0  0  0  0  0  0  0  0  0  0  0
  -19.2157   17.8182  -16.0741 C   0  0  0  0  0  0  0  0  0  0  0  0
  -19.2129   17.5014  -17.4385 O   0  0  0  0  0  0  0  0  0  0  0  0
  -17.4430   13.2011  -22.9150 N   0  0  0  0  0  0  0  0  0  0  0  0
  -17.9570   12.4200  -23.3990 H   0  0  0  0  0  0  0  0  0  0  0  0
  -16.5675   14.0116  -23.6889 C   0  0  0  0  0  0  0  0  0  0  0  0
  -15.2403   13.6594  -23.8042 C   0  0  0  0  0  0  0  0  0  0  0  0
  -14.7471   12.4385  -23.1178 C   0  0  0  0  0  0  0  0  0  0  0  0
  -14.3488   14.4214  -24.5499 C   0  0  0  0  0  0  0  0  0  0  0  0
  -14.7914   15.5571  -25.1926 C   0  0  0  0  0  0  0  0  0  0  0  0
  -16.1156   15.9346  -25.0950 C   0  0  0  0  0  0  0  0  0  0  0  0
  -16.9836   15.1517  -24.3417 C   0  0  0  0  0  0  0  0  0  0  0  0
  -18.6854   15.5798  -24.1779 Cl  0  0  0  0  0  0  0  0  0  0  0  0
 14 15  1  0  0  0
 15  1  1  0  0  0
  1  2  2  0  0  0
  2  3  1  0  0  0
  3  4  2  0  0  0
  4  5  1  0  0  0
  5  6  2  0  0  0
  5  7  1  0  0  0
  7  8  2  0  0  0
  8 16  1  0  0  0
 16 18  1  0  0  0
 18 19  2  0  0  0
 19 20  1  0  0  0
 19 21  1  0  0  0
 21 22  2  0  0  0
 22 23  1  0  0  0
 23 24  2  0  0  0
 24 25  1  0  0  0
  8  9  1  0  0  0
  9 10  2  0  0  0
 10 11  1  0  0  0
 11 12  2  0  0  0
 12 13  1  0  0  0
  6  1  1  0  0  0
 24 18  1  0  0  0
 13  9  1  0  0  0
 13  4  1  0  0  0
 16 17  1  0  0  0
M  END
> <minimizedAffinity>
-7.82430

> <CNNscore>
0.5279828906

> <CNNaffinity>
6.7862863541

> <CNN_VS>
3.5830430984

> <CNNaffinity_variance>
0.1568416208

$$$$
[H]c1c([H])c(Cl)c(N([H])c2nc3c([H])c(OC([H])([H])[H])c([H])c([H])c3n3c([H])nc([H])c23)c(C([H])([H])[H])c1[H]


 25 28  0  0  0  0  0  0  0  0999 V2000
  -18.0723   17.8478  -23.7635 C   0  0  0  0  0  0  0  0  0  0  0  0
  -16.8054   17.8322  -24.3067 C   0  0  0  0  0  0  0  0  0  0  0  0
  -16.0382   16.6873  -24.2702 C   0  0  0  0  0  0  0  0  0  0  0  0
  -16.5347   15.5323  -23.6838 C   0  0  0  0  0  0  0  0  0  0  0  0
  -17.8004   15.5395  -23.1385 C   0  0  0  0  0  0  0  0  0  0  0  0
  -18.5513   16.6882  -23.1833 C   0  0  0  0  0  0  0  0  0  0  0  0
  -18.2602   14.3930  -22.5706 N   0  0  0  0  0  0  0  0  0  0  0  0
  -17.5304   13.2772  -22.5273 C   0  0  0  0  0  0  0  0  0  0  0  0
  -16.2680   13.2676  -23.0703 C   0  0  0  0  0  0  0  0  0  0  0  0
  -15.2846   12.2851  -23.1796 C   0  0  0  0  0  0  0  0  0  0  0  0
  -14.2560   12.8702  -23.8129 N   0  0  0  0  0  0  0  0  0  0  0  0
  -14.5497   14.1499  -24.0977 C   0  0  0  0  0  0  0  0  0  0  0  0
  -15.8090   14.3956  -23.6319 N   0  0  0  0  0  0  0  0  0  0  0  0
  -20.2031   19.0180  -23.4269 C   0  0  0  0  0  0  0  0  0  0  0  0
  -18.8528   19.0091  -23.7996 O   0  0  0  0  0  0  0  0  0  0  0  0
  -18.0493   12.1189  -21.9299 N   0  0  0  0  0  0  0  0  0  0  0  0
  -18.4886   11.3963  -22.5572 H   0  0  0  0  0  0  0  0  0  0  0  0
  -18.0165   11.8651  -20.5311 C   0  0  0  0  0  0  0  0  0  0  0  0
  -18.9287   12.4870  -19.7064 C   0  0  0  0  0  0  0  0  0  0  0  0
  -19.9309   13.4122  -20.2935 C   0  0  0  0  0  0  0  0  0  0  0  0
  -18.9338   12.2689  -18.3340 C   0  0  0  0  0  0  0  0  0  0  0  0
  -18.0101   11.4132  -17.7743 C   0  0  0  0  0  0  0  0  0  0  0  0
  -17.0841   10.7761  -18.5757 C   0  0  0  0  0  0  0  0  0  0  0  0
  -17.1041   11.0144  -19.9455 C   0  0  0  0  0  0  0  0  0  0  0  0
  -15.9487   10.2320  -21.0223 Cl  0  0  0  0  0  0  0  0  0  0  0  0
 14 15  1  0  0  0
 15  1  1  0  0  0
  1  2  2  0  0  0
  2  3  1  0  0  0
  3  4  2  0  0  0
  4  5  1  0  0  0
  5  6  2  0  0  0
  5  7  1  0  0  0
  7  8  2  0  0  0
  8 16  1  0  0  0
 16 18  1  0  0  0
 18 19  2  0  0  0
 19 20  1  0  0  0
 19 21  1  0  0  0
 21 22  2  0  0  0
 22 23  1  0  0  0
 23 24  2  0  0  0
 24 25  1  0  0  0
  8  9  1  0  0  0
  9 10  2  0  0  0
 10 11  1  0  0  0
 11 12  2  0  0  0
 12 13  1  0  0  0
  6  1  1  0  0  0
 24 18  1  0  0  0
 13  9  1  0  0  0
 13  4  1  0  0  0
 16 17  1  0  0  0
M  END
> <minimizedAffinity>
-7.59073

> <CNNscore>
0.4863978624

> <CNNaffinity>
6.7742757797

> <CNN_VS>
3.2949931622

> <CNNaffinity_variance>
0.0750042722

$$$$
[H]c1c([H])c(Cl)c(N([H])c2nc3c([H])c(OC([H])([H])[H])c([H])c([H])c3n3c([H])nc([H])c23)c(C([H])([H])[H])c1[H]


 25 28  0  0  0  0  0  0  0  0999 V2000
  -16.8727   14.7460  -24.5142 C   0  0  0  0  0  0  0  0  0  0  0  0
  -16.1246   13.5941  -24.3974 C   0  0  0  0  0  0  0  0  0  0  0  0
  -16.2717   12.7674  -23.3038 C   0  0  0  0  0  0  0  0  0  0  0  0
  -17.1787   13.0868  -22.3039 C   0  0  0  0  0  0  0  0  0  0  0  0
  -17.9305   14.2366  -22.4131 C   0  0  0  0  0  0  0  0  0  0  0  0
  -17.7717   15.0489  -23.5088 C   0  0  0  0  0  0  0  0  0  0  0  0
  -18.8111   14.5237  -21.4179 N   0  0  0  0  0  0  0  0  0  0  0  0
  -18.9651   13.7343  -20.3537 C   0  0  0  0  0  0  0  0  0  0  0  0
  -18.2165   12.5872  -20.2425 C   0  0  0  0  0  0  0  0  0  0  0  0
  -18.1487   11.5828  -19.2776 C   0  0  0  0  0  0  0  0  0  0  0  0
  -17.2253   10.7156  -19.7212 N   0  0  0  0  0  0  0  0  0  0  0  0
  -16.7242   11.1276  -20.8975 C   0  0  0  0  0  0  0  0  0  0  0  0
  -17.3462   12.2988  -21.2211 N   0  0  0  0  0  0  0  0  0  0  0  0
  -16.0348   15.1927  -26.7772 C   0  0  0  0  0  0  0  0  0  0  0  0
  -16.7249   15.5866  -25.6236 O   0  0  0  0  0  0  0  0  0  0  0  0
  -19.8872   14.0737  -19.3525 N   0  0  0  0  0  0  0  0  0  0  0  0
  -20.6009   13.3509  -19.0753 H   0  0  0  0  0  0  0  0  0  0  0  0
  -19.9138   15.3332  -18.6927 C   0  0  0  0  0  0  0  0  0  0  0  0
  -19.1477   15.5245  -17.5633 C   0  0  0  0  0  0  0  0  0  0  0  0
  -18.3072   14.4111  -17.0546 C   0  0  0  0  0  0  0  0  0  0  0  0
  -19.1424   16.7381  -16.8863 C   0  0  0  0  0  0  0  0  0  0  0  0
  -19.9172   17.7808  -17.3461 C   0  0  0  0  0  0  0  0  0  0  0  0
  -20.6948   17.6183  -18.4750 C   0  0  0  0  0  0  0  0  0  0  0  0
  -20.6790   16.3922  -19.1309 C   0  0  0  0  0  0  0  0  0  0  0  0
  -21.6492   16.1212  -20.5771 Cl  0  0  0  0  0  0  0  0  0  0  0  0
 14 15  1  0  0  0
 15  1  1  0  0  0
  1  2  2  0  0  0
  2  3  1  0  0  0
  3  4  2  0  0  0
  4  5  1  0  0  0
  5  6  2  0  0  0
  5  7  1  0  0  0
  7  8  2  0  0  0
  8 16  1  0  0  0
 16 18  1  0  0  0
 18 19  2  0  0  0
 19 20  1  0  0  0
 19 21  1  0  0  0
 21 22  2  0  0  0
 22 23  1  0  0  0
 23 24  2  0  0  0
 24 25  1  0  0  0
  8  9  1  0  0  0
  9 10  2  0  0  0
 10 11  1  0  0  0
 11 12  2  0  0  0
 12 13  1  0  0  0
  6  1  1  0  0  0
 24 18  1  0  0  0
 13  9  1  0  0  0
 13  4  1  0  0  0
 16 17  1  0  0  0
M  END
> <minimizedAffinity>
-7.03723

> <CNNscore>
0.4779959321

> <CNNaffinity>
6.7796707153

> <CNN_VS>
3.2406549454

> <CNNaffinity_variance>
0.2918695807

$$$$
[H]Oc1c([H])c([H])c(-c2nn(C([H])([H])[H])c(N([H])c3nc4c([H])c([H])c(N5C([H])([H])C([H])([H])C([H])(N([H])C(=O)C([H])([H])C([H])([H])N(C([H])([H])[H])C([H])([H])[H])C([H])([H])C5([H])[H])c([H])c4o3)c2[H])c([H])c1[H]


 40 44  0  0  0  0  0  0  0  0999 V2000
  -19.8540   10.7255  -16.6859 C   0  0  0  0  0  0  0  0  0  0  0  0
  -19.1099    9.5534  -16.7274 C   0  0  0  0  0  0  0  0  0  0  0  0
  -18.1859    9.3798  -17.7323 C   0  0  0  0  0  0  0  0  0  0  0  0
  -17.9506   10.3173  -18.7184 C   0  0  0  0  0  0  0  0  0  0  0  0
  -17.1196   10.3659  -19.7744 N   0  0  0  0  0  0  0  0  0  0  0  0
  -17.3478   11.5469  -20.3727 C   0  0  0  0  0  0  0  0  0  0  0  0
  -18.2956   12.1831  -19.6827 O   0  0  0  0  0  0  0  0  0  0  0  0
  -18.6937   11.4814  -18.6722 C   0  0  0  0  0  0  0  0  0  0  0  0
  -19.6239   11.6723  -17.6725 C   0  0  0  0  0  0  0  0  0  0  0  0
  -21.2830   10.8754  -12.9559 C   0  0  0  0  0  0  0  0  0  0  0  0
  -21.7207   12.0792  -13.7805 C   0  0  0  0  0  0  0  0  0  0  0  0
  -20.8696   12.2130  -15.0061 C   0  0  0  0  0  0  0  0  0  0  0  0
  -20.8023   10.9095  -15.6605 N   0  0  0  0  0  0  0  0  0  0  0  0
  -21.7325    9.9136  -15.1855 C   0  0  0  0  0  0  0  0  0  0  0  0
  -21.3091    9.5922  -13.7539 C   0  0  0  0  0  0  0  0  0  0  0  0
  -21.5237   10.9844  -10.5016 C   0  0  0  0  0  0  0  0  0  0  0  0
  -20.2978   11.2264  -10.4124 O   0  0  0  0  0  0  0  0  0  0  0  0
  -22.0958   10.7936  -11.7756 N   0  0  0  0  0  0  0  0  0  0  0  0
  -23.1036   10.5932  -11.8693 H   0  0  0  0  0  0  0  0  0  0  0  0
  -22.3190   10.9101   -9.2533 C   0  0  0  0  0  0  0  0  0  0  0  0
  -23.7904   10.8636   -9.5475 C   0  0  0  0  0  0  0  0  0  0  0  0
  -25.5533    9.6650  -10.5622 C   0  0  0  0  0  0  0  0  0  0  0  0
  -24.2177    9.5689  -10.0098 N   0  0  0  0  0  0  0  0  0  0  0  0
  -24.1510    8.5402   -9.0168 C   0  0  0  0  0  0  0  0  0  0  0  0
  -16.7598   12.1156  -21.5172 N   0  0  0  0  0  0  0  0  0  0  0  0
  -16.0117   11.5798  -22.0420 H   0  0  0  0  0  0  0  0  0  0  0  0
  -17.0995   13.3915  -22.0421 C   0  0  0  0  0  0  0  0  0  0  0  0
  -17.2282   14.6072  -21.3966 C   0  0  0  0  0  0  0  0  0  0  0  0
  -17.5791   15.5977  -22.3122 C   0  0  0  0  0  0  0  0  0  0  0  0
  -17.6533   14.9554  -23.4866 N   0  0  0  0  0  0  0  0  0  0  0  0
  -17.3745   13.6713  -23.3313 N   0  0  0  0  0  0  0  0  0  0  0  0
  -17.3621   12.6792  -24.4023 C   0  0  0  0  0  0  0  0  0  0  0  0
  -17.8110   17.0110  -22.0398 C   0  0  0  0  0  0  0  0  0  0  0  0
  -18.4118   17.8507  -22.9452 C   0  0  0  0  0  0  0  0  0  0  0  0
  -18.6358   19.1865  -22.6998 C   0  0  0  0  0  0  0  0  0  0  0  0
  -18.2513   19.7487  -21.4935 C   0  0  0  0  0  0  0  0  0  0  0  0
  -18.4768   21.0976  -21.2438 O   0  0  0  0  0  0  0  0  0  0  0  0
  -17.6474   18.9185  -20.5755 C   0  0  0  0  0  0  0  0  0  0  0  0
  -17.4302   17.5744  -20.8414 C   0  0  0  0  0  0  0  0  0  0  0  0
  -18.1772   21.4565  -20.3487 H   0  0  0  0  0  0  0  0  0  0  0  0
 22 23  1  0  0  0
 23 24  1  0  0  0
 23 21  1  0  0  0
 21 20  1  0  0  0
 20 16  1  0  0  0
 16 17  2  0  0  0
 16 18  1  0  0  0
 18 10  1  0  0  0
 10 11  1  0  0  0
 11 12  1  0  0  0
 12 13  1  0  0  0
 13 14  1  0  0  0
 14 15  1  0  0  0
 13  1  1  0  0  0
  1  2  2  0  0  0
  2  3  1  0  0  0
  3  4  2  0  0  0
  4  5  1  0  0  0
  5  6  2  0  0  0
  6 25  1  0  0  0
 25 27  1  0  0  0
 27 28  2  0  0  0
 28 29  1  0  0  0
 29 30  2  0  0  0
 30 31  1  0  0  0
 31 32  1  0  0  0
 29 33  1  0  0  0
 33 34  2  0  0  0
 34 35  1  0  0  0
 35 36  2  0  0  0
 36 37  1  0  0  0
 36 38  1  0  0  0
 38 39  2  0  0  0
  6  7  1  0  0  0
  7  8  1  0  0  0
  8  9  2  0  0  0
 15 10  1  0  0  0
  9  1  1  0  0  0
  8  4  1  0  0  0
 31 27  1  0  0  0
 39 33  1  0  0  0
 18 19  1  0  0  0
 25 26  1  0  0  0
 37 40  1  0  0  0
M  END
> <minimizedAffinity>
-6.96290

> <CNNscore>
0.5722821951

> <CNNaffinity>
7.0209188461

> <CNN_VS>
4.0179467201

> <CNNaffinity_variance>
0.3855087161

$$$$
[H]Oc1c([H])c([H])c(-c2nn(C([H])([H])[H])c(N([H])c3nc4c([H])c([H])c(N5C([H])([H])C([H])([H])C([H])(N([H])C(=O)C([H])([H])C([H])([H])N(C([H])([H])[H])C([H])([H])[H])C([H])([H])C5([H])[H])c([H])c4o3)c2[H])c([H])c1[H]


 40 44  0  0  0  0  0  0  0  0999 V2000
  -18.9926   11.1890  -18.0221 C   0  0  0  0  0  0  0  0  0  0  0  0
  -18.0241   10.1959  -18.0930 C   0  0  0  0  0  0  0  0  0  0  0  0
  -17.1620   10.1740  -19.1655 C   0  0  0  0  0  0  0  0  0  0  0  0
  -17.2033   11.0960  -20.1925 C   0  0  0  0  0  0  0  0  0  0  0  0
  -16.4825   11.2697  -21.3141 N   0  0  0  0  0  0  0  0  0  0  0  0
  -16.9977   12.3506  -21.9233 C   0  0  0  0  0  0  0  0  0  0  0  0
  -18.0036   12.8060  -21.1751 O   0  0  0  0  0  0  0  0  0  0  0  0
  -18.1688   12.0817  -20.1168 C   0  0  0  0  0  0  0  0  0  0  0  0
  -19.0409   12.1190  -19.0495 C   0  0  0  0  0  0  0  0  0  0  0  0
  -20.1367   11.3275  -14.1947 C   0  0  0  0  0  0  0  0  0  0  0  0
  -20.9437   12.2838  -15.0636 C   0  0  0  0  0  0  0  0  0  0  0  0
  -20.2515   12.5148  -16.3719 C   0  0  0  0  0  0  0  0  0  0  0  0
  -19.8790   11.2170  -16.9276 N   0  0  0  0  0  0  0  0  0  0  0  0
  -20.4662   10.0630  -16.2901 C   0  0  0  0  0  0  0  0  0  0  0  0
  -19.8696   10.0100  -14.8854 C   0  0  0  0  0  0  0  0  0  0  0  0
  -20.0868   10.7716  -11.7901 C   0  0  0  0  0  0  0  0  0  0  0  0
  -18.8506   10.5893  -11.8787 O   0  0  0  0  0  0  0  0  0  0  0  0
  -20.8095   11.1518  -12.9390 N   0  0  0  0  0  0  0  0  0  0  0  0
  -21.8283   11.3065  -12.8859 H   0  0  0  0  0  0  0  0  0  0  0  0
  -20.7341   10.5773  -10.4712 C   0  0  0  0  0  0  0  0  0  0  0  0
  -22.1335   11.1206  -10.4666 C   0  0  0  0  0  0  0  0  0  0  0  0
  -22.7387   13.4021  -10.4144 C   0  0  0  0  0  0  0  0  0  0  0  0
  -22.2696   12.2812   -9.6258 N   0  0  0  0  0  0  0  0  0  0  0  0
  -21.0812   12.6273   -8.9070 C   0  0  0  0  0  0  0  0  0  0  0  0
  -16.6296   12.9784  -23.1272 N   0  0  0  0  0  0  0  0  0  0  0  0
  -15.8847   12.5396  -23.7394 H   0  0  0  0  0  0  0  0  0  0  0  0
  -17.1945   14.1923  -23.6028 C   0  0  0  0  0  0  0  0  0  0  0  0
  -17.8041   15.2173  -22.9034 C   0  0  0  0  0  0  0  0  0  0  0  0
  -18.2117   16.2178  -23.7839 C   0  0  0  0  0  0  0  0  0  0  0  0
  -17.8382   15.7719  -24.9918 N   0  0  0  0  0  0  0  0  0  0  0  0
  -17.2461   14.5933  -24.8882 N   0  0  0  0  0  0  0  0  0  0  0  0
  -16.7148   13.8193  -26.0064 C   0  0  0  0  0  0  0  0  0  0  0  0
  -18.8915   17.4641  -23.4520 C   0  0  0  0  0  0  0  0  0  0  0  0
  -18.2180   18.5885  -23.0422 C   0  0  0  0  0  0  0  0  0  0  0  0
  -18.8485   19.7705  -22.7259 C   0  0  0  0  0  0  0  0  0  0  0  0
  -20.2275   19.8710  -22.8123 C   0  0  0  0  0  0  0  0  0  0  0  0
  -20.8660   21.0640  -22.4933 O   0  0  0  0  0  0  0  0  0  0  0  0
  -20.9164   18.7512  -23.2220 C   0  0  0  0  0  0  0  0  0  0  0  0
  -20.2628   17.5686  -23.5366 C   0  0  0  0  0  0  0  0  0  0  0  0
  -21.8724   21.0833  -22.5734 H   0  0  0  0  0  0  0  0  0  0  0  0
 22 23  1  0  0  0
 23 24  1  0  0  0
 23 21  1  0  0  0
 21 20  1  0  0  0
 20 16  1  0  0  0
 16 17  2  0  0  0
 16 18  1  0  0  0
 18 10  1  0  0  0
 10 11  1  0  0  0
 11 12  1  0  0  0
 12 13  1  0  0  0
 13 14  1  0  0  0
 14 15  1  0  0  0
 13  1  1  0  0  0
  1  2  2  0  0  0
  2  3  1  0  0  0
  3  4  2  0  0  0
  4  5  1  0  0  0
  5  6  2  0  0  0
  6 25  1  0  0  0
 25 27  1  0  0  0
 27 28  2  0  0  0
 28 29  1  0  0  0
 29 30  2  0  0  0
 30 31  1  0  0  0
 31 32  1  0  0  0
 29 33  1  0  0  0
 33 34  2  0  0  0
 34 35  1  0  0  0
 35 36  2  0  0  0
 36 37  1  0  0  0
 36 38  1  0  0  0
 38 39  2  0  0  0
  6  7  1  0  0  0
  7  8  1  0  0  0
  8  9  2  0  0  0
 15 10  1  0  0  0
  9  1  1  0  0  0
  8  4  1  0  0  0
 31 27  1  0  0  0
 39 33  1  0  0  0
 18 19  1  0  0  0
 25 26  1  0  0  0
 37 40  1  0  0  0
M  END
> <minimizedAffinity>
-7.79478

> <CNNscore>
0.5156095028

> <CNNaffinity>
7.0861129761

> <CNN_VS>
3.6536672115

> <CNNaffinity_variance>
0.3538534045

$$$$
[H]Oc1c([H])c([H])c(-c2nn(C([H])([H])[H])c(N([H])c3nc4c([H])c([H])c(N5C([H])([H])C([H])([H])C([H])(N([H])C(=O)C([H])([H])C([H])([H])N(C([H])([H])[H])C([H])([H])[H])C([H])([H])C5([H])[H])c([H])c4o3)c2[H])c([H])c1[H]


 40 44  0  0  0  0  0  0  0  0999 V2000
  -17.5204   14.4951  -22.1489 C   0  0  0  0  0  0  0  0  0  0  0  0
  -17.3449   13.4502  -23.0471 C   0  0  0  0  0  0  0  0  0  0  0  0
  -17.2454   12.1635  -22.5692 C   0  0  0  0  0  0  0  0  0  0  0  0
  -17.3107   11.8441  -21.2274 C   0  0  0  0  0  0  0  0  0  0  0  0
  -17.2401   10.6888  -20.5433 N   0  0  0  0  0  0  0  0  0  0  0  0
  -17.3699   11.0161  -19.2468 C   0  0  0  0  0  0  0  0  0  0  0  0
  -17.5143   12.3398  -19.1676 O   0  0  0  0  0  0  0  0  0  0  0  0
  -17.4854   12.8876  -20.3385 C   0  0  0  0  0  0  0  0  0  0  0  0
  -17.5871   14.1830  -20.7995 C   0  0  0  0  0  0  0  0  0  0  0  0
  -19.1865   18.0646  -22.8269 C   0  0  0  0  0  0  0  0  0  0  0  0
  -17.7458   18.1921  -22.3487 C   0  0  0  0  0  0  0  0  0  0  0  0
  -17.2843   16.9099  -21.7262 C   0  0  0  0  0  0  0  0  0  0  0  0
  -17.6221   15.8149  -22.6310 N   0  0  0  0  0  0  0  0  0  0  0  0
  -18.0361   16.1961  -23.9599 C   0  0  0  0  0  0  0  0  0  0  0  0
  -19.3718   16.9173  -23.7931 C   0  0  0  0  0  0  0  0  0  0  0  0
  -20.8679   19.8567  -23.0613 C   0  0  0  0  0  0  0  0  0  0  0  0
  -21.6150   19.2308  -22.2742 O   0  0  0  0  0  0  0  0  0  0  0  0
  -19.6078   19.3166  -23.3887 N   0  0  0  0  0  0  0  0  0  0  0  0
  -18.9786   19.8173  -24.0352 H   0  0  0  0  0  0  0  0  0  0  0  0
  -21.3492   21.1447  -23.6141 C   0  0  0  0  0  0  0  0  0  0  0  0
  -21.4959   21.0755  -25.1066 C   0  0  0  0  0  0  0  0  0  0  0  0
  -21.1264   22.1053  -27.1986 C   0  0  0  0  0  0  0  0  0  0  0  0
  -20.9402   22.2275  -25.7673 N   0  0  0  0  0  0  0  0  0  0  0  0
  -19.5666   22.4782  -25.4529 C   0  0  0  0  0  0  0  0  0  0  0  0
  -17.3694   10.2032  -18.0987 N   0  0  0  0  0  0  0  0  0  0  0  0
  -16.4618    9.7713  -17.7641 H   0  0  0  0  0  0  0  0  0  0  0  0
  -18.5251    9.9054  -17.3277 C   0  0  0  0  0  0  0  0  0  0  0  0
  -18.9584    8.6968  -16.8149 C   0  0  0  0  0  0  0  0  0  0  0  0
  -20.1523    8.8757  -16.1185 C   0  0  0  0  0  0  0  0  0  0  0  0
  -20.4095   10.1868  -16.2282 N   0  0  0  0  0  0  0  0  0  0  0  0
  -19.4635   10.7877  -16.9317 N   0  0  0  0  0  0  0  0  0  0  0  0
  -19.4272   12.2132  -17.2447 C   0  0  0  0  0  0  0  0  0  0  0  0
  -20.9354    7.8565  -15.4304 C   0  0  0  0  0  0  0  0  0  0  0  0
  -21.0237    6.5619  -15.8799 C   0  0  0  0  0  0  0  0  0  0  0  0
  -21.7599    5.5910  -15.2393 C   0  0  0  0  0  0  0  0  0  0  0  0
  -22.4595    5.8947  -14.0828 C   0  0  0  0  0  0  0  0  0  0  0  0
  -23.2035    4.9155  -13.4345 O   0  0  0  0  0  0  0  0  0  0  0  0
  -22.3802    7.1894  -13.6201 C   0  0  0  0  0  0  0  0  0  0  0  0
  -21.6327    8.1540  -14.2799 C   0  0  0  0  0  0  0  0  0  0  0  0
  -23.6941    5.1900  -12.5957 H   0  0  0  0  0  0  0  0  0  0  0  0
 22 23  1  0  0  0
 23 24  1  0  0  0
 23 21  1  0  0  0
 21 20  1  0  0  0
 20 16  1  0  0  0
 16 17  2  0  0  0
 16 18  1  0  0  0
 18 10  1  0  0  0
 10 11  1  0  0  0
 11 12  1  0  0  0
 12 13  1  0  0  0
 13 14  1  0  0  0
 14 15  1  0  0  0
 13  1  1  0  0  0
  1  2  2  0  0  0
  2  3  1  0  0  0
  3  4  2  0  0  0
  4  5  1  0  0  0
  5  6  2  0  0  0
  6 25  1  0  0  0
 25 27  1  0  0  0
 27 28  2  0  0  0
 28 29  1  0  0  0
 29 30  2  0  0  0
 30 31  1  0  0  0
 31 32  1  0  0  0
 29 33  1  0  0  0
 33 34  2  0  0  0
 34 35  1  0  0  0
 35 36  2  0  0  0
 36 37  1  0  0  0
 36 38  1  0  0  0
 38 39  2  0  0  0
  6  7  1  0  0  0
  7  8  1  0  0  0
  8  9  2  0  0  0
 15 10  1  0  0  0
  9  1  1  0  0  0
  8  4  1  0  0  0
 31 27  1  0  0  0
 39 33  1  0  0  0
 18 19  1  0  0  0
 25 26  1  0  0  0
 37 40  1  0  0  0
M  END
> <minimizedAffinity>
-7.81696

> <CNNscore>
0.3881390989

> <CNNaffinity>
6.5799736977

> <CNN_VS>
2.5539450645

> <CNNaffinity_variance>
0.1406311989

$$$$
[H]Oc1c([H])c([H])c(-c2nn(C([H])([H])[H])c(N([H])c3nc4c([H])c([H])c(N5C([H])([H])C([H])([H])C([H])(N([H])C(=O)C([H])([H])C([H])([H])N(C([H])([H])[H])C([H])([H])[H])C([H])([H])C5([H])[H])c([H])c4o3)c2[H])c([H])c1[H]


 40 44  0  0  0  0  0  0  0  0999 V2000
  -17.0532   14.1307  -22.8717 C   0  0  0  0  0  0  0  0  0  0  0  0
  -16.1432   13.2205  -23.3940 C   0  0  0  0  0  0  0  0  0  0  0  0
  -15.9163   12.0391  -22.7257 C   0  0  0  0  0  0  0  0  0  0  0  0
  -16.5500   11.6992  -21.5469 C   0  0  0  0  0  0  0  0  0  0  0  0
  -16.4900   10.6287  -20.7355 N   0  0  0  0  0  0  0  0  0  0  0  0
  -17.3478   10.8751  -19.7313 C   0  0  0  0  0  0  0  0  0  0  0  0
  -17.9033   12.0686  -19.9462 O   0  0  0  0  0  0  0  0  0  0  0  0
  -17.4541   12.6085  -21.0319 C   0  0  0  0  0  0  0  0  0  0  0  0
  -17.6940   13.7971  -21.6882 C   0  0  0  0  0  0  0  0  0  0  0  0
  -18.0185   17.9822  -23.3314 C   0  0  0  0  0  0  0  0  0  0  0  0
  -16.7694   17.6118  -24.1209 C   0  0  0  0  0  0  0  0  0  0  0  0
  -16.2034   16.3148  -23.6290 C   0  0  0  0  0  0  0  0  0  0  0  0
  -17.2898   15.3425  -23.5502 N   0  0  0  0  0  0  0  0  0  0  0  0
  -18.5274   15.7226  -24.1877 C   0  0  0  0  0  0  0  0  0  0  0  0
  -19.0716   16.8993  -23.3808 C   0  0  0  0  0  0  0  0  0  0  0  0
  -18.9878   20.2101  -22.8948 C   0  0  0  0  0  0  0  0  0  0  0  0
  -18.9648   19.9573  -21.6681 O   0  0  0  0  0  0  0  0  0  0  0  0
  -18.5174   19.2421  -23.8051 N   0  0  0  0  0  0  0  0  0  0  0  0
  -18.5284   19.4319  -24.8192 H   0  0  0  0  0  0  0  0  0  0  0  0
  -19.5125   21.5251  -23.3327 C   0  0  0  0  0  0  0  0  0  0  0  0
  -20.9679   21.4384  -23.6906 C   0  0  0  0  0  0  0  0  0  0  0  0
  -21.3733   21.5159  -26.0152 C   0  0  0  0  0  0  0  0  0  0  0  0
  -21.1972   20.6460  -24.8704 N   0  0  0  0  0  0  0  0  0  0  0  0
  -22.2892   19.7277  -24.7570 C   0  0  0  0  0  0  0  0  0  0  0  0
  -17.6818   10.0963  -18.6084 N   0  0  0  0  0  0  0  0  0  0  0  0
  -17.2091    9.1597  -18.4621 H   0  0  0  0  0  0  0  0  0  0  0  0
  -18.6324   10.4774  -17.6235 C   0  0  0  0  0  0  0  0  0  0  0  0
  -19.3055   11.6740  -17.4609 C   0  0  0  0  0  0  0  0  0  0  0  0
  -20.1463   11.6005  -16.3518 C   0  0  0  0  0  0  0  0  0  0  0  0
  -19.9597   10.3622  -15.8731 N   0  0  0  0  0  0  0  0  0  0  0  0
  -19.0790    9.7072  -16.6120 N   0  0  0  0  0  0  0  0  0  0  0  0
  -18.6402    8.3349  -16.3762 C   0  0  0  0  0  0  0  0  0  0  0  0
  -21.0254   12.6440  -15.8384 C   0  0  0  0  0  0  0  0  0  0  0  0
  -21.2135   13.8394  -16.4877 C   0  0  0  0  0  0  0  0  0  0  0  0
  -22.0403   14.8322  -16.0129 C   0  0  0  0  0  0  0  0  0  0  0  0
  -22.7335   14.6555  -14.8265 C   0  0  0  0  0  0  0  0  0  0  0  0
  -23.5691   15.6570  -14.3455 O   0  0  0  0  0  0  0  0  0  0  0  0
  -22.5547   13.4613  -14.1642 C   0  0  0  0  0  0  0  0  0  0  0  0
  -21.7168   12.4725  -14.6590 C   0  0  0  0  0  0  0  0  0  0  0  0
  -24.0508   15.4768  -13.4765 H   0  0  0  0  0  0  0  0  0  0  0  0
 22 23  1  0  0  0
 23 24  1  0  0  0
 23 21  1  0  0  0
 21 20  1  0  0  0
 20 16  1  0  0  0
 16 17  2  0  0  0
 16 18  1  0  0  0
 18 10  1  0  0  0
 10 11  1  0  0  0
 11 12  1  0  0  0
 12 13  1  0  0  0
 13 14  1  0  0  0
 14 15  1  0  0  0
 13  1  1  0  0  0
  1  2  2  0  0  0
  2  3  1  0  0  0
  3  4  2  0  0  0
  4  5  1  0  0  0
  5  6  2  0  0  0
  6 25  1  0  0  0
 25 27  1  0  0  0
 27 28  2  0  0  0
 28 29  1  0  0  0
 29 30  2  0  0  0
 30 31  1  0  0  0
 31 32  1  0  0  0
 29 33  1  0  0  0
 33 34  2  0  0  0
 34 35  1  0  0  0
 35 36  2  0  0  0
 36 37  1  0  0  0
 36 38  1  0  0  0
 38 39  2  0  0  0
  6  7  1  0  0  0
  7  8  1  0  0  0
  8  9  2  0  0  0
 15 10  1  0  0  0
  9  1  1  0  0  0
  8  4  1  0  0  0
 31 27  1  0  0  0
 39 33  1  0  0  0
 18 19  1  0  0  0
 25 26  1  0  0  0
 37 40  1  0  0  0
M  END
> <minimizedAffinity>
-8.04008

> <CNNscore>
0.3356605470

> <CNNaffinity>
6.9847512245

> <CNN_VS>
2.3445053101

> <CNNaffinity_variance>
0.1378388703

$$$$
[H]Oc1c([H])c([H])c(-c2nn(C([H])([H])[H])c(N([H])c3nc4c([H])c([H])c(N5C([H])([H])C([H])([H])C([H])(N([H])C(=O)C([H])([H])C([H])([H])N(C([H])([H])[H])C([H])([H])[H])C([H])([H])C5([H])[H])c([H])c4o3)c2[H])c([H])c1[H]


 40 44  0  0  0  0  0  0  0  0999 V2000
  -19.1603   10.8480  -17.3568 C   0  0  0  0  0  0  0  0  0  0  0  0
  -18.3447    9.7770  -17.6991 C   0  0  0  0  0  0  0  0  0  0  0  0
  -17.5752    9.8558  -18.8372 C   0  0  0  0  0  0  0  0  0  0  0  0
  -17.5656   10.9547  -19.6733 C   0  0  0  0  0  0  0  0  0  0  0  0
  -16.9124   11.2505  -20.8108 N   0  0  0  0  0  0  0  0  0  0  0  0
  -17.3184   12.4818  -21.1630 C   0  0  0  0  0  0  0  0  0  0  0  0
  -18.1947   12.9044  -20.2504 O   0  0  0  0  0  0  0  0  0  0  0  0
  -18.3789   12.0172  -19.3280 C   0  0  0  0  0  0  0  0  0  0  0  0
  -19.1566   11.9556  -18.1911 C   0  0  0  0  0  0  0  0  0  0  0  0
  -21.7826    9.3095  -14.7618 C   0  0  0  0  0  0  0  0  0  0  0  0
  -20.5408    9.8477  -14.0626 C   0  0  0  0  0  0  0  0  0  0  0  0
  -19.4268   10.0396  -15.0457 C   0  0  0  0  0  0  0  0  0  0  0  0
  -19.9514   10.7738  -16.1936 N   0  0  0  0  0  0  0  0  0  0  0  0
  -21.2566   11.3659  -16.0239 C   0  0  0  0  0  0  0  0  0  0  0  0
  -22.2338   10.1994  -15.8970 C   0  0  0  0  0  0  0  0  0  0  0  0
  -23.1203    7.8105  -13.3276 C   0  0  0  0  0  0  0  0  0  0  0  0
  -22.4721    6.8366  -13.7757 O   0  0  0  0  0  0  0  0  0  0  0  0
  -22.8192    9.1077  -13.7896 N   0  0  0  0  0  0  0  0  0  0  0  0
  -23.3421    9.9222  -13.4324 H   0  0  0  0  0  0  0  0  0  0  0  0
  -24.1803    7.5491  -12.3255 C   0  0  0  0  0  0  0  0  0  0  0  0
  -23.6206    7.5343  -10.9326 C   0  0  0  0  0  0  0  0  0  0  0  0
  -25.3037    9.1700  -10.6767 C   0  0  0  0  0  0  0  0  0  0  0  0
  -24.0480    8.6691  -10.1567 N   0  0  0  0  0  0  0  0  0  0  0  0
  -23.0788    9.7187  -10.0697 C   0  0  0  0  0  0  0  0  0  0  0  0
  -16.9577   13.2782  -22.2650 N   0  0  0  0  0  0  0  0  0  0  0  0
  -16.2899   12.8938  -22.9920 H   0  0  0  0  0  0  0  0  0  0  0  0
  -17.4321   14.5989  -22.4882 C   0  0  0  0  0  0  0  0  0  0  0  0
  -18.6608   15.1587  -22.1914 C   0  0  0  0  0  0  0  0  0  0  0  0
  -18.6848   16.4937  -22.5913 C   0  0  0  0  0  0  0  0  0  0  0  0
  -17.4708   16.7059  -23.1190 N   0  0  0  0  0  0  0  0  0  0  0  0
  -16.7404   15.6042  -23.0598 N   0  0  0  0  0  0  0  0  0  0  0  0
  -15.3688   15.4791  -23.5441 C   0  0  0  0  0  0  0  0  0  0  0  0
  -19.7895   17.4359  -22.4597 C   0  0  0  0  0  0  0  0  0  0  0  0
  -20.5468   17.8432  -23.5303 C   0  0  0  0  0  0  0  0  0  0  0  0
  -21.5917   18.7323  -23.4188 C   0  0  0  0  0  0  0  0  0  0  0  0
  -21.9268   19.2644  -22.1845 C   0  0  0  0  0  0  0  0  0  0  0  0
  -22.9819   20.1624  -22.0699 O   0  0  0  0  0  0  0  0  0  0  0  0
  -21.1760   18.8649  -21.1013 C   0  0  0  0  0  0  0  0  0  0  0  0
  -20.1264   17.9675  -21.2339 C   0  0  0  0  0  0  0  0  0  0  0  0
  -23.1841   20.5198  -21.1474 H   0  0  0  0  0  0  0  0  0  0  0  0
 22 23  1  0  0  0
 23 24  1  0  0  0
 23 21  1  0  0  0
 21 20  1  0  0  0
 20 16  1  0  0  0
 16 17  2  0  0  0
 16 18  1  0  0  0
 18 10  1  0  0  0
 10 11  1  0  0  0
 11 12  1  0  0  0
 12 13  1  0  0  0
 13 14  1  0  0  0
 14 15  1  0  0  0
 13  1  1  0  0  0
  1  2  2  0  0  0
  2  3  1  0  0  0
  3  4  2  0  0  0
  4  5  1  0  0  0
  5  6  2  0  0  0
  6 25  1  0  0  0
 25 27  1  0  0  0
 27 28  2  0  0  0
 28 29  1  0  0  0
 29 30  2  0  0  0
 30 31  1  0  0  0
 31 32  1  0  0  0
 29 33  1  0  0  0
 33 34  2  0  0  0
 34 35  1  0  0  0
 35 36  2  0  0  0
 36 37  1  0  0  0
 36 38  1  0  0  0
 38 39  2  0  0  0
  6  7  1  0  0  0
  7  8  1  0  0  0
  8  9  2  0  0  0
 15 10  1  0  0  0
  9  1  1  0  0  0
  8  4  1  0  0  0
 31 27  1  0  0  0
 39 33  1  0  0  0
 18 19  1  0  0  0
 25 26  1  0  0  0
 37 40  1  0  0  0
M  END
> <minimizedAffinity>
-6.72329

> <CNNscore>
0.3087231517

> <CNNaffinity>
6.7105741501

> <CNN_VS>
2.0717096329

> <CNNaffinity_variance>
0.3687084317

$$$$
[H]Oc1c([H])c([H])c(-c2nn(C([H])([H])[H])c(N([H])c3nc4c([H])c([H])c(N5C([H])([H])C([H])([H])C([H])(N([H])C(=O)C([H])([H])C([H])([H])N(C([H])([H])[H])C([H])([H])[H])C([H])([H])C5([H])[H])c([H])c4o3)c2[H])c([H])c1[H]


 40 44  0  0  0  0  0  0  0  0999 V2000
  -18.9955   10.8237  -17.5355 C   0  0  0  0  0  0  0  0  0  0  0  0
  -18.1312    9.7922  -17.8792 C   0  0  0  0  0  0  0  0  0  0  0  0
  -17.3776    9.9013  -19.0255 C   0  0  0  0  0  0  0  0  0  0  0  0
  -17.4307   10.9936  -19.8686 C   0  0  0  0  0  0  0  0  0  0  0  0
  -16.8042   11.3136  -21.0144 N   0  0  0  0  0  0  0  0  0  0  0  0
  -17.2742   12.5208  -21.3702 C   0  0  0  0  0  0  0  0  0  0  0  0
  -18.1614   12.9057  -20.4516 O   0  0  0  0  0  0  0  0  0  0  0  0
  -18.2923   12.0167  -19.5218 C   0  0  0  0  0  0  0  0  0  0  0  0
  -19.0549   11.9244  -18.3768 C   0  0  0  0  0  0  0  0  0  0  0  0
  -22.2994   10.6193  -15.2951 C   0  0  0  0  0  0  0  0  0  0  0  0
  -21.2712    9.5720  -14.8873 C   0  0  0  0  0  0  0  0  0  0  0  0
  -20.2454    9.3965  -15.9650 C   0  0  0  0  0  0  0  0  0  0  0  0
  -19.7706   10.7184  -16.3639 N   0  0  0  0  0  0  0  0  0  0  0  0
  -20.1478   11.8133  -15.5027 C   0  0  0  0  0  0  0  0  0  0  0  0
  -21.6633   11.9478  -15.6335 C   0  0  0  0  0  0  0  0  0  0  0  0
  -24.6100   10.3196  -14.4796 C   0  0  0  0  0  0  0  0  0  0  0  0
  -24.9192    9.8376  -15.5937 O   0  0  0  0  0  0  0  0  0  0  0  0
  -23.2835   10.7410  -14.2571 N   0  0  0  0  0  0  0  0  0  0  0  0
  -23.0098   11.1406  -13.3461 H   0  0  0  0  0  0  0  0  0  0  0  0
  -25.6625   10.4239  -13.4414 C   0  0  0  0  0  0  0  0  0  0  0  0
  -25.0779   10.3248  -12.0622 C   0  0  0  0  0  0  0  0  0  0  0  0
  -24.2065    8.2323  -11.4020 C   0  0  0  0  0  0  0  0  0  0  0  0
  -25.3865    9.0722  -11.4233 N   0  0  0  0  0  0  0  0  0  0  0  0
  -26.4954    8.3763  -12.0017 C   0  0  0  0  0  0  0  0  0  0  0  0
  -16.9641   13.3267  -22.4809 N   0  0  0  0  0  0  0  0  0  0  0  0
  -16.3030   12.9616  -23.2237 H   0  0  0  0  0  0  0  0  0  0  0  0
  -17.4830   14.6323  -22.6928 C   0  0  0  0  0  0  0  0  0  0  0  0
  -17.5361   15.7129  -21.8320 C   0  0  0  0  0  0  0  0  0  0  0  0
  -18.1352   16.7990  -22.4676 C   0  0  0  0  0  0  0  0  0  0  0  0
  -18.4284   16.3470  -23.6953 N   0  0  0  0  0  0  0  0  0  0  0  0
  -18.0495   15.0863  -23.8280 N   0  0  0  0  0  0  0  0  0  0  0  0
  -18.2158   14.2822  -25.0352 C   0  0  0  0  0  0  0  0  0  0  0  0
  -18.3819   18.1233  -21.9102 C   0  0  0  0  0  0  0  0  0  0  0  0
  -18.3782   18.3705  -20.5595 C   0  0  0  0  0  0  0  0  0  0  0  0
  -18.6101   19.6161  -20.0213 C   0  0  0  0  0  0  0  0  0  0  0  0
  -18.8633   20.6979  -20.8487 C   0  0  0  0  0  0  0  0  0  0  0  0
  -19.0977   21.9566  -20.3069 O   0  0  0  0  0  0  0  0  0  0  0  0
  -18.8702   20.4650  -22.2060 C   0  0  0  0  0  0  0  0  0  0  0  0
  -18.6341   19.2022  -22.7294 C   0  0  0  0  0  0  0  0  0  0  0  0
  -19.2768   22.7104  -20.9545 H   0  0  0  0  0  0  0  0  0  0  0  0
 22 23  1  0  0  0
 23 24  1  0  0  0
 23 21  1  0  0  0
 21 20  1  0  0  0
 20 16  1  0  0  0
 16 17  2  0  0  0
 16 18  1  0  0  0
 18 10  1  0  0  0
 10 11  1  0  0  0
 11 12  1  0  0  0
 12 13  1  0  0  0
 13 14  1  0  0  0
 14 15  1  0  0  0
 13  1  1  0  0  0
  1  2  2  0  0  0
  2  3  1  0  0  0
  3  4  2  0  0  0
  4  5  1  0  0  0
  5  6  2  0  0  0
  6 25  1  0  0  0
 25 27  1  0  0  0
 27 28  2  0  0  0
 28 29  1  0  0  0
 29 30  2  0  0  0
 30 31  1  0  0  0
 31 32  1  0  0  0
 29 33  1  0  0  0
 33 34  2  0  0  0
 34 35  1  0  0  0
 35 36  2  0  0  0
 36 37  1  0  0  0
 36 38  1  0  0  0
 38 39  2  0  0  0
  6  7  1  0  0  0
  7  8  1  0  0  0
  8  9  2  0  0  0
 15 10  1  0  0  0
  9  1  1  0  0  0
  8  4  1  0  0  0
 31 27  1  0  0  0
 39 33  1  0  0  0
 18 19  1  0  0  0
 25 26  1  0  0  0
 37 40  1  0  0  0
M  END
> <minimizedAffinity>
-6.92822

> <CNNscore>
0.2902552485

> <CNNaffinity>
6.7955780029

> <CNN_VS>
1.9724521637

> <CNNaffinity_variance>
0.3570194542

$$$$
[H]Oc1c([H])c([H])c(-c2nn(C([H])([H])[H])c(N([H])c3nc4c([H])c([H])c(N5C([H])([H])C([H])([H])C([H])(N([H])C(=O)C([H])([H])C([H])([H])N(C([H])([H])[H])C([H])([H])[H])C([H])([H])C5([H])[H])c([H])c4o3)c2[H])c([H])c1[H]


 40 44  0  0  0  0  0  0  0  0999 V2000
  -18.2755   10.6146  -18.8774 C   0  0  0  0  0  0  0  0  0  0  0  0
  -17.0500    9.9793  -19.0313 C   0  0  0  0  0  0  0  0  0  0  0  0
  -16.2470   10.3182  -20.0963 C   0  0  0  0  0  0  0  0  0  0  0  0
  -16.5931   11.2681  -21.0368 C   0  0  0  0  0  0  0  0  0  0  0  0
  -15.9858   11.7529  -22.1341 N   0  0  0  0  0  0  0  0  0  0  0  0
  -16.8223   12.6705  -22.6469 C   0  0  0  0  0  0  0  0  0  0  0  0
  -17.9028   12.7260  -21.8669 O   0  0  0  0  0  0  0  0  0  0  0  0
  -17.8134   11.8969  -20.8787 C   0  0  0  0  0  0  0  0  0  0  0  0
  -18.6308   11.5699  -19.8175 C   0  0  0  0  0  0  0  0  0  0  0  0
  -19.2761    9.9085  -15.0725 C   0  0  0  0  0  0  0  0  0  0  0  0
  -20.3123   10.7712  -15.7813 C   0  0  0  0  0  0  0  0  0  0  0  0
  -19.7409   11.3499  -17.0396 C   0  0  0  0  0  0  0  0  0  0  0  0
  -19.1031   10.2720  -17.7900 N   0  0  0  0  0  0  0  0  0  0  0  0
  -19.3867    8.9313  -17.3377 C   0  0  0  0  0  0  0  0  0  0  0  0
  -18.7414    8.8076  -15.9592 C   0  0  0  0  0  0  0  0  0  0  0  0
  -19.6924   10.1011  -12.6469 C   0  0  0  0  0  0  0  0  0  0  0  0
  -19.0578   11.1812  -12.6444 O   0  0  0  0  0  0  0  0  0  0  0  0
  -19.8432    9.3954  -13.8577 N   0  0  0  0  0  0  0  0  0  0  0  0
  -20.3625    8.5041  -13.8799 H   0  0  0  0  0  0  0  0  0  0  0  0
  -20.2584    9.6143  -11.3667 C   0  0  0  0  0  0  0  0  0  0  0  0
  -19.8586   10.5009  -10.2230 C   0  0  0  0  0  0  0  0  0  0  0  0
  -17.6277   10.3185   -9.4722 C   0  0  0  0  0  0  0  0  0  0  0  0
  -18.9822    9.8371   -9.2936 N   0  0  0  0  0  0  0  0  0  0  0  0
  -19.0272    8.4082   -9.3631 C   0  0  0  0  0  0  0  0  0  0  0  0
  -16.6922   13.4836  -23.7875 N   0  0  0  0  0  0  0  0  0  0  0  0
  -16.3492   13.0597  -24.6957 H   0  0  0  0  0  0  0  0  0  0  0  0
  -16.9934   14.8718  -23.8201 C   0  0  0  0  0  0  0  0  0  0  0  0
  -18.1678   15.5292  -23.5039 C   0  0  0  0  0  0  0  0  0  0  0  0
  -18.0083   16.9020  -23.6837 C   0  0  0  0  0  0  0  0  0  0  0  0
  -16.7425   17.0388  -24.1037 N   0  0  0  0  0  0  0  0  0  0  0  0
  -16.1503   15.8582  -24.1835 N   0  0  0  0  0  0  0  0  0  0  0  0
  -14.7705   15.6378  -24.6064 C   0  0  0  0  0  0  0  0  0  0  0  0
  -19.0035   17.9440  -23.4619 C   0  0  0  0  0  0  0  0  0  0  0  0
  -20.3540   17.7041  -23.5278 C   0  0  0  0  0  0  0  0  0  0  0  0
  -21.3031   18.6794  -23.3207 C   0  0  0  0  0  0  0  0  0  0  0  0
  -20.9177   19.9777  -23.0295 C   0  0  0  0  0  0  0  0  0  0  0  0
  -21.8748   20.9640  -22.8199 O   0  0  0  0  0  0  0  0  0  0  0  0
  -19.5663   20.2333  -22.9601 C   0  0  0  0  0  0  0  0  0  0  0  0
  -18.6248   19.2367  -23.1720 C   0  0  0  0  0  0  0  0  0  0  0  0
  -21.5399   21.8935  -22.6108 H   0  0  0  0  0  0  0  0  0  0  0  0
 22 23  1  0  0  0
 23 24  1  0  0  0
 23 21  1  0  0  0
 21 20  1  0  0  0
 20 16  1  0  0  0
 16 17  2  0  0  0
 16 18  1  0  0  0
 18 10  1  0  0  0
 10 11  1  0  0  0
 11 12  1  0  0  0
 12 13  1  0  0  0
 13 14  1  0  0  0
 14 15  1  0  0  0
 13  1  1  0  0  0
  1  2  2  0  0  0
  2  3  1  0  0  0
  3  4  2  0  0  0
  4  5  1  0  0  0
  5  6  2  0  0  0
  6 25  1  0  0  0
 25 27  1  0  0  0
 27 28  2  0  0  0
 28 29  1  0  0  0
 29 30  2  0  0  0
 30 31  1  0  0  0
 31 32  1  0  0  0
 29 33  1  0  0  0
 33 34  2  0  0  0
 34 35  1  0  0  0
 35 36  2  0  0  0
 36 37  1  0  0  0
 36 38  1  0  0  0
 38 39  2  0  0  0
  6  7  1  0  0  0
  7  8  1  0  0  0
  8  9  2  0  0  0
 15 10  1  0  0  0
  9  1  1  0  0  0
  8  4  1  0  0  0
 31 27  1  0  0  0
 39 33  1  0  0  0
 18 19  1  0  0  0
 25 26  1  0  0  0
 37 40  1  0  0  0
M  END
> <minimizedAffinity>
-7.73608

> <CNNscore>
0.2630427480

> <CNNaffinity>
6.9323654175

> <CNN_VS>
1.8235085011

> <CNNaffinity_variance>
0.3462650478

$$$$
[H]Oc1c([H])c([H])c(-c2nn(C([H])([H])[H])c(N([H])c3nc4c([H])c([H])c(N5C([H])([H])C([H])([H])C([H])(N([H])C(=O)C([H])([H])C([H])([H])N(C([H])([H])[H])C([H])([H])[H])C([H])([H])C5([H])[H])c([H])c4o3)c2[H])c([H])c1[H]


 40 44  0  0  0  0  0  0  0  0999 V2000
  -18.2660   11.4140  -18.7503 C   0  0  0  0  0  0  0  0  0  0  0  0
  -17.3444   10.4560  -19.1529 C   0  0  0  0  0  0  0  0  0  0  0  0
  -16.7070   10.6043  -20.3635 C   0  0  0  0  0  0  0  0  0  0  0  0
  -16.9330   11.6668  -21.2161 C   0  0  0  0  0  0  0  0  0  0  0  0
  -16.4408   12.0138  -22.4182 N   0  0  0  0  0  0  0  0  0  0  0  0
  -17.0483   13.1651  -22.7502 C   0  0  0  0  0  0  0  0  0  0  0  0
  -17.8833   13.4912  -21.7624 O   0  0  0  0  0  0  0  0  0  0  0  0
  -17.8508   12.6168  -20.8104 C   0  0  0  0  0  0  0  0  0  0  0  0
  -18.4988   12.4843  -19.6006 C   0  0  0  0  0  0  0  0  0  0  0  0
  -21.3204   10.8897  -16.2259 C   0  0  0  0  0  0  0  0  0  0  0  0
  -20.1290   10.0113  -15.8658 C   0  0  0  0  0  0  0  0  0  0  0  0
  -19.1786    9.9176  -17.0201 C   0  0  0  0  0  0  0  0  0  0  0  0
  -18.9229   11.2681  -17.5126 N   0  0  0  0  0  0  0  0  0  0  0  0
  -19.3762   12.3468  -16.6678 C   0  0  0  0  0  0  0  0  0  0  0  0
  -20.9014   12.2714  -16.6724 C   0  0  0  0  0  0  0  0  0  0  0  0
  -23.3108   10.0373  -15.0403 C   0  0  0  0  0  0  0  0  0  0  0  0
  -23.4755    9.2022  -15.9594 O   0  0  0  0  0  0  0  0  0  0  0  0
  -22.2254   10.9337  -15.1125 N   0  0  0  0  0  0  0  0  0  0  0  0
  -22.0734   11.6288  -14.3652 H   0  0  0  0  0  0  0  0  0  0  0  0
  -24.2728   10.0421  -13.9130 C   0  0  0  0  0  0  0  0  0  0  0  0
  -24.3448   11.3942  -13.2648 C   0  0  0  0  0  0  0  0  0  0  0  0
  -24.2661   13.6989  -13.7711 C   0  0  0  0  0  0  0  0  0  0  0  0
  -24.8029   12.4144  -14.1713 N   0  0  0  0  0  0  0  0  0  0  0  0
  -26.2259   12.4793  -14.3106 C   0  0  0  0  0  0  0  0  0  0  0  0
  -16.9113   13.9684  -23.8969 N   0  0  0  0  0  0  0  0  0  0  0  0
  -16.4950   13.5545  -24.7787 H   0  0  0  0  0  0  0  0  0  0  0  0
  -17.2988   15.3335  -23.9695 C   0  0  0  0  0  0  0  0  0  0  0  0
  -18.4235   15.9611  -23.4670 C   0  0  0  0  0  0  0  0  0  0  0  0
  -18.3895   17.3194  -23.7774 C   0  0  0  0  0  0  0  0  0  0  0  0
  -17.2459   17.4775  -24.4590 N   0  0  0  0  0  0  0  0  0  0  0  0
  -16.6098   16.3227  -24.5716 N   0  0  0  0  0  0  0  0  0  0  0  0
  -15.3331   16.1304  -25.2531 C   0  0  0  0  0  0  0  0  0  0  0  0
  -19.3822   18.3298  -23.4327 C   0  0  0  0  0  0  0  0  0  0  0  0
  -20.7284   18.0617  -23.3917 C   0  0  0  0  0  0  0  0  0  0  0  0
  -21.6751   19.0071  -23.0681 C   0  0  0  0  0  0  0  0  0  0  0  0
  -21.2916   20.3028  -22.7627 C   0  0  0  0  0  0  0  0  0  0  0  0
  -22.2463   21.2590  -22.4354 O   0  0  0  0  0  0  0  0  0  0  0  0
  -19.9445   20.5865  -22.7996 C   0  0  0  0  0  0  0  0  0  0  0  0
  -19.0054   19.6198  -23.1281 C   0  0  0  0  0  0  0  0  0  0  0  0
  -21.9130   22.1878  -22.2212 H   0  0  0  0  0  0  0  0  0  0  0  0
 22 23  1  0  0  0
 23 24  1  0  0  0
 23 21  1  0  0  0
 21 20  1  0  0  0
 20 16  1  0  0  0
 16 17  2  0  0  0
 16 18  1  0  0  0
 18 10  1  0  0  0
 10 11  1  0  0  0
 11 12  1  0  0  0
 12 13  1  0  0  0
 13 14  1  0  0  0
 14 15  1  0  0  0
 13  1  1  0  0  0
  1  2  2  0  0  0
  2  3  1  0  0  0
  3  4  2  0  0  0
  4  5  1  0  0  0
  5  6  2  0  0  0
  6 25  1  0  0  0
 25 27  1  0  0  0
 27 28  2  0  0  0
 28 29  1  0  0  0
 29 30  2  0  0  0
 30 31  1  0  0  0
 31 32  1  0  0  0
 29 33  1  0  0  0
 33 34  2  0  0  0
 34 35  1  0  0  0
 35 36  2  0  0  0
 36 37  1  0  0  0
 36 38  1  0  0  0
 38 39  2  0  0  0
  6  7  1  0  0  0
  7  8  1  0  0  0
  8  9  2  0  0  0
 15 10  1  0  0  0
  9  1  1  0  0  0
  8  4  1  0  0  0
 31 27  1  0  0  0
 39 33  1  0  0  0
 18 19  1  0  0  0
 25 26  1  0  0  0
 37 40  1  0  0  0
M  END
> <minimizedAffinity>
-8.09999

> <CNNscore>
0.2510884106

> <CNNaffinity>
6.8242759705

> <CNN_VS>
1.7134965658

> <CNNaffinity_variance>
0.1232763976

$$$$
[H]Oc1c([H])c([H])c(-c2nn(C([H])([H])[H])c(N([H])c3nc4c([H])c([H])c(N5C([H])([H])C([H])([H])C([H])(N([H])C(=O)C([H])([H])C([H])([H])N(C([H])([H])[H])C([H])([H])[H])C([H])([H])C5([H])[H])c([H])c4o3)c2[H])c([H])c1[H]


 40 44  0  0  0  0  0  0  0  0999 V2000
  -18.2633   11.3944  -18.7515 C   0  0  0  0  0  0  0  0  0  0  0  0
  -17.2864   10.4818  -19.1285 C   0  0  0  0  0  0  0  0  0  0  0  0
  -16.6447   10.6450  -20.3348 C   0  0  0  0  0  0  0  0  0  0  0  0
  -16.9188   11.6795  -21.2074 C   0  0  0  0  0  0  0  0  0  0  0  0
  -16.4330   12.0333  -22.4102 N   0  0  0  0  0  0  0  0  0  0  0  0
  -17.0987   13.1441  -22.7677 C   0  0  0  0  0  0  0  0  0  0  0  0
  -17.9611   13.4400  -21.7942 O   0  0  0  0  0  0  0  0  0  0  0  0
  -17.8916   12.5843  -20.8272 C   0  0  0  0  0  0  0  0  0  0  0  0
  -18.5448   12.4363  -19.6220 C   0  0  0  0  0  0  0  0  0  0  0  0
  -21.3304   10.8621  -16.2441 C   0  0  0  0  0  0  0  0  0  0  0  0
  -20.1521    9.9604  -15.8993 C   0  0  0  0  0  0  0  0  0  0  0  0
  -19.2004    9.8765  -17.0533 C   0  0  0  0  0  0  0  0  0  0  0  0
  -18.9250   11.2329  -17.5183 N   0  0  0  0  0  0  0  0  0  0  0  0
  -19.3653   12.3007  -16.6530 C   0  0  0  0  0  0  0  0  0  0  0  0
  -20.8914   12.2466  -16.6621 C   0  0  0  0  0  0  0  0  0  0  0  0
  -23.3132    9.9887  -15.0612 C   0  0  0  0  0  0  0  0  0  0  0  0
  -23.4680    9.1520  -15.9806 O   0  0  0  0  0  0  0  0  0  0  0  0
  -22.2372   10.8965  -15.1319 N   0  0  0  0  0  0  0  0  0  0  0  0
  -22.0935   11.5930  -14.3843 H   0  0  0  0  0  0  0  0  0  0  0  0
  -24.2766    9.9831  -13.9351 C   0  0  0  0  0  0  0  0  0  0  0  0
  -23.7869    9.1257  -12.8043 C   0  0  0  0  0  0  0  0  0  0  0  0
  -21.8232    7.8466  -12.5186 C   0  0  0  0  0  0  0  0  0  0  0  0
  -22.3572    9.1870  -12.6477 N   0  0  0  0  0  0  0  0  0  0  0  0
  -21.9207   10.0146  -11.5646 C   0  0  0  0  0  0  0  0  0  0  0  0
  -16.9931   13.9348  -23.9264 N   0  0  0  0  0  0  0  0  0  0  0  0
  -16.6272   13.5038  -24.8222 H   0  0  0  0  0  0  0  0  0  0  0  0
  -17.3489   15.3088  -23.9936 C   0  0  0  0  0  0  0  0  0  0  0  0
  -18.4405   15.9665  -23.4575 C   0  0  0  0  0  0  0  0  0  0  0  0
  -18.3834   17.3220  -23.7763 C   0  0  0  0  0  0  0  0  0  0  0  0
  -17.2595   17.4485  -24.4963 N   0  0  0  0  0  0  0  0  0  0  0  0
  -16.6562   16.2778  -24.6236 N   0  0  0  0  0  0  0  0  0  0  0  0
  -15.4080   16.0506  -25.3461 C   0  0  0  0  0  0  0  0  0  0  0  0
  -19.3388   18.3585  -23.4044 C   0  0  0  0  0  0  0  0  0  0  0  0
  -20.6965   18.1536  -23.4191 C   0  0  0  0  0  0  0  0  0  0  0  0
  -21.6084   19.1241  -23.0705 C   0  0  0  0  0  0  0  0  0  0  0  0
  -21.1754   20.3809  -22.6804 C   0  0  0  0  0  0  0  0  0  0  0  0
  -22.0948   21.3622  -22.3279 O   0  0  0  0  0  0  0  0  0  0  0  0
  -19.8160   20.6010  -22.6607 C   0  0  0  0  0  0  0  0  0  0  0  0
  -18.9126   19.6098  -23.0156 C   0  0  0  0  0  0  0  0  0  0  0  0
  -21.7259   22.2606  -22.0511 H   0  0  0  0  0  0  0  0  0  0  0  0
 22 23  1  0  0  0
 23 24  1  0  0  0
 23 21  1  0  0  0
 21 20  1  0  0  0
 20 16  1  0  0  0
 16 17  2  0  0  0
 16 18  1  0  0  0
 18 10  1  0  0  0
 10 11  1  0  0  0
 11 12  1  0  0  0
 12 13  1  0  0  0
 13 14  1  0  0  0
 14 15  1  0  0  0
 13  1  1  0  0  0
  1  2  2  0  0  0
  2  3  1  0  0  0
  3  4  2  0  0  0
  4  5  1  0  0  0
  5  6  2  0  0  0
  6 25  1  0  0  0
 25 27  1  0  0  0
 27 28  2  0  0  0
 28 29  1  0  0  0
 29 30  2  0  0  0
 30 31  1  0  0  0
 31 32  1  0  0  0
 29 33  1  0  0  0
 33 34  2  0  0  0
 34 35  1  0  0  0
 35 36  2  0  0  0
 36 37  1  0  0  0
 36 38  1  0  0  0
 38 39  2  0  0  0
  6  7  1  0  0  0
  7  8  1  0  0  0
  8  9  2  0  0  0
 15 10  1  0  0  0
  9  1  1  0  0  0
  8  4  1  0  0  0
 31 27  1  0  0  0
 39 33  1  0  0  0
 18 19  1  0  0  0
 25 26  1  0  0  0
 37 40  1  0  0  0
M  END
> <minimizedAffinity>
-8.14174

> <CNNscore>
0.2298839837

> <CNNaffinity>
6.6933455467

> <CNN_VS>
1.5386929512

> <CNNaffinity_variance>
0.1111272126

$$$$
[H]c1c([H])c([H])c(-n2c(N([H])c3c([H])c(N([H])C(=O)c4c([H])c([H])c([H])c(C(F)(F)F)c4[H])c([H])c([H])c3C([H])([H])[H])nc3c([H])c([H])c([H])c([H])c32)c([H])c1[H]


 38 42  0  0  0  0  0  0  0  0999 V2000
  -15.1302   10.7677  -21.9198 C   0  0  0  0  0  0  0  0  0  0  0  0
  -16.1580   11.0011  -20.8650 C   0  0  0  0  0  0  0  0  0  0  0  0
  -15.9109   10.7023  -19.5457 C   0  0  0  0  0  0  0  0  0  0  0  0
  -16.8217   10.9246  -18.5628 C   0  0  0  0  0  0  0  0  0  0  0  0
  -18.0685   11.4832  -18.9185 C   0  0  0  0  0  0  0  0  0  0  0  0
  -18.3061   11.7704  -20.2371 C   0  0  0  0  0  0  0  0  0  0  0  0
  -17.3855   11.5476  -21.2491 C   0  0  0  0  0  0  0  0  0  0  0  0
  -18.8703   11.8320  -17.8151 N   0  0  0  0  0  0  0  0  0  0  0  0
  -19.5515   10.9875  -16.9565 C   0  0  0  0  0  0  0  0  0  0  0  0
  -19.5245    9.7122  -16.9869 O   0  0  0  0  0  0  0  0  0  0  0  0
  -18.9658   12.8942  -17.5819 H   0  0  0  0  0  0  0  0  0  0  0  0
  -20.4413   11.5839  -15.9111 C   0  0  0  0  0  0  0  0  0  0  0  0
  -21.1638   12.6956  -16.2801 C   0  0  0  0  0  0  0  0  0  0  0  0
  -21.8970   13.3506  -15.2907 C   0  0  0  0  0  0  0  0  0  0  0  0
  -21.9272   12.9345  -13.9824 C   0  0  0  0  0  0  0  0  0  0  0  0
  -21.1931   11.8176  -13.6292 C   0  0  0  0  0  0  0  0  0  0  0  0
  -20.4445   11.1338  -14.6104 C   0  0  0  0  0  0  0  0  0  0  0  0
  -21.1599   11.3835  -12.2356 C   0  0  0  0  0  0  0  0  0  0  0  0
  -19.9143   10.8681  -11.8593 F   0  0  0  0  0  0  0  0  0  0  0  0
  -22.0866   10.3431  -12.0187 F   0  0  0  0  0  0  0  0  0  0  0  0
  -21.5561   12.3807  -11.3704 F   0  0  0  0  0  0  0  0  0  0  0  0
  -17.5005   11.9928  -22.5431 N   0  0  0  0  0  0  0  0  0  0  0  0
  -18.1894   11.3372  -23.1258 H   0  0  0  0  0  0  0  0  0  0  0  0
  -16.9753   12.9971  -23.3263 C   0  0  0  0  0  0  0  0  0  0  0  0
  -16.3346   12.8866  -24.4755 N   0  0  0  0  0  0  0  0  0  0  0  0
  -15.9021   14.1064  -24.8846 C   0  0  0  0  0  0  0  0  0  0  0  0
  -15.1605   14.6014  -25.9124 C   0  0  0  0  0  0  0  0  0  0  0  0
  -14.8134   15.9562  -26.0178 C   0  0  0  0  0  0  0  0  0  0  0  0
  -15.2270   16.8500  -25.0568 C   0  0  0  0  0  0  0  0  0  0  0  0
  -16.0012   16.3728  -23.9776 C   0  0  0  0  0  0  0  0  0  0  0  0
  -16.3037   15.0174  -23.9376 C   0  0  0  0  0  0  0  0  0  0  0  0
  -16.9704   14.3063  -22.9779 N   0  0  0  0  0  0  0  0  0  0  0  0
  -17.6066   14.9674  -21.8808 C   0  0  0  0  0  0  0  0  0  0  0  0
  -18.9823   15.1764  -22.0028 C   0  0  0  0  0  0  0  0  0  0  0  0
  -19.6784   15.7848  -20.9846 C   0  0  0  0  0  0  0  0  0  0  0  0
  -19.0123   16.2074  -19.8072 C   0  0  0  0  0  0  0  0  0  0  0  0
  -17.6611   16.0002  -19.7044 C   0  0  0  0  0  0  0  0  0  0  0  0
  -16.9846   15.3789  -20.7445 C   0  0  0  0  0  0  0  0  0  0  0  0
  1  2  1  0  0  0
  2  3  2  0  0  0
  3  4  1  0  0  0
  4  5  2  0  0  0
  5  8  1  0  0  0
  8  9  1  0  0  0
  9 10  2  0  0  0
  9 12  1  0  0  0
 12 13  2  0  0  0
 13 14  1  0  0  0
 14 15  2  0  0  0
 15 16  1  0  0  0
 16 17  2  0  0  0
 16 18  1  0  0  0
 18 19  1  0  0  0
 18 20  1  0  0  0
 18 21  1  0  0  0
  5  6  1  0  0  0
  6  7  2  0  0  0
  7 22  1  0  0  0
 22 24  1  0  0  0
 24 25  2  0  0  0
 25 26  1  0  0  0
 26 27  2  0  0  0
 27 28  1  0  0  0
 28 29  2  0  0  0
 29 30  1  0  0  0
 30 31  2  0  0  0
 31 32  1  0  0  0
 32 33  1  0  0  0
 33 34  2  0  0  0
 34 35  1  0  0  0
 35 36  2  0  0  0
 36 37  1  0  0  0
 37 38  2  0  0  0
  7  2  1  0  0  0
 32 24  1  0  0  0
 38 33  1  0  0  0
 17 12  1  0  0  0
 31 26  1  0  0  0
  8 11  1  0  0  0
 22 23  1  0  0  0
M  END
> <minimizedAffinity>
-9.21377

> <CNNscore>
0.2406525463

> <CNNaffinity>
6.8662137985

> <CNN_VS>
1.6523718834

> <CNNaffinity_variance>
0.1705250442

$$$$
[H]c1c([H])c([H])c(-n2c(N([H])c3c([H])c(N([H])C(=O)c4c([H])c([H])c([H])c(C(F)(F)F)c4[H])c([H])c([H])c3C([H])([H])[H])nc3c([H])c([H])c([H])c([H])c32)c([H])c1[H]


 38 42  0  0  0  0  0  0  0  0999 V2000
  -15.5882   11.5390  -22.4293 C   0  0  0  0  0  0  0  0  0  0  0  0
  -16.4752   11.3706  -21.2426 C   0  0  0  0  0  0  0  0  0  0  0  0
  -16.1600   10.4935  -20.2315 C   0  0  0  0  0  0  0  0  0  0  0  0
  -16.9396   10.3366  -19.1303 C   0  0  0  0  0  0  0  0  0  0  0  0
  -18.1182   11.1072  -19.0284 C   0  0  0  0  0  0  0  0  0  0  0  0
  -18.4256   11.9727  -20.0452 C   0  0  0  0  0  0  0  0  0  0  0  0
  -17.6390   12.1413  -21.1739 C   0  0  0  0  0  0  0  0  0  0  0  0
  -18.7613   10.9991  -17.7807 N   0  0  0  0  0  0  0  0  0  0  0  0
  -19.1452    9.8471  -17.1174 C   0  0  0  0  0  0  0  0  0  0  0  0
  -18.9272    8.6526  -17.5091 O   0  0  0  0  0  0  0  0  0  0  0  0
  -18.9781   11.9268  -17.2476 H   0  0  0  0  0  0  0  0  0  0  0  0
  -19.9224    9.9711  -15.8442 C   0  0  0  0  0  0  0  0  0  0  0  0
  -21.1584   10.5698  -15.9342 C   0  0  0  0  0  0  0  0  0  0  0  0
  -21.8462   10.8195  -14.7468 C   0  0  0  0  0  0  0  0  0  0  0  0
  -21.3466   10.4942  -13.5097 C   0  0  0  0  0  0  0  0  0  0  0  0
  -20.1024    9.8961  -13.4382 C   0  0  0  0  0  0  0  0  0  0  0  0
  -19.3855    9.6293  -14.6238 C   0  0  0  0  0  0  0  0  0  0  0  0
  -19.5198    9.5896  -12.1350 C   0  0  0  0  0  0  0  0  0  0  0  0
  -18.5979    8.5378  -12.1886 F   0  0  0  0  0  0  0  0  0  0  0  0
  -20.5194    9.1774  -11.2300 F   0  0  0  0  0  0  0  0  0  0  0  0
  -18.9580   10.6999  -11.5421 F   0  0  0  0  0  0  0  0  0  0  0  0
  -17.8004   13.1253  -22.1180 N   0  0  0  0  0  0  0  0  0  0  0  0
  -17.5702   12.7353  -23.1373 H   0  0  0  0  0  0  0  0  0  0  0  0
  -18.1304   14.4624  -22.1510 C   0  0  0  0  0  0  0  0  0  0  0  0
  -19.0371   15.0983  -21.4321 N   0  0  0  0  0  0  0  0  0  0  0  0
  -19.1157   16.3948  -21.8259 C   0  0  0  0  0  0  0  0  0  0  0  0
  -19.8768   17.4797  -21.5176 C   0  0  0  0  0  0  0  0  0  0  0  0
  -19.7558   18.7088  -22.1822 C   0  0  0  0  0  0  0  0  0  0  0  0
  -18.8349   18.8570  -23.1939 C   0  0  0  0  0  0  0  0  0  0  0  0
  -18.0252   17.7537  -23.5386 C   0  0  0  0  0  0  0  0  0  0  0  0
  -18.2034   16.5667  -22.8388 C   0  0  0  0  0  0  0  0  0  0  0  0
  -17.6009   15.3527  -23.0243 N   0  0  0  0  0  0  0  0  0  0  0  0
  -16.5235   15.1996  -23.9523 C   0  0  0  0  0  0  0  0  0  0  0  0
  -16.8810   15.1016  -25.2990 C   0  0  0  0  0  0  0  0  0  0  0  0
  -15.9070   14.9750  -26.2617 C   0  0  0  0  0  0  0  0  0  0  0  0
  -14.5368   14.9397  -25.9012 C   0  0  0  0  0  0  0  0  0  0  0  0
  -14.2018   15.0315  -24.5751 C   0  0  0  0  0  0  0  0  0  0  0  0
  -15.2047   15.1642  -23.6253 C   0  0  0  0  0  0  0  0  0  0  0  0
  1  2  1  0  0  0
  2  3  2  0  0  0
  3  4  1  0  0  0
  4  5  2  0  0  0
  5  8  1  0  0  0
  8  9  1  0  0  0
  9 10  2  0  0  0
  9 12  1  0  0  0
 12 13  2  0  0  0
 13 14  1  0  0  0
 14 15  2  0  0  0
 15 16  1  0  0  0
 16 17  2  0  0  0
 16 18  1  0  0  0
 18 19  1  0  0  0
 18 20  1  0  0  0
 18 21  1  0  0  0
  5  6  1  0  0  0
  6  7  2  0  0  0
  7 22  1  0  0  0
 22 24  1  0  0  0
 24 25  2  0  0  0
 25 26  1  0  0  0
 26 27  2  0  0  0
 27 28  1  0  0  0
 28 29  2  0  0  0
 29 30  1  0  0  0
 30 31  2  0  0  0
 31 32  1  0  0  0
 32 33  1  0  0  0
 33 34  2  0  0  0
 34 35  1  0  0  0
 35 36  2  0  0  0
 36 37  1  0  0  0
 37 38  2  0  0  0
  7  2  1  0  0  0
 32 24  1  0  0  0
 38 33  1  0  0  0
 17 12  1  0  0  0
 31 26  1  0  0  0
  8 11  1  0  0  0
 22 23  1  0  0  0
M  END
> <minimizedAffinity>
-9.79510

> <CNNscore>
0.2383457720

> <CNNaffinity>
6.5889296532

> <CNN_VS>
1.5704435110

> <CNNaffinity_variance>
0.2412861288

$$$$
[H]c1c([H])c([H])c(-n2c(N([H])c3c([H])c(N([H])C(=O)c4c([H])c([H])c([H])c(C(F)(F)F)c4[H])c([H])c([H])c3C([H])([H])[H])nc3c([H])c([H])c([H])c([H])c32)c([H])c1[H]


 38 42  0  0  0  0  0  0  0  0999 V2000
  -15.8534   10.2452  -21.1724 C   0  0  0  0  0  0  0  0  0  0  0  0
  -16.6981   11.0891  -20.2793 C   0  0  0  0  0  0  0  0  0  0  0  0
  -16.6149   10.9889  -18.9103 C   0  0  0  0  0  0  0  0  0  0  0  0
  -17.3574   11.7602  -18.0743 C   0  0  0  0  0  0  0  0  0  0  0  0
  -18.2474   12.6980  -18.6415 C   0  0  0  0  0  0  0  0  0  0  0  0
  -18.3269   12.7842  -20.0067 C   0  0  0  0  0  0  0  0  0  0  0  0
  -17.5754   12.0024  -20.8701 C   0  0  0  0  0  0  0  0  0  0  0  0
  -18.8389   13.5613  -17.6997 N   0  0  0  0  0  0  0  0  0  0  0  0
  -20.1357   14.0436  -17.6831 C   0  0  0  0  0  0  0  0  0  0  0  0
  -21.0566   13.7368  -18.5111 O   0  0  0  0  0  0  0  0  0  0  0  0
  -18.2191   13.8890  -16.8629 H   0  0  0  0  0  0  0  0  0  0  0  0
  -20.5203   15.0470  -16.6412 C   0  0  0  0  0  0  0  0  0  0  0  0
  -21.6554   14.7727  -15.9129 C   0  0  0  0  0  0  0  0  0  0  0  0
  -22.1120   15.7512  -15.0301 C   0  0  0  0  0  0  0  0  0  0  0  0
  -21.4814   16.9592  -14.8603 C   0  0  0  0  0  0  0  0  0  0  0  0
  -20.3442   17.2187  -15.6022 C   0  0  0  0  0  0  0  0  0  0  0  0
  -19.8583   16.2455  -16.5008 C   0  0  0  0  0  0  0  0  0  0  0  0
  -19.6834   18.5154  -15.4856 C   0  0  0  0  0  0  0  0  0  0  0  0
  -18.8877   18.6157  -14.3385 F   0  0  0  0  0  0  0  0  0  0  0  0
  -20.6363   19.5496  -15.3828 F   0  0  0  0  0  0  0  0  0  0  0  0
  -18.9553   18.8316  -16.6126 F   0  0  0  0  0  0  0  0  0  0  0  0
  -17.4772   12.1835  -22.2278 N   0  0  0  0  0  0  0  0  0  0  0  0
  -17.9658   11.3427  -22.7740 H   0  0  0  0  0  0  0  0  0  0  0  0
  -16.9138   13.0915  -23.0973 C   0  0  0  0  0  0  0  0  0  0  0  0
  -16.2149   12.8501  -24.1911 N   0  0  0  0  0  0  0  0  0  0  0  0
  -15.7635   14.0158  -24.7200 C   0  0  0  0  0  0  0  0  0  0  0  0
  -14.9708   14.3907  -25.7603 C   0  0  0  0  0  0  0  0  0  0  0  0
  -14.6203   15.7259  -26.0083 C   0  0  0  0  0  0  0  0  0  0  0  0
  -15.0837   16.7244  -25.1828 C   0  0  0  0  0  0  0  0  0  0  0  0
  -15.9117   16.3731  -24.0951 C   0  0  0  0  0  0  0  0  0  0  0  0
  -16.2142   15.0298  -23.9096 C   0  0  0  0  0  0  0  0  0  0  0  0
  -16.9283   14.4329  -22.9072 N   0  0  0  0  0  0  0  0  0  0  0  0
  -17.6208   15.2148  -21.9303 C   0  0  0  0  0  0  0  0  0  0  0  0
  -16.8567   15.6720  -20.8542 C   0  0  0  0  0  0  0  0  0  0  0  0
  -17.4371   16.4501  -19.8799 C   0  0  0  0  0  0  0  0  0  0  0  0
  -18.8102   16.7931  -19.9536 C   0  0  0  0  0  0  0  0  0  0  0  0
  -19.5484   16.3325  -21.0129 C   0  0  0  0  0  0  0  0  0  0  0  0
  -18.9360   15.5539  -21.9846 C   0  0  0  0  0  0  0  0  0  0  0  0
  1  2  1  0  0  0
  2  3  2  0  0  0
  3  4  1  0  0  0
  4  5  2  0  0  0
  5  8  1  0  0  0
  8  9  1  0  0  0
  9 10  2  0  0  0
  9 12  1  0  0  0
 12 13  2  0  0  0
 13 14  1  0  0  0
 14 15  2  0  0  0
 15 16  1  0  0  0
 16 17  2  0  0  0
 16 18  1  0  0  0
 18 19  1  0  0  0
 18 20  1  0  0  0
 18 21  1  0  0  0
  5  6  1  0  0  0
  6  7  2  0  0  0
  7 22  1  0  0  0
 22 24  1  0  0  0
 24 25  2  0  0  0
 25 26  1  0  0  0
 26 27  2  0  0  0
 27 28  1  0  0  0
 28 29  2  0  0  0
 29 30  1  0  0  0
 30 31  2  0  0  0
 31 32  1  0  0  0
 32 33  1  0  0  0
 33 34  2  0  0  0
 34 35  1  0  0  0
 35 36  2  0  0  0
 36 37  1  0  0  0
 37 38  2  0  0  0
  7  2  1  0  0  0
 32 24  1  0  0  0
 38 33  1  0  0  0
 17 12  1  0  0  0
 31 26  1  0  0  0
  8 11  1  0  0  0
 22 23  1  0  0  0
M  END
> <minimizedAffinity>
-9.63515

> <CNNscore>
0.2247705460

> <CNNaffinity>
7.0844969749

> <CNN_VS>
1.5923862457

> <CNNaffinity_variance>
0.1795255840

$$$$
[H]c1c([H])c([H])c(-n2c(N([H])c3c([H])c(N([H])C(=O)c4c([H])c([H])c([H])c(C(F)(F)F)c4[H])c([H])c([H])c3C([H])([H])[H])nc3c([H])c([H])c([H])c([H])c32)c([H])c1[H]


 38 42  0  0  0  0  0  0  0  0999 V2000
  -16.2713   10.2204  -20.2731 C   0  0  0  0  0  0  0  0  0  0  0  0
  -17.3503   10.6362  -19.3318 C   0  0  0  0  0  0  0  0  0  0  0  0
  -17.8240    9.7825  -18.3633 C   0  0  0  0  0  0  0  0  0  0  0  0
  -18.7911   10.1433  -17.4802 C   0  0  0  0  0  0  0  0  0  0  0  0
  -19.3259   11.4469  -17.5679 C   0  0  0  0  0  0  0  0  0  0  0  0
  -18.8512   12.2864  -18.5413 C   0  0  0  0  0  0  0  0  0  0  0  0
  -17.8656   11.9299  -19.4484 C   0  0  0  0  0  0  0  0  0  0  0  0
  -20.1914   11.7782  -16.5081 N   0  0  0  0  0  0  0  0  0  0  0  0
  -21.0383   12.8679  -16.4090 C   0  0  0  0  0  0  0  0  0  0  0  0
  -21.2241   13.7529  -17.3091 O   0  0  0  0  0  0  0  0  0  0  0  0
  -20.2247   11.0952  -15.6571 H   0  0  0  0  0  0  0  0  0  0  0  0
  -21.7905   13.0850  -15.1333 C   0  0  0  0  0  0  0  0  0  0  0  0
  -22.6019   14.1954  -15.0794 C   0  0  0  0  0  0  0  0  0  0  0  0
  -23.2096   14.4962  -13.8606 C   0  0  0  0  0  0  0  0  0  0  0  0
  -23.0341   13.7377  -12.7293 C   0  0  0  0  0  0  0  0  0  0  0  0
  -22.2135   12.6277  -12.8012 C   0  0  0  0  0  0  0  0  0  0  0  0
  -21.5882   12.2982  -14.0223 C   0  0  0  0  0  0  0  0  0  0  0  0
  -21.9624   11.8335  -11.6021 C   0  0  0  0  0  0  0  0  0  0  0  0
  -22.7951   10.7122  -11.5118 F   0  0  0  0  0  0  0  0  0  0  0  0
  -22.2163   12.5939  -10.4421 F   0  0  0  0  0  0  0  0  0  0  0  0
  -20.6383   11.4674  -11.4883 F   0  0  0  0  0  0  0  0  0  0  0  0
  -17.2256   12.7886  -20.3080 N   0  0  0  0  0  0  0  0  0  0  0  0
  -16.4760   13.4077  -19.7612 H   0  0  0  0  0  0  0  0  0  0  0  0
  -17.2781   13.1212  -21.6438 C   0  0  0  0  0  0  0  0  0  0  0  0
  -17.2735   12.3130  -22.6879 N   0  0  0  0  0  0  0  0  0  0  0  0
  -17.2493   13.0375  -23.8354 C   0  0  0  0  0  0  0  0  0  0  0  0
  -17.1723   12.7793  -25.1690 C   0  0  0  0  0  0  0  0  0  0  0  0
  -17.0896   13.7906  -26.1373 C   0  0  0  0  0  0  0  0  0  0  0  0
  -17.0859   15.1122  -25.7542 C   0  0  0  0  0  0  0  0  0  0  0  0
  -17.1681   15.4182  -24.3789 C   0  0  0  0  0  0  0  0  0  0  0  0
  -17.2441   14.3640  -23.4770 C   0  0  0  0  0  0  0  0  0  0  0  0
  -17.2633   14.3934  -22.1096 N   0  0  0  0  0  0  0  0  0  0  0  0
  -17.3568   15.6321  -21.4010 C   0  0  0  0  0  0  0  0  0  0  0  0
  -18.6433   16.0381  -21.0390 C   0  0  0  0  0  0  0  0  0  0  0  0
  -18.8235   17.2059  -20.3353 C   0  0  0  0  0  0  0  0  0  0  0  0
  -17.7131   18.0087  -19.9734 C   0  0  0  0  0  0  0  0  0  0  0  0
  -16.4571   17.5999  -20.3404 C   0  0  0  0  0  0  0  0  0  0  0  0
  -16.3038   16.4145  -21.0452 C   0  0  0  0  0  0  0  0  0  0  0  0
  1  2  1  0  0  0
  2  3  2  0  0  0
  3  4  1  0  0  0
  4  5  2  0  0  0
  5  8  1  0  0  0
  8  9  1  0  0  0
  9 10  2  0  0  0
  9 12  1  0  0  0
 12 13  2  0  0  0
 13 14  1  0  0  0
 14 15  2  0  0  0
 15 16  1  0  0  0
 16 17  2  0  0  0
 16 18  1  0  0  0
 18 19  1  0  0  0
 18 20  1  0  0  0
 18 21  1  0  0  0
  5  6  1  0  0  0
  6  7  2  0  0  0
  7 22  1  0  0  0
 22 24  1  0  0  0
 24 25  2  0  0  0
 25 26  1  0  0  0
 26 27  2  0  0  0
 27 28  1  0  0  0
 28 29  2  0  0  0
 29 30  1  0  0  0
 30 31  2  0  0  0
 31 32  1  0  0  0
 32 33  1  0  0  0
 33 34  2  0  0  0
 34 35  1  0  0  0
 35 36  2  0  0  0
 36 37  1  0  0  0
 37 38  2  0  0  0
  7  2  1  0  0  0
 32 24  1  0  0  0
 38 33  1  0  0  0
 17 12  1  0  0  0
 31 26  1  0  0  0
  8 11  1  0  0  0
 22 23  1  0  0  0
M  END
> <minimizedAffinity>
-9.36478

> <CNNscore>
0.2243443131

> <CNNaffinity>
6.7485265732

> <CNN_VS>
1.5139935017

> <CNNaffinity_variance>
0.1495904773

$$$$
[H]c1c([H])c([H])c(-n2c(N([H])c3c([H])c(N([H])C(=O)c4c([H])c([H])c([H])c(C(F)(F)F)c4[H])c([H])c([H])c3C([H])([H])[H])nc3c([H])c([H])c([H])c([H])c32)c([H])c1[H]


 38 42  0  0  0  0  0  0  0  0999 V2000
  -15.3253   10.4155  -21.5442 C   0  0  0  0  0  0  0  0  0  0  0  0
  -16.3593   10.9008  -20.5857 C   0  0  0  0  0  0  0  0  0  0  0  0
  -16.2345   10.6935  -19.2320 C   0  0  0  0  0  0  0  0  0  0  0  0
  -17.1510   11.1433  -18.3360 C   0  0  0  0  0  0  0  0  0  0  0  0
  -18.2729   11.8491  -18.8221 C   0  0  0  0  0  0  0  0  0  0  0  0
  -18.3902   12.0436  -20.1734 C   0  0  0  0  0  0  0  0  0  0  0  0
  -17.4626   11.5891  -21.0976 C   0  0  0  0  0  0  0  0  0  0  0  0
  -19.0684   12.4182  -17.8095 N   0  0  0  0  0  0  0  0  0  0  0  0
  -19.9331   11.7738  -16.9426 C   0  0  0  0  0  0  0  0  0  0  0  0
  -20.1210   10.5136  -16.8757 O   0  0  0  0  0  0  0  0  0  0  0  0
  -18.9962   13.4977  -17.6637 H   0  0  0  0  0  0  0  0  0  0  0  0
  -20.7698   12.5956  -16.0126 C   0  0  0  0  0  0  0  0  0  0  0  0
  -21.2954   11.9440  -14.9202 C   0  0  0  0  0  0  0  0  0  0  0  0
  -22.1861   12.6491  -14.1109 C   0  0  0  0  0  0  0  0  0  0  0  0
  -22.5521   13.9497  -14.3568 C   0  0  0  0  0  0  0  0  0  0  0  0
  -22.0164   14.5875  -15.4600 C   0  0  0  0  0  0  0  0  0  0  0  0
  -21.1106   13.8990  -16.2945 C   0  0  0  0  0  0  0  0  0  0  0  0
  -22.4290   15.9509  -15.7799 C   0  0  0  0  0  0  0  0  0  0  0  0
  -23.6877   16.0062  -16.3894 F   0  0  0  0  0  0  0  0  0  0  0  0
  -21.5329   16.5374  -16.6970 F   0  0  0  0  0  0  0  0  0  0  0  0
  -22.3839   16.7799  -14.6795 F   0  0  0  0  0  0  0  0  0  0  0  0
  -17.4354   11.9227  -22.4294 N   0  0  0  0  0  0  0  0  0  0  0  0
  -17.9424   11.1406  -23.0421 H   0  0  0  0  0  0  0  0  0  0  0  0
  -16.9264   12.9313  -23.2178 C   0  0  0  0  0  0  0  0  0  0  0  0
  -16.2642   12.8243  -24.3550 N   0  0  0  0  0  0  0  0  0  0  0  0
  -15.8600   14.0505  -24.7737 C   0  0  0  0  0  0  0  0  0  0  0  0
  -15.1162   14.5531  -25.7961 C   0  0  0  0  0  0  0  0  0  0  0  0
  -14.8060   15.9158  -25.9143 C   0  0  0  0  0  0  0  0  0  0  0  0
  -15.2605   16.8098  -24.9722 C   0  0  0  0  0  0  0  0  0  0  0  0
  -16.0383   16.3248  -23.8991 C   0  0  0  0  0  0  0  0  0  0  0  0
  -16.3027   14.9618  -23.8456 C   0  0  0  0  0  0  0  0  0  0  0  0
  -16.9643   14.2446  -22.8870 N   0  0  0  0  0  0  0  0  0  0  0  0
  -17.6369   14.9014  -21.8092 C   0  0  0  0  0  0  0  0  0  0  0  0
  -18.9911   15.1802  -22.0080 C   0  0  0  0  0  0  0  0  0  0  0  0
  -19.7208   15.7898  -21.0143 C   0  0  0  0  0  0  0  0  0  0  0  0
  -19.1110   16.1432  -19.7848 C   0  0  0  0  0  0  0  0  0  0  0  0
  -17.7799   15.8680  -19.6066 C   0  0  0  0  0  0  0  0  0  0  0  0
  -17.0690   15.2472  -20.6238 C   0  0  0  0  0  0  0  0  0  0  0  0
  1  2  1  0  0  0
  2  3  2  0  0  0
  3  4  1  0  0  0
  4  5  2  0  0  0
  5  8  1  0  0  0
  8  9  1  0  0  0
  9 10  2  0  0  0
  9 12  1  0  0  0
 12 13  2  0  0  0
 13 14  1  0  0  0
 14 15  2  0  0  0
 15 16  1  0  0  0
 16 17  2  0  0  0
 16 18  1  0  0  0
 18 19  1  0  0  0
 18 20  1  0  0  0
 18 21  1  0  0  0
  5  6  1  0  0  0
  6  7  2  0  0  0
  7 22  1  0  0  0
 22 24  1  0  0  0
 24 25  2  0  0  0
 25 26  1  0  0  0
 26 27  2  0  0  0
 27 28  1  0  0  0
 28 29  2  0  0  0
 29 30  1  0  0  0
 30 31  2  0  0  0
 31 32  1  0  0  0
 32 33  1  0  0  0
 33 34  2  0  0  0
 34 35  1  0  0  0
 35 36  2  0  0  0
 36 37  1  0  0  0
 37 38  2  0  0  0
  7  2  1  0  0  0
 32 24  1  0  0  0
 38 33  1  0  0  0
 17 12  1  0  0  0
 31 26  1  0  0  0
  8 11  1  0  0  0
 22 23  1  0  0  0
M  END
> <minimizedAffinity>
-9.24408

> <CNNscore>
0.2014831156

> <CNNaffinity>
6.7845268250

> <CNN_VS>
1.3669675589

> <CNNaffinity_variance>
0.3294985890

$$$$
[H]c1c([H])c([H])c(-n2c(N([H])c3c([H])c(N([H])C(=O)c4c([H])c([H])c([H])c(C(F)(F)F)c4[H])c([H])c([H])c3C([H])([H])[H])nc3c([H])c([H])c([H])c([H])c32)c([H])c1[H]


 38 42  0  0  0  0  0  0  0  0999 V2000
  -15.7116   10.4632  -21.0719 C   0  0  0  0  0  0  0  0  0  0  0  0
  -16.8284   11.1402  -20.3525 C   0  0  0  0  0  0  0  0  0  0  0  0
  -16.9375   11.0822  -18.9830 C   0  0  0  0  0  0  0  0  0  0  0  0
  -17.9327   11.7072  -18.3017 C   0  0  0  0  0  0  0  0  0  0  0  0
  -18.8887   12.4419  -19.0363 C   0  0  0  0  0  0  0  0  0  0  0  0
  -18.7738   12.4869  -20.4009 C   0  0  0  0  0  0  0  0  0  0  0  0
  -17.7638   11.8530  -21.1075 C   0  0  0  0  0  0  0  0  0  0  0  0
  -19.7712   13.1885  -18.2327 N   0  0  0  0  0  0  0  0  0  0  0  0
  -19.4556   14.0914  -17.2329 C   0  0  0  0  0  0  0  0  0  0  0  0
  -18.2786   14.4513  -16.8967 O   0  0  0  0  0  0  0  0  0  0  0  0
  -20.8403   13.0660  -18.4165 H   0  0  0  0  0  0  0  0  0  0  0  0
  -20.5634   14.6908  -16.4242 C   0  0  0  0  0  0  0  0  0  0  0  0
  -20.5178   16.0531  -16.2336 C   0  0  0  0  0  0  0  0  0  0  0  0
  -21.4596   16.6197  -15.3749 C   0  0  0  0  0  0  0  0  0  0  0  0
  -22.4177   15.8826  -14.7234 C   0  0  0  0  0  0  0  0  0  0  0  0
  -22.4468   14.5153  -14.9246 C   0  0  0  0  0  0  0  0  0  0  0  0
  -21.5077   13.9157  -15.7902 C   0  0  0  0  0  0  0  0  0  0  0  0
  -23.4172   13.6973  -14.2029 C   0  0  0  0  0  0  0  0  0  0  0  0
  -24.7353   13.9398  -14.6064 F   0  0  0  0  0  0  0  0  0  0  0  0
  -23.3795   13.9855  -12.8232 F   0  0  0  0  0  0  0  0  0  0  0  0
  -23.1239   12.3527  -14.2798 F   0  0  0  0  0  0  0  0  0  0  0  0
  -17.4960   12.0261  -22.4432 N   0  0  0  0  0  0  0  0  0  0  0  0
  -17.8023   11.1261  -23.0265 H   0  0  0  0  0  0  0  0  0  0  0  0
  -16.9237   12.9826  -23.2528 C   0  0  0  0  0  0  0  0  0  0  0  0
  -16.1989   12.8039  -24.3419 N   0  0  0  0  0  0  0  0  0  0  0  0
  -15.7486   13.9993  -24.8008 C   0  0  0  0  0  0  0  0  0  0  0  0
  -14.9378   14.4343  -25.8031 C   0  0  0  0  0  0  0  0  0  0  0  0
  -14.5962   15.7837  -25.9752 C   0  0  0  0  0  0  0  0  0  0  0  0
  -15.0878   16.7343  -25.1104 C   0  0  0  0  0  0  0  0  0  0  0  0
  -15.9353   16.3202  -24.0605 C   0  0  0  0  0  0  0  0  0  0  0  0
  -16.2274   14.9663  -23.9501 C   0  0  0  0  0  0  0  0  0  0  0  0
  -16.9565   14.3123  -22.9953 N   0  0  0  0  0  0  0  0  0  0  0  0
  -17.6781   15.0368  -21.9954 C   0  0  0  0  0  0  0  0  0  0  0  0
  -16.9556   15.3979  -20.8559 C   0  0  0  0  0  0  0  0  0  0  0  0
  -17.5652   16.1162  -19.8539 C   0  0  0  0  0  0  0  0  0  0  0  0
  -18.9267   16.4942  -19.9632 C   0  0  0  0  0  0  0  0  0  0  0  0
  -19.6242   16.1279  -21.0850 C   0  0  0  0  0  0  0  0  0  0  0  0
  -18.9827   15.4082  -22.0830 C   0  0  0  0  0  0  0  0  0  0  0  0
  1  2  1  0  0  0
  2  3  2  0  0  0
  3  4  1  0  0  0
  4  5  2  0  0  0
  5  8  1  0  0  0
  8  9  1  0  0  0
  9 10  2  0  0  0
  9 12  1  0  0  0
 12 13  2  0  0  0
 13 14  1  0  0  0
 14 15  2  0  0  0
 15 16  1  0  0  0
 16 17  2  0  0  0
 16 18  1  0  0  0
 18 19  1  0  0  0
 18 20  1  0  0  0
 18 21  1  0  0  0
  5  6  1  0  0  0
  6  7  2  0  0  0
  7 22  1  0  0  0
 22 24  1  0  0  0
 24 25  2  0  0  0
 25 26  1  0  0  0
 26 27  2  0  0  0
 27 28  1  0  0  0
 28 29  2  0  0  0
 29 30  1  0  0  0
 30 31  2  0  0  0
 31 32  1  0  0  0
 32 33  1  0  0  0
 33 34  2  0  0  0
 34 35  1  0  0  0
 35 36  2  0  0  0
 36 37  1  0  0  0
 37 38  2  0  0  0
  7  2  1  0  0  0
 32 24  1  0  0  0
 38 33  1  0  0  0
 17 12  1  0  0  0
 31 26  1  0  0  0
  8 11  1  0  0  0
 22 23  1  0  0  0
M  END
> <minimizedAffinity>
-9.23998

> <CNNscore>
0.1842744648

> <CNNaffinity>
6.7487730980

> <CNN_VS>
1.2436265945

> <CNNaffinity_variance>
0.3190869689

$$$$
[H]c1c([H])c([H])c(-n2c(N([H])c3c([H])c(N([H])C(=O)c4c([H])c([H])c([H])c(C(F)(F)F)c4[H])c([H])c([H])c3C([H])([H])[H])nc3c([H])c([H])c([H])c([H])c32)c([H])c1[H]


 38 42  0  0  0  0  0  0  0  0999 V2000
  -15.7000   10.7731  -20.7617 C   0  0  0  0  0  0  0  0  0  0  0  0
  -16.8689   10.7899  -19.8362 C   0  0  0  0  0  0  0  0  0  0  0  0
  -17.1171    9.7454  -18.9770 C   0  0  0  0  0  0  0  0  0  0  0  0
  -18.1623    9.7448  -18.1094 C   0  0  0  0  0  0  0  0  0  0  0  0
  -19.0231   10.8638  -18.0968 C   0  0  0  0  0  0  0  0  0  0  0  0
  -18.7700   11.8956  -18.9622 C   0  0  0  0  0  0  0  0  0  0  0  0
  -17.7076   11.9076  -19.8525 C   0  0  0  0  0  0  0  0  0  0  0  0
  -19.9660   10.8434  -17.0516 N   0  0  0  0  0  0  0  0  0  0  0  0
  -20.1610   11.7904  -16.0618 C   0  0  0  0  0  0  0  0  0  0  0  0
  -19.5387   12.8993  -15.9570 O   0  0  0  0  0  0  0  0  0  0  0  0
  -20.6472    9.9914  -17.0088 H   0  0  0  0  0  0  0  0  0  0  0  0
  -21.1528   11.5082  -14.9768 C   0  0  0  0  0  0  0  0  0  0  0  0
  -20.7571   11.8000  -13.6913 C   0  0  0  0  0  0  0  0  0  0  0  0
  -21.6060   11.4242  -12.6503 C   0  0  0  0  0  0  0  0  0  0  0  0
  -22.8044   10.7856  -12.8551 C   0  0  0  0  0  0  0  0  0  0  0  0
  -23.1843   10.4980  -14.1527 C   0  0  0  0  0  0  0  0  0  0  0  0
  -22.3462   10.8693  -15.2253 C   0  0  0  0  0  0  0  0  0  0  0  0
  -24.4255    9.7700  -14.3997 C   0  0  0  0  0  0  0  0  0  0  0  0
  -24.2103    8.5169  -14.9848 F   0  0  0  0  0  0  0  0  0  0  0  0
  -25.2444   10.4790  -15.3024 F   0  0  0  0  0  0  0  0  0  0  0  0
  -25.1941    9.6507  -13.2616 F   0  0  0  0  0  0  0  0  0  0  0  0
  -17.3026   12.9893  -20.5952 N   0  0  0  0  0  0  0  0  0  0  0  0
  -16.9137   13.7986  -19.9334 H   0  0  0  0  0  0  0  0  0  0  0  0
  -17.2776   13.3643  -21.9206 C   0  0  0  0  0  0  0  0  0  0  0  0
  -17.2624   12.5888  -22.9891 N   0  0  0  0  0  0  0  0  0  0  0  0
  -17.1513   13.3458  -24.1102 C   0  0  0  0  0  0  0  0  0  0  0  0
  -17.0248   13.1246  -25.4467 C   0  0  0  0  0  0  0  0  0  0  0  0
  -16.8503   14.1596  -26.3770 C   0  0  0  0  0  0  0  0  0  0  0  0
  -16.8026   15.4673  -25.9515 C   0  0  0  0  0  0  0  0  0  0  0  0
  -16.9342   15.7351  -24.5720 C   0  0  0  0  0  0  0  0  0  0  0  0
  -17.1009   14.6590  -23.7091 C   0  0  0  0  0  0  0  0  0  0  0  0
  -17.1820   14.6478  -22.3437 N   0  0  0  0  0  0  0  0  0  0  0  0
  -17.2504   15.8676  -21.6003 C   0  0  0  0  0  0  0  0  0  0  0  0
  -18.5322   16.3513  -21.3285 C   0  0  0  0  0  0  0  0  0  0  0  0
  -18.6912   17.5066  -20.5994 C   0  0  0  0  0  0  0  0  0  0  0  0
  -17.5630   18.2181  -20.1201 C   0  0  0  0  0  0  0  0  0  0  0  0
  -16.3114   17.7339  -20.3995 C   0  0  0  0  0  0  0  0  0  0  0  0
  -16.1803   16.5630  -21.1324 C   0  0  0  0  0  0  0  0  0  0  0  0
  1  2  1  0  0  0
  2  3  2  0  0  0
  3  4  1  0  0  0
  4  5  2  0  0  0
  5  8  1  0  0  0
  8  9  1  0  0  0
  9 10  2  0  0  0
  9 12  1  0  0  0
 12 13  2  0  0  0
 13 14  1  0  0  0
 14 15  2  0  0  0
 15 16  1  0  0  0
 16 17  2  0  0  0
 16 18  1  0  0  0
 18 19  1  0  0  0
 18 20  1  0  0  0
 18 21  1  0  0  0
  5  6  1  0  0  0
  6  7  2  0  0  0
  7 22  1  0  0  0
 22 24  1  0  0  0
 24 25  2  0  0  0
 25 26  1  0  0  0
 26 27  2  0  0  0
 27 28  1  0  0  0
 28 29  2  0  0  0
 29 30  1  0  0  0
 30 31  2  0  0  0
 31 32  1  0  0  0
 32 33  1  0  0  0
 33 34  2  0  0  0
 34 35  1  0  0  0
 35 36  2  0  0  0
 36 37  1  0  0  0
 37 38  2  0  0  0
  7  2  1  0  0  0
 32 24  1  0  0  0
 38 33  1  0  0  0
 17 12  1  0  0  0
 31 26  1  0  0  0
  8 11  1  0  0  0
 22 23  1  0  0  0
M  END
> <minimizedAffinity>
-8.70552

> <CNNscore>
0.1656343043

> <CNNaffinity>
6.6476440430

> <CNN_VS>
1.1010779142

> <CNNaffinity_variance>
0.1097609848

$$$$
[H]c1c([H])c([H])c(-n2c(N([H])c3c([H])c(N([H])C(=O)c4c([H])c([H])c([H])c(C(F)(F)F)c4[H])c([H])c([H])c3C([H])([H])[H])nc3c([H])c([H])c([H])c([H])c32)c([H])c1[H]


 38 42  0  0  0  0  0  0  0  0999 V2000
  -15.4529   10.8005  -21.6452 C   0  0  0  0  0  0  0  0  0  0  0  0
  -16.5359   10.9760  -20.6355 C   0  0  0  0  0  0  0  0  0  0  0  0
  -16.7413   10.0523  -19.6377 C   0  0  0  0  0  0  0  0  0  0  0  0
  -17.7068   10.1986  -18.6934 C   0  0  0  0  0  0  0  0  0  0  0  0
  -18.5274   11.3462  -18.7465 C   0  0  0  0  0  0  0  0  0  0  0  0
  -18.3180   12.2563  -19.7492 C   0  0  0  0  0  0  0  0  0  0  0  0
  -17.3371   12.1179  -20.7188 C   0  0  0  0  0  0  0  0  0  0  0  0
  -19.3761   11.4896  -17.6324 N   0  0  0  0  0  0  0  0  0  0  0  0
  -19.4689   12.5636  -16.7651 C   0  0  0  0  0  0  0  0  0  0  0  0
  -18.8218   13.6590  -16.8618 O   0  0  0  0  0  0  0  0  0  0  0  0
  -20.0649   10.6698  -17.4193 H   0  0  0  0  0  0  0  0  0  0  0  0
  -20.3671   12.4543  -15.5727 C   0  0  0  0  0  0  0  0  0  0  0  0
  -20.0758   11.4540  -14.6734 C   0  0  0  0  0  0  0  0  0  0  0  0
  -20.9715   11.2431  -13.6252 C   0  0  0  0  0  0  0  0  0  0  0  0
  -22.1149   11.9849  -13.4569 C   0  0  0  0  0  0  0  0  0  0  0  0
  -22.3928   12.9836  -14.3714 C   0  0  0  0  0  0  0  0  0  0  0  0
  -21.5025   13.2207  -15.4401 C   0  0  0  0  0  0  0  0  0  0  0  0
  -23.6284   13.7520  -14.2518 C   0  0  0  0  0  0  0  0  0  0  0  0
  -23.7740   14.3497  -12.9947 F   0  0  0  0  0  0  0  0  0  0  0  0
  -24.7507   12.9132  -14.4097 F   0  0  0  0  0  0  0  0  0  0  0  0
  -23.7576   14.6890  -15.2546 F   0  0  0  0  0  0  0  0  0  0  0  0
  -16.9642   13.0858  -21.6188 N   0  0  0  0  0  0  0  0  0  0  0  0
  -16.2651   12.6674  -22.3805 H   0  0  0  0  0  0  0  0  0  0  0  0
  -17.1839   14.4310  -21.8191 C   0  0  0  0  0  0  0  0  0  0  0  0
  -17.3168   15.3811  -20.9119 N   0  0  0  0  0  0  0  0  0  0  0  0
  -17.6077   16.5614  -21.5156 C   0  0  0  0  0  0  0  0  0  0  0  0
  -17.9077   17.8286  -21.1213 C   0  0  0  0  0  0  0  0  0  0  0  0
  -18.2454   18.8475  -22.0242 C   0  0  0  0  0  0  0  0  0  0  0  0
  -18.2820   18.5867  -23.3747 C   0  0  0  0  0  0  0  0  0  0  0  0
  -17.9729   17.2839  -23.8208 C   0  0  0  0  0  0  0  0  0  0  0  0
  -17.6506   16.3249  -22.8684 C   0  0  0  0  0  0  0  0  0  0  0  0
  -17.3832   14.9939  -23.0351 N   0  0  0  0  0  0  0  0  0  0  0  0
  -17.2583   14.4261  -24.3418 C   0  0  0  0  0  0  0  0  0  0  0  0
  -17.8635   13.1817  -24.5321 C   0  0  0  0  0  0  0  0  0  0  0  0
  -17.8119   12.5731  -25.7644 C   0  0  0  0  0  0  0  0  0  0  0  0
  -17.1455   13.1958  -26.8492 C   0  0  0  0  0  0  0  0  0  0  0  0
  -16.5517   14.4144  -26.6455 C   0  0  0  0  0  0  0  0  0  0  0  0
  -16.6240   15.0083  -25.3935 C   0  0  0  0  0  0  0  0  0  0  0  0
  1  2  1  0  0  0
  2  3  2  0  0  0
  3  4  1  0  0  0
  4  5  2  0  0  0
  5  8  1  0  0  0
  8  9  1  0  0  0
  9 10  2  0  0  0
  9 12  1  0  0  0
 12 13  2  0  0  0
 13 14  1  0  0  0
 14 15  2  0  0  0
 15 16  1  0  0  0
 16 17  2  0  0  0
 16 18  1  0  0  0
 18 19  1  0  0  0
 18 20  1  0  0  0
 18 21  1  0  0  0
  5  6  1  0  0  0
  6  7  2  0  0  0
  7 22  1  0  0  0
 22 24  1  0  0  0
 24 25  2  0  0  0
 25 26  1  0  0  0
 26 27  2  0  0  0
 27 28  1  0  0  0
 28 29  2  0  0  0
 29 30  1  0  0  0
 30 31  2  0  0  0
 31 32  1  0  0  0
 32 33  1  0  0  0
 33 34  2  0  0  0
 34 35  1  0  0  0
 35 36  2  0  0  0
 36 37  1  0  0  0
 37 38  2  0  0  0
  7  2  1  0  0  0
 32 24  1  0  0  0
 38 33  1  0  0  0
 17 12  1  0  0  0
 31 26  1  0  0  0
  8 11  1  0  0  0
 22 23  1  0  0  0
M  END
> <minimizedAffinity>
-9.25463

> <CNNscore>
0.1577093899

> <CNNaffinity>
6.6105003357

> <CNN_VS>
1.0425379276

> <CNNaffinity_variance>
0.2771087885

$$$$
[H]c1c([H])c([H])c(-n2c(N([H])c3c([H])c(N([H])C(=O)c4c([H])c([H])c([H])c(C(F)(F)F)c4[H])c([H])c([H])c3C([H])([H])[H])nc3c([H])c([H])c([H])c([H])c32)c([H])c1[H]


 38 42  0  0  0  0  0  0  0  0999 V2000
  -16.6071    9.9201  -19.6809 C   0  0  0  0  0  0  0  0  0  0  0  0
  -17.6918   10.4110  -18.7833 C   0  0  0  0  0  0  0  0  0  0  0  0
  -18.2494    9.5993  -17.8235 C   0  0  0  0  0  0  0  0  0  0  0  0
  -19.2236   10.0280  -16.9795 C   0  0  0  0  0  0  0  0  0  0  0  0
  -19.6763   11.3598  -17.1001 C   0  0  0  0  0  0  0  0  0  0  0  0
  -19.1182   12.1572  -18.0646 C   0  0  0  0  0  0  0  0  0  0  0  0
  -18.1244   11.7315  -18.9321 C   0  0  0  0  0  0  0  0  0  0  0  0
  -20.5571   11.7553  -16.0755 N   0  0  0  0  0  0  0  0  0  0  0  0
  -21.2289   12.9581  -15.9471 C   0  0  0  0  0  0  0  0  0  0  0  0
  -21.2060   13.9190  -16.7862 O   0  0  0  0  0  0  0  0  0  0  0  0
  -20.7607   11.0318  -15.2838 H   0  0  0  0  0  0  0  0  0  0  0  0
  -22.0323   13.2087  -14.7093 C   0  0  0  0  0  0  0  0  0  0  0  0
  -22.8445   14.3197  -14.7180 C   0  0  0  0  0  0  0  0  0  0  0  0
  -23.5012   14.6525  -13.5334 C   0  0  0  0  0  0  0  0  0  0  0  0
  -23.3724   13.9244  -12.3762 C   0  0  0  0  0  0  0  0  0  0  0  0
  -22.5503   12.8131  -12.3851 C   0  0  0  0  0  0  0  0  0  0  0  0
  -21.8759   12.4516  -13.5706 C   0  0  0  0  0  0  0  0  0  0  0  0
  -22.3487   12.0512  -11.1561 C   0  0  0  0  0  0  0  0  0  0  0  0
  -21.4154   12.6449  -10.2986 F   0  0  0  0  0  0  0  0  0  0  0  0
  -21.8408   10.7682  -11.4463 F   0  0  0  0  0  0  0  0  0  0  0  0
  -23.5332   11.8087  -10.4940 F   0  0  0  0  0  0  0  0  0  0  0  0
  -17.4044   12.5397  -19.7771 N   0  0  0  0  0  0  0  0  0  0  0  0
  -16.5019   12.9445  -19.2616 H   0  0  0  0  0  0  0  0  0  0  0  0
  -17.5066   13.0157  -21.0659 C   0  0  0  0  0  0  0  0  0  0  0  0
  -17.0595   12.4635  -22.1787 N   0  0  0  0  0  0  0  0  0  0  0  0
  -17.2856   13.2910  -23.2306 C   0  0  0  0  0  0  0  0  0  0  0  0
  -17.0038   13.3014  -24.5617 C   0  0  0  0  0  0  0  0  0  0  0  0
  -17.3216   14.3807  -25.3991 C   0  0  0  0  0  0  0  0  0  0  0  0
  -17.9477   15.4919  -24.8829 C   0  0  0  0  0  0  0  0  0  0  0  0
  -18.2589   15.5149  -23.5065 C   0  0  0  0  0  0  0  0  0  0  0  0
  -17.9110   14.4109  -22.7380 C   0  0  0  0  0  0  0  0  0  0  0  0
  -18.0396   14.2184  -21.3899 N   0  0  0  0  0  0  0  0  0  0  0  0
  -18.7377   15.1635  -20.5746 C   0  0  0  0  0  0  0  0  0  0  0  0
  -17.9561   16.1525  -19.9729 C   0  0  0  0  0  0  0  0  0  0  0  0
  -18.5485   17.1159  -19.1902 C   0  0  0  0  0  0  0  0  0  0  0  0
  -19.9505   17.1154  -18.9832 C   0  0  0  0  0  0  0  0  0  0  0  0
  -20.7036   16.1353  -19.5759 C   0  0  0  0  0  0  0  0  0  0  0  0
  -20.0806   15.1790  -20.3651 C   0  0  0  0  0  0  0  0  0  0  0  0
  1  2  1  0  0  0
  2  3  2  0  0  0
  3  4  1  0  0  0
  4  5  2  0  0  0
  5  8  1  0  0  0
  8  9  1  0  0  0
  9 10  2  0  0  0
  9 12  1  0  0  0
 12 13  2  0  0  0
 13 14  1  0  0  0
 14 15  2  0  0  0
 15 16  1  0  0  0
 16 17  2  0  0  0
 16 18  1  0  0  0
 18 19  1  0  0  0
 18 20  1  0  0  0
 18 21  1  0  0  0
  5  6  1  0  0  0
  6  7  2  0  0  0
  7 22  1  0  0  0
 22 24  1  0  0  0
 24 25  2  0  0  0
 25 26  1  0  0  0
 26 27  2  0  0  0
 27 28  1  0  0  0
 28 29  2  0  0  0
 29 30  1  0  0  0
 30 31  2  0  0  0
 31 32  1  0  0  0
 32 33  1  0  0  0
 33 34  2  0  0  0
 34 35  1  0  0  0
 35 36  2  0  0  0
 36 37  1  0  0  0
 37 38  2  0  0  0
  7  2  1  0  0  0
 32 24  1  0  0  0
 38 33  1  0  0  0
 17 12  1  0  0  0
 31 26  1  0  0  0
  8 11  1  0  0  0
 22 23  1  0  0  0
M  END
> <minimizedAffinity>
-8.93172

> <CNNscore>
0.1522550434

> <CNNaffinity>
6.6332144737

> <CNN_VS>
1.0099403858

> <CNNaffinity_variance>
0.1388572156

$$$$
[H]C([H])=C([H])C(=O)N1C([H])([H])C([H])([H])C([H])([H])C([H])(n2nc(-c3c([H])nc(N4C([H])([H])C([H])([H])C([H])([H])[C@@]4([H])C4([H])C([H])([H])C4(C([H])([H])[H])C([H])([H])[H])c([H])c3[H])c3c(N([H])[H])nc([H])nc32)C1([H])[H]


 38 43  0  0  0  0  0  0  0  0999 V2000
  -18.5999   12.2816  -19.3683 C   0  0  0  0  0  0  0  0  0  0  0  0
  -18.7607   13.3159  -20.2482 N   0  0  0  0  0  0  0  0  0  0  0  0
  -17.9238   13.1984  -21.2510 N   0  0  0  0  0  0  0  0  0  0  0  0
  -17.1896   12.0947  -21.0682 C   0  0  0  0  0  0  0  0  0  0  0  0
  -16.1993   11.5426  -21.7935 N   0  0  0  0  0  0  0  0  0  0  0  0
  -15.6230   10.4212  -21.3512 C   0  0  0  0  0  0  0  0  0  0  0  0
  -15.9932    9.8224  -20.2089 N   0  0  0  0  0  0  0  0  0  0  0  0
  -16.9862   10.3391  -19.4423 C   0  0  0  0  0  0  0  0  0  0  0  0
  -17.3493    9.7251  -18.2165 N   0  0  0  0  0  0  0  0  0  0  0  0
  -17.6029   11.4935  -19.8713 C   0  0  0  0  0  0  0  0  0  0  0  0
  -17.1436   10.1275  -17.2783 H   0  0  0  0  0  0  0  0  0  0  0  0
  -17.8610    8.8026  -18.2126 H   0  0  0  0  0  0  0  0  0  0  0  0
  -17.8223   14.1198  -22.3626 C   0  0  0  0  0  0  0  0  0  0  0  0
  -17.7437   15.5076  -21.7708 C   0  0  0  0  0  0  0  0  0  0  0  0
  -16.3722   16.0914  -22.0742 C   0  0  0  0  0  0  0  0  0  0  0  0
  -16.2139   16.2527  -23.5970 C   0  0  0  0  0  0  0  0  0  0  0  0
  -16.3868   14.9608  -24.1770 N   0  0  0  0  0  0  0  0  0  0  0  0
  -16.6687   13.8669  -23.2616 C   0  0  0  0  0  0  0  0  0  0  0  0
  -16.2882   14.7111  -25.5460 C   0  0  0  0  0  0  0  0  0  0  0  0
  -16.5103   13.4283  -25.8251 O   0  0  0  0  0  0  0  0  0  0  0  0
  -16.0013   15.5691  -26.6410 C   0  0  0  0  0  0  0  0  0  0  0  0
  -15.8454   15.2871  -27.8778 C   0  0  0  0  0  0  0  0  0  0  0  0
  -20.8553   11.7877  -15.8758 C   0  0  0  0  0  0  0  0  0  0  0  0
  -20.6618   13.0632  -16.4256 C   0  0  0  0  0  0  0  0  0  0  0  0
  -19.9008   13.2289  -17.5619 C   0  0  0  0  0  0  0  0  0  0  0  0
  -19.3408   12.1144  -18.1369 C   0  0  0  0  0  0  0  0  0  0  0  0
  -19.5468   10.8920  -17.5820 C   0  0  0  0  0  0  0  0  0  0  0  0
  -20.2790   10.7547  -16.4925 N   0  0  0  0  0  0  0  0  0  0  0  0
  -22.0737   10.4251  -14.0843 C   0  0  0  0  0  0  0  0  0  0  0  0
  -21.4202   10.6586  -12.6876 C   0  0  0  0  0  0  0  0  0  0  0  0
  -21.6979   12.1345  -12.4807 C   0  0  0  0  0  0  0  0  0  0  0  0
  -22.1028   12.6972  -13.8514 C   0  0  0  0  0  0  0  0  0  0  0  0
  -21.6198   11.6455  -14.7115 N   0  0  0  0  0  0  0  0  0  0  0  0
  -25.7936   10.0378  -15.1601 C   0  0  0  0  0  0  0  0  0  0  0  0
  -24.3974    9.5287  -14.7705 C   0  0  0  0  0  0  0  0  0  0  0  0
  -23.7795    8.6913  -15.8556 C   0  0  0  0  0  0  0  0  0  0  0  0
  -24.1895    9.1275  -13.3511 C   0  0  0  0  0  0  0  0  0  0  0  0
  -23.5664   10.3561  -13.8987 C   0  0  0  0  0  0  0  0  0  0  0  0
 34 35  1  0  0  0
 35 36  1  0  0  0
 35 37  1  0  0  0
 37 38  1  0  0  0
 38 29  1  0  0  0
 29 30  1  0  0  0
 30 31  1  0  0  0
 31 32  1  0  0  0
 32 33  1  0  0  0
 33 23  1  0  0  0
 23 24  2  0  0  0
 24 25  1  0  0  0
 25 26  2  0  0  0
 26 27  1  0  0  0
 27 28  2  0  0  0
 26  1  1  0  0  0
  1  2  2  0  0  0
  2  3  1  0  0  0
  3 13  1  0  0  0
 13 14  1  0  0  0
 14 15  1  0  0  0
 15 16  1  0  0  0
 16 17  1  0  0  0
 17 18  1  0  0  0
 17 19  1  0  0  0
 19 20  2  0  0  0
 19 21  1  0  0  0
 21 22  2  0  0  0
  3  4  1  0  0  0
  4  5  2  0  0  0
  5  6  1  0  0  0
  6  7  2  0  0  0
  7  8  1  0  0  0
  8  9  1  0  0  0
  8 10  2  0  0  0
 38 35  1  0  0  0
 33 29  1  0  0  0
 28 23  1  0  0  0
 10  1  1  0  0  0
 18 13  1  0  0  0
 10  4  1  0  0  0
  9 11  1  0  0  0
  9 12  1  0  0  0
M  END
> <minimizedAffinity>
-10.02950

> <CNNscore>
0.9060345292

> <CNNaffinity>
7.7498488426

> <CNN_VS>
7.0216307640

> <CNNaffinity_variance>
0.0160105005

$$$$
[H]C([H])=C([H])C(=O)N1C([H])([H])C([H])([H])C([H])([H])C([H])(n2nc(-c3c([H])nc(N4C([H])([H])C([H])([H])C([H])([H])[C@@]4([H])C4([H])C([H])([H])C4(C([H])([H])[H])C([H])([H])[H])c([H])c3[H])c3c(N([H])[H])nc([H])nc32)C1([H])[H]


 38 43  0  0  0  0  0  0  0  0999 V2000
  -18.7270   12.2876  -19.2738 C   0  0  0  0  0  0  0  0  0  0  0  0
  -18.8375   13.3188  -20.1651 N   0  0  0  0  0  0  0  0  0  0  0  0
  -17.9700   13.1776  -21.1386 N   0  0  0  0  0  0  0  0  0  0  0  0
  -17.2647   12.0608  -20.9242 C   0  0  0  0  0  0  0  0  0  0  0  0
  -16.2620   11.4841  -21.6123 N   0  0  0  0  0  0  0  0  0  0  0  0
  -15.7235   10.3546  -21.1439 C   0  0  0  0  0  0  0  0  0  0  0  0
  -16.1437    9.7712  -20.0108 N   0  0  0  0  0  0  0  0  0  0  0  0
  -17.1512   10.3129  -19.2814 C   0  0  0  0  0  0  0  0  0  0  0  0
  -17.5674    9.7148  -18.0645 N   0  0  0  0  0  0  0  0  0  0  0  0
  -17.7299   11.4763  -19.7380 C   0  0  0  0  0  0  0  0  0  0  0  0
  -17.3850   10.1196  -17.1226 H   0  0  0  0  0  0  0  0  0  0  0  0
  -18.0973    8.8027  -18.0720 H   0  0  0  0  0  0  0  0  0  0  0  0
  -17.8129   14.0890  -22.2519 C   0  0  0  0  0  0  0  0  0  0  0  0
  -17.7323   15.4796  -21.6670 C   0  0  0  0  0  0  0  0  0  0  0  0
  -16.3411   16.0383  -21.9244 C   0  0  0  0  0  0  0  0  0  0  0  0
  -16.1252   16.1858  -23.4415 C   0  0  0  0  0  0  0  0  0  0  0  0
  -16.2987   14.8928  -24.0186 N   0  0  0  0  0  0  0  0  0  0  0  0
  -16.6320   13.8104  -23.1068 C   0  0  0  0  0  0  0  0  0  0  0  0
  -16.1550   14.6314  -25.3814 C   0  0  0  0  0  0  0  0  0  0  0  0
  -16.3884   13.3504  -25.6598 O   0  0  0  0  0  0  0  0  0  0  0  0
  -15.8142   15.4764  -26.4711 C   0  0  0  0  0  0  0  0  0  0  0  0
  -16.0022   15.3062  -27.7238 C   0  0  0  0  0  0  0  0  0  0  0  0
  -21.1066   11.8565  -15.8562 C   0  0  0  0  0  0  0  0  0  0  0  0
  -20.9196   13.1173  -16.4408 C   0  0  0  0  0  0  0  0  0  0  0  0
  -20.1184   13.2633  -17.5519 C   0  0  0  0  0  0  0  0  0  0  0  0
  -19.5119   12.1438  -18.0670 C   0  0  0  0  0  0  0  0  0  0  0  0
  -19.7126   10.9359  -17.4794 C   0  0  0  0  0  0  0  0  0  0  0  0
  -20.4839   10.8175  -16.4150 N   0  0  0  0  0  0  0  0  0  0  0  0
  -21.6729   12.2600  -13.3930 C   0  0  0  0  0  0  0  0  0  0  0  0
  -22.9796   13.1023  -13.2681 C   0  0  0  0  0  0  0  0  0  0  0  0
  -23.9949   12.1539  -13.8748 C   0  0  0  0  0  0  0  0  0  0  0  0
  -23.1929   11.0780  -14.6220 C   0  0  0  0  0  0  0  0  0  0  0  0
  -21.9129   11.7349  -14.7181 N   0  0  0  0  0  0  0  0  0  0  0  0
  -20.7137    8.9159  -11.6491 C   0  0  0  0  0  0  0  0  0  0  0  0
  -20.5089   10.3846  -12.0508 C   0  0  0  0  0  0  0  0  0  0  0  0
  -19.2383   10.5843  -12.8293 C   0  0  0  0  0  0  0  0  0  0  0  0
  -20.9144   11.4242  -11.0641 C   0  0  0  0  0  0  0  0  0  0  0  0
  -21.6850   11.2113  -12.3126 C   0  0  0  0  0  0  0  0  0  0  0  0
 34 35  1  0  0  0
 35 36  1  0  0  0
 35 37  1  0  0  0
 37 38  1  0  0  0
 38 29  1  0  0  0
 29 30  1  0  0  0
 30 31  1  0  0  0
 31 32  1  0  0  0
 32 33  1  0  0  0
 33 23  1  0  0  0
 23 24  2  0  0  0
 24 25  1  0  0  0
 25 26  2  0  0  0
 26 27  1  0  0  0
 27 28  2  0  0  0
 26  1  1  0  0  0
  1  2  2  0  0  0
  2  3  1  0  0  0
  3 13  1  0  0  0
 13 14  1  0  0  0
 14 15  1  0  0  0
 15 16  1  0  0  0
 16 17  1  0  0  0
 17 18  1  0  0  0
 17 19  1  0  0  0
 19 20  2  0  0  0
 19 21  1  0  0  0
 21 22  2  0  0  0
  3  4  1  0  0  0
  4  5  2  0  0  0
  5  6  1  0  0  0
  6  7  2  0  0  0
  7  8  1  0  0  0
  8  9  1  0  0  0
  8 10  2  0  0  0
 38 35  1  0  0  0
 33 29  1  0  0  0
 28 23  1  0  0  0
 10  1  1  0  0  0
 18 13  1  0  0  0
 10  4  1  0  0  0
  9 11  1  0  0  0
  9 12  1  0  0  0
M  END
> <minimizedAffinity>
-9.99028

> <CNNscore>
0.8730627894

> <CNNaffinity>
7.7222619057

> <CNN_VS>
6.7420196533

> <CNNaffinity_variance>
0.0267409384

$$$$
[H]C([H])=C([H])C(=O)N1C([H])([H])C([H])([H])C([H])([H])C([H])(n2nc(-c3c([H])nc(N4C([H])([H])C([H])([H])C([H])([H])[C@@]4([H])C4([H])C([H])([H])C4(C([H])([H])[H])C([H])([H])[H])c([H])c3[H])c3c(N([H])[H])nc([H])nc32)C1([H])[H]


 38 43  0  0  0  0  0  0  0  0999 V2000
  -18.3804   12.4031  -19.4332 C   0  0  0  0  0  0  0  0  0  0  0  0
  -18.5643   13.4294  -20.3179 N   0  0  0  0  0  0  0  0  0  0  0  0
  -17.7867   13.2778  -21.3631 N   0  0  0  0  0  0  0  0  0  0  0  0
  -17.0702   12.1588  -21.2044 C   0  0  0  0  0  0  0  0  0  0  0  0
  -16.1347   11.5728  -21.9744 N   0  0  0  0  0  0  0  0  0  0  0  0
  -15.5622   10.4434  -21.5479 C   0  0  0  0  0  0  0  0  0  0  0  0
  -15.8835    9.8691  -20.3785 N   0  0  0  0  0  0  0  0  0  0  0  0
  -16.8203   10.4203  -19.5666 C   0  0  0  0  0  0  0  0  0  0  0  0
  -17.1304    9.8319  -18.3140 N   0  0  0  0  0  0  0  0  0  0  0  0
  -17.4317   11.5839  -19.9781 C   0  0  0  0  0  0  0  0  0  0  0  0
  -16.8639   10.2414  -17.3944 H   0  0  0  0  0  0  0  0  0  0  0  0
  -17.6631    8.9224  -18.2688 H   0  0  0  0  0  0  0  0  0  0  0  0
  -17.7241   14.1816  -22.4918 C   0  0  0  0  0  0  0  0  0  0  0  0
  -17.7162   15.5827  -21.9267 C   0  0  0  0  0  0  0  0  0  0  0  0
  -16.3732   16.2267  -22.2353 C   0  0  0  0  0  0  0  0  0  0  0  0
  -16.2147   16.3663  -23.7602 C   0  0  0  0  0  0  0  0  0  0  0  0
  -16.3214   15.0567  -24.3158 N   0  0  0  0  0  0  0  0  0  0  0  0
  -16.5547   13.9681  -23.3807 C   0  0  0  0  0  0  0  0  0  0  0  0
  -16.2035   14.7860  -25.6792 C   0  0  0  0  0  0  0  0  0  0  0  0
  -16.3614   13.4887  -25.9344 O   0  0  0  0  0  0  0  0  0  0  0  0
  -15.9527   15.6357  -26.7894 C   0  0  0  0  0  0  0  0  0  0  0  0
  -15.9428   15.3632  -28.0380 C   0  0  0  0  0  0  0  0  0  0  0  0
  -20.4505   12.0535  -15.8109 C   0  0  0  0  0  0  0  0  0  0  0  0
  -19.9165   13.2868  -16.2112 C   0  0  0  0  0  0  0  0  0  0  0  0
  -19.2156   13.3975  -17.3920 C   0  0  0  0  0  0  0  0  0  0  0  0
  -19.0565   12.2707  -18.1609 C   0  0  0  0  0  0  0  0  0  0  0  0
  -19.5860   11.0903  -17.7474 C   0  0  0  0  0  0  0  0  0  0  0  0
  -20.2539   11.0054  -16.6123 N   0  0  0  0  0  0  0  0  0  0  0  0
  -22.5331   12.2727  -14.3393 C   0  0  0  0  0  0  0  0  0  0  0  0
  -22.9539   10.8774  -13.7840 C   0  0  0  0  0  0  0  0  0  0  0  0
  -21.7552   10.5351  -12.9213 C   0  0  0  0  0  0  0  0  0  0  0  0
  -20.6336   11.5008  -13.3324 C   0  0  0  0  0  0  0  0  0  0  0  0
  -21.1457   11.9618  -14.5991 N   0  0  0  0  0  0  0  0  0  0  0  0
  -23.6066   15.6735  -12.7816 C   0  0  0  0  0  0  0  0  0  0  0  0
  -23.8379   14.2473  -13.3039 C   0  0  0  0  0  0  0  0  0  0  0  0
  -24.8296   14.2145  -14.4334 C   0  0  0  0  0  0  0  0  0  0  0  0
  -23.8619   13.1485  -12.2985 C   0  0  0  0  0  0  0  0  0  0  0  0
  -22.7336   13.2920  -13.2493 C   0  0  0  0  0  0  0  0  0  0  0  0
 34 35  1  0  0  0
 35 36  1  0  0  0
 35 37  1  0  0  0
 37 38  1  0  0  0
 38 29  1  0  0  0
 29 30  1  0  0  0
 30 31  1  0  0  0
 31 32  1  0  0  0
 32 33  1  0  0  0
 33 23  1  0  0  0
 23 24  2  0  0  0
 24 25  1  0  0  0
 25 26  2  0  0  0
 26 27  1  0  0  0
 27 28  2  0  0  0
 26  1  1  0  0  0
  1  2  2  0  0  0
  2  3  1  0  0  0
  3 13  1  0  0  0
 13 14  1  0  0  0
 14 15  1  0  0  0
 15 16  1  0  0  0
 16 17  1  0  0  0
 17 18  1  0  0  0
 17 19  1  0  0  0
 19 20  2  0  0  0
 19 21  1  0  0  0
 21 22  2  0  0  0
  3  4  1  0  0  0
  4  5  2  0  0  0
  5  6  1  0  0  0
  6  7  2  0  0  0
  7  8  1  0  0  0
  8  9  1  0  0  0
  8 10  2  0  0  0
 38 35  1  0  0  0
 33 29  1  0  0  0
 28 23  1  0  0  0
 10  1  1  0  0  0
 18 13  1  0  0  0
 10  4  1  0  0  0
  9 11  1  0  0  0
  9 12  1  0  0  0
M  END
> <minimizedAffinity>
-9.36310

> <CNNscore>
0.8336821198

> <CNNaffinity>
7.6337928772

> <CNN_VS>
6.3641567230

> <CNNaffinity_variance>
0.0153870936

$$$$
[H]C([H])=C([H])C(=O)N1C([H])([H])C([H])([H])C([H])([H])C([H])(n2nc(-c3c([H])nc(N4C([H])([H])C([H])([H])C([H])([H])[C@@]4([H])C4([H])C([H])([H])C4(C([H])([H])[H])C([H])([H])[H])c([H])c3[H])c3c(N([H])[H])nc([H])nc32)C1([H])[H]


 38 43  0  0  0  0  0  0  0  0999 V2000
  -19.6418   11.8237  -17.5157 C   0  0  0  0  0  0  0  0  0  0  0  0
  -20.1001   12.9864  -18.0705 N   0  0  0  0  0  0  0  0  0  0  0  0
  -19.5189   13.2026  -19.2262 N   0  0  0  0  0  0  0  0  0  0  0  0
  -18.6657   12.2009  -19.4698 C   0  0  0  0  0  0  0  0  0  0  0  0
  -17.8309   11.9602  -20.4977 N   0  0  0  0  0  0  0  0  0  0  0  0
  -17.0671   10.8644  -20.4662 C   0  0  0  0  0  0  0  0  0  0  0  0
  -17.0991    9.9922  -19.4469 N   0  0  0  0  0  0  0  0  0  0  0  0
  -17.9235   10.1896  -18.3877 C   0  0  0  0  0  0  0  0  0  0  0  0
  -17.9274    9.2863  -17.2943 N   0  0  0  0  0  0  0  0  0  0  0  0
  -18.7263   11.3088  -18.3902 C   0  0  0  0  0  0  0  0  0  0  0  0
  -17.5415    9.5074  -16.3527 H   0  0  0  0  0  0  0  0  0  0  0  0
  -18.3380    8.3205  -17.4014 H   0  0  0  0  0  0  0  0  0  0  0  0
  -19.7686   14.3420  -20.0830 C   0  0  0  0  0  0  0  0  0  0  0  0
  -21.2243   14.7065  -19.9081 C   0  0  0  0  0  0  0  0  0  0  0  0
  -21.3099   16.0743  -19.2480 C   0  0  0  0  0  0  0  0  0  0  0  0
  -20.7014   17.1312  -20.1876 C   0  0  0  0  0  0  0  0  0  0  0  0
  -19.3526   16.7418  -20.4411 N   0  0  0  0  0  0  0  0  0  0  0  0
  -18.8984   15.5131  -19.8102 C   0  0  0  0  0  0  0  0  0  0  0  0
  -18.4749   17.4772  -21.2380 C   0  0  0  0  0  0  0  0  0  0  0  0
  -17.2851   16.8862  -21.3269 O   0  0  0  0  0  0  0  0  0  0  0  0
  -18.6408   18.7017  -21.9385 C   0  0  0  0  0  0  0  0  0  0  0  0
  -18.4235   19.8992  -21.5485 C   0  0  0  0  0  0  0  0  0  0  0  0
  -20.7310   10.2069  -13.8105 C   0  0  0  0  0  0  0  0  0  0  0  0
  -21.3177    9.7367  -14.9943 C   0  0  0  0  0  0  0  0  0  0  0  0
  -20.9765   10.2840  -16.2116 C   0  0  0  0  0  0  0  0  0  0  0  0
  -20.0500   11.2977  -16.2312 C   0  0  0  0  0  0  0  0  0  0  0  0
  -19.4982   11.7313  -15.0683 C   0  0  0  0  0  0  0  0  0  0  0  0
  -19.8392   11.1937  -13.9122 N   0  0  0  0  0  0  0  0  0  0  0  0
  -20.7170   10.0632  -11.2551 C   0  0  0  0  0  0  0  0  0  0  0  0
  -22.1507   10.3046  -10.6907 C   0  0  0  0  0  0  0  0  0  0  0  0
  -22.8921    9.1126  -11.2632 C   0  0  0  0  0  0  0  0  0  0  0  0
  -21.9967    8.5333  -12.3686 C   0  0  0  0  0  0  0  0  0  0  0  0
  -21.1049    9.6459  -12.5834 N   0  0  0  0  0  0  0  0  0  0  0  0
  -17.7884    8.0565   -9.6612 C   0  0  0  0  0  0  0  0  0  0  0  0
  -18.8057    9.2048   -9.7439 C   0  0  0  0  0  0  0  0  0  0  0  0
  -18.1353   10.5498   -9.7883 C   0  0  0  0  0  0  0  0  0  0  0  0
  -20.0646    9.0582   -8.9613 C   0  0  0  0  0  0  0  0  0  0  0  0
  -20.0689    8.9746  -10.4414 C   0  0  0  0  0  0  0  0  0  0  0  0
 34 35  1  0  0  0
 35 36  1  0  0  0
 35 37  1  0  0  0
 37 38  1  0  0  0
 38 29  1  0  0  0
 29 30  1  0  0  0
 30 31  1  0  0  0
 31 32  1  0  0  0
 32 33  1  0  0  0
 33 23  1  0  0  0
 23 24  2  0  0  0
 24 25  1  0  0  0
 25 26  2  0  0  0
 26 27  1  0  0  0
 27 28  2  0  0  0
 26  1  1  0  0  0
  1  2  2  0  0  0
  2  3  1  0  0  0
  3 13  1  0  0  0
 13 14  1  0  0  0
 14 15  1  0  0  0
 15 16  1  0  0  0
 16 17  1  0  0  0
 17 18  1  0  0  0
 17 19  1  0  0  0
 19 20  2  0  0  0
 19 21  1  0  0  0
 21 22  2  0  0  0
  3  4  1  0  0  0
  4  5  2  0  0  0
  5  6  1  0  0  0
  6  7  2  0  0  0
  7  8  1  0  0  0
  8  9  1  0  0  0
  8 10  2  0  0  0
 38 35  1  0  0  0
 33 29  1  0  0  0
 28 23  1  0  0  0
 10  1  1  0  0  0
 18 13  1  0  0  0
 10  4  1  0  0  0
  9 11  1  0  0  0
  9 12  1  0  0  0
M  END
> <minimizedAffinity>
-7.84056

> <CNNscore>
0.4203606546

> <CNNaffinity>
7.0496239662

> <CNN_VS>
2.9633846283

> <CNNaffinity_variance>
0.1105528474

$$$$
[H]C([H])=C([H])C(=O)N1C([H])([H])C([H])([H])C([H])([H])C([H])(n2nc(-c3c([H])nc(N4C([H])([H])C([H])([H])C([H])([H])[C@@]4([H])C4([H])C([H])([H])C4(C([H])([H])[H])C([H])([H])[H])c([H])c3[H])c3c(N([H])[H])nc([H])nc32)C1([H])[H]


 38 43  0  0  0  0  0  0  0  0999 V2000
  -19.6763   11.7904  -17.3370 C   0  0  0  0  0  0  0  0  0  0  0  0
  -20.0453   13.0148  -17.8214 N   0  0  0  0  0  0  0  0  0  0  0  0
  -19.4023   13.2802  -18.9332 N   0  0  0  0  0  0  0  0  0  0  0  0
  -18.5950   12.2513  -19.2164 C   0  0  0  0  0  0  0  0  0  0  0  0
  -17.7296   12.0379  -20.2249 N   0  0  0  0  0  0  0  0  0  0  0  0
  -17.0289   10.9004  -20.2446 C   0  0  0  0  0  0  0  0  0  0  0  0
  -17.1538    9.9600  -19.2956 N   0  0  0  0  0  0  0  0  0  0  0  0
  -18.0126   10.1274  -18.2588 C   0  0  0  0  0  0  0  0  0  0  0  0
  -18.1145    9.1489  -17.2371 N   0  0  0  0  0  0  0  0  0  0  0  0
  -18.7521   11.2883  -18.2099 C   0  0  0  0  0  0  0  0  0  0  0  0
  -17.7593    9.2786  -16.2668 H   0  0  0  0  0  0  0  0  0  0  0  0
  -18.5720    8.2188  -17.4327 H   0  0  0  0  0  0  0  0  0  0  0  0
  -19.5510   14.4913  -19.7117 C   0  0  0  0  0  0  0  0  0  0  0  0
  -21.0311   14.6737  -19.9529 C   0  0  0  0  0  0  0  0  0  0  0  0
  -21.4951   15.9243  -19.2218 C   0  0  0  0  0  0  0  0  0  0  0  0
  -20.7957   17.1554  -19.8261 C   0  0  0  0  0  0  0  0  0  0  0  0
  -19.3905   16.9477  -19.6942 N   0  0  0  0  0  0  0  0  0  0  0  0
  -18.9703   15.7005  -19.0763 C   0  0  0  0  0  0  0  0  0  0  0  0
  -18.4323   17.8714  -20.1124 C   0  0  0  0  0  0  0  0  0  0  0  0
  -17.1969   17.4262  -19.8921 O   0  0  0  0  0  0  0  0  0  0  0  0
  -18.5587   19.1541  -20.7091 C   0  0  0  0  0  0  0  0  0  0  0  0
  -18.4306   19.4996  -21.9329 C   0  0  0  0  0  0  0  0  0  0  0  0
  -21.0207    9.9715  -13.8139 C   0  0  0  0  0  0  0  0  0  0  0  0
  -21.6190    9.6697  -15.0458 C   0  0  0  0  0  0  0  0  0  0  0  0
  -21.1922   10.2849  -16.2021 C   0  0  0  0  0  0  0  0  0  0  0  0
  -20.1694   11.1971  -16.1131 C   0  0  0  0  0  0  0  0  0  0  0  0
  -19.6090   11.4681  -14.9060 C   0  0  0  0  0  0  0  0  0  0  0  0
  -20.0328   10.8680  -13.8096 N   0  0  0  0  0  0  0  0  0  0  0  0
  -22.5836    9.7375  -11.8006 C   0  0  0  0  0  0  0  0  0  0  0  0
  -23.3976    8.4107  -11.8974 C   0  0  0  0  0  0  0  0  0  0  0  0
  -22.2879    7.3822  -11.8023 C   0  0  0  0  0  0  0  0  0  0  0  0
  -20.9731    8.1368  -12.0494 C   0  0  0  0  0  0  0  0  0  0  0  0
  -21.4817    9.3453  -12.6496 N   0  0  0  0  0  0  0  0  0  0  0  0
  -20.7240   11.3826   -8.8040 C   0  0  0  0  0  0  0  0  0  0  0  0
  -21.8317   11.2715   -9.8627 C   0  0  0  0  0  0  0  0  0  0  0  0
  -21.8696   12.4717  -10.7673 C   0  0  0  0  0  0  0  0  0  0  0  0
  -23.1193   10.6531   -9.4400 C   0  0  0  0  0  0  0  0  0  0  0  0
  -22.1965    9.9470  -10.3607 C   0  0  0  0  0  0  0  0  0  0  0  0
 34 35  1  0  0  0
 35 36  1  0  0  0
 35 37  1  0  0  0
 37 38  1  0  0  0
 38 29  1  0  0  0
 29 30  1  0  0  0
 30 31  1  0  0  0
 31 32  1  0  0  0
 32 33  1  0  0  0
 33 23  1  0  0  0
 23 24  2  0  0  0
 24 25  1  0  0  0
 25 26  2  0  0  0
 26 27  1  0  0  0
 27 28  2  0  0  0
 26  1  1  0  0  0
  1  2  2  0  0  0
  2  3  1  0  0  0
  3 13  1  0  0  0
 13 14  1  0  0  0
 14 15  1  0  0  0
 15 16  1  0  0  0
 16 17  1  0  0  0
 17 18  1  0  0  0
 17 19  1  0  0  0
 19 20  2  0  0  0
 19 21  1  0  0  0
 21 22  2  0  0  0
  3  4  1  0  0  0
  4  5  2  0  0  0
  5  6  1  0  0  0
  6  7  2  0  0  0
  7  8  1  0  0  0
  8  9  1  0  0  0
  8 10  2  0  0  0
 38 35  1  0  0  0
 33 29  1  0  0  0
 28 23  1  0  0  0
 10  1  1  0  0  0
 18 13  1  0  0  0
 10  4  1  0  0  0
  9 11  1  0  0  0
  9 12  1  0  0  0
M  END
> <minimizedAffinity>
-7.44541

> <CNNscore>
0.3203609586

> <CNNaffinity>
6.8668494225

> <CNN_VS>
2.1998703480

> <CNNaffinity_variance>
0.2342685163

$$$$
[H]C([H])=C([H])C(=O)N1C([H])([H])C([H])([H])C([H])([H])C([H])(n2nc(-c3c([H])nc(N4C([H])([H])C([H])([H])C([H])([H])[C@@]4([H])C4([H])C([H])([H])C4(C([H])([H])[H])C([H])([H])[H])c([H])c3[H])c3c(N([H])[H])nc([H])nc32)C1([H])[H]


 38 43  0  0  0  0  0  0  0  0999 V2000
  -18.3672   13.4492  -20.5351 C   0  0  0  0  0  0  0  0  0  0  0  0
  -18.0123   13.8559  -21.7915 N   0  0  0  0  0  0  0  0  0  0  0  0
  -17.1860   12.9947  -22.3352 N   0  0  0  0  0  0  0  0  0  0  0  0
  -16.9692   12.0017  -21.4647 C   0  0  0  0  0  0  0  0  0  0  0  0
  -16.2037   10.8968  -21.5327 N   0  0  0  0  0  0  0  0  0  0  0  0
  -16.1662   10.0717  -20.4825 C   0  0  0  0  0  0  0  0  0  0  0  0
  -16.8631   10.3021  -19.3592 N   0  0  0  0  0  0  0  0  0  0  0  0
  -17.6495   11.4013  -19.2412 C   0  0  0  0  0  0  0  0  0  0  0  0
  -18.3549   11.6620  -18.0387 N   0  0  0  0  0  0  0  0  0  0  0  0
  -17.7124   12.2714  -20.3071 C   0  0  0  0  0  0  0  0  0  0  0  0
  -18.1102   12.4229  -17.3713 H   0  0  0  0  0  0  0  0  0  0  0  0
  -19.1852   11.0702  -17.7680 H   0  0  0  0  0  0  0  0  0  0  0  0
  -16.6109   13.1142  -23.6580 C   0  0  0  0  0  0  0  0  0  0  0  0
  -17.3041   12.0913  -24.5272 C   0  0  0  0  0  0  0  0  0  0  0  0
  -18.1210   12.8202  -25.5832 C   0  0  0  0  0  0  0  0  0  0  0  0
  -17.1729   13.6099  -26.5038 C   0  0  0  0  0  0  0  0  0  0  0  0
  -16.4386   14.5115  -25.6774 N   0  0  0  0  0  0  0  0  0  0  0  0
  -16.7233   14.4697  -24.2522 C   0  0  0  0  0  0  0  0  0  0  0  0
  -15.4941   15.4127  -26.1694 C   0  0  0  0  0  0  0  0  0  0  0  0
  -14.9413   16.1238  -25.1887 O   0  0  0  0  0  0  0  0  0  0  0  0
  -15.0479   15.6808  -27.4909 C   0  0  0  0  0  0  0  0  0  0  0  0
  -15.7162   15.7495  -28.5782 C   0  0  0  0  0  0  0  0  0  0  0  0
  -20.8952   15.4521  -17.8656 C   0  0  0  0  0  0  0  0  0  0  0  0
  -21.4226   14.5844  -18.8329 C   0  0  0  0  0  0  0  0  0  0  0  0
  -20.5931   13.9427  -19.7262 C   0  0  0  0  0  0  0  0  0  0  0  0
  -19.2424   14.1766  -19.6418 C   0  0  0  0  0  0  0  0  0  0  0  0
  -18.7611   15.0216  -18.6937 C   0  0  0  0  0  0  0  0  0  0  0  0
  -19.5729   15.6270  -17.8473 N   0  0  0  0  0  0  0  0  0  0  0  0
  -22.0238   17.5219  -16.8691 C   0  0  0  0  0  0  0  0  0  0  0  0
  -23.5661   17.4586  -17.0919 C   0  0  0  0  0  0  0  0  0  0  0  0
  -23.9278   16.2369  -16.2705 C   0  0  0  0  0  0  0  0  0  0  0  0
  -22.6111   15.4990  -15.9854 C   0  0  0  0  0  0  0  0  0  0  0  0
  -21.7591   16.1052  -16.9783 N   0  0  0  0  0  0  0  0  0  0  0  0
  -19.9446   18.4210  -13.7047 C   0  0  0  0  0  0  0  0  0  0  0  0
  -20.4659   18.6340  -15.1342 C   0  0  0  0  0  0  0  0  0  0  0  0
  -19.3490   18.6905  -16.1390 C   0  0  0  0  0  0  0  0  0  0  0  0
  -21.6302   19.5469  -15.3064 C   0  0  0  0  0  0  0  0  0  0  0  0
  -21.7703   18.0832  -15.4951 C   0  0  0  0  0  0  0  0  0  0  0  0
 34 35  1  0  0  0
 35 36  1  0  0  0
 35 37  1  0  0  0
 37 38  1  0  0  0
 38 29  1  0  0  0
 29 30  1  0  0  0
 30 31  1  0  0  0
 31 32  1  0  0  0
 32 33  1  0  0  0
 33 23  1  0  0  0
 23 24  2  0  0  0
 24 25  1  0  0  0
 25 26  2  0  0  0
 26 27  1  0  0  0
 27 28  2  0  0  0
 26  1  1  0  0  0
  1  2  2  0  0  0
  2  3  1  0  0  0
  3 13  1  0  0  0
 13 14  1  0  0  0
 14 15  1  0  0  0
 15 16  1  0  0  0
 16 17  1  0  0  0
 17 18  1  0  0  0
 17 19  1  0  0  0
 19 20  2  0  0  0
 19 21  1  0  0  0
 21 22  2  0  0  0
  3  4  1  0  0  0
  4  5  2  0  0  0
  5  6  1  0  0  0
  6  7  2  0  0  0
  7  8  1  0  0  0
  8  9  1  0  0  0
  8 10  2  0  0  0
 38 35  1  0  0  0
 33 29  1  0  0  0
 28 23  1  0  0  0
 10  1  1  0  0  0
 18 13  1  0  0  0
 10  4  1  0  0  0
  9 11  1  0  0  0
  9 12  1  0  0  0
M  END
> <minimizedAffinity>
-9.15751

> <CNNscore>
0.2967236638

> <CNNaffinity>
7.3846368790

> <CNN_VS>
2.1911964417

> <CNNaffinity_variance>
0.2661885023

$$$$
[H]C([H])=C([H])C(=O)N1C([H])([H])C([H])([H])C([H])([H])C([H])(n2nc(-c3c([H])nc(N4C([H])([H])C([H])([H])C([H])([H])[C@@]4([H])C4([H])C([H])([H])C4(C([H])([H])[H])C([H])([H])[H])c([H])c3[H])c3c(N([H])[H])nc([H])nc32)C1([H])[H]


 38 43  0  0  0  0  0  0  0  0999 V2000
  -19.3101   13.3118  -18.6054 C   0  0  0  0  0  0  0  0  0  0  0  0
  -19.8496   12.8449  -17.4389 N   0  0  0  0  0  0  0  0  0  0  0  0
  -19.3976   11.6425  -17.1743 N   0  0  0  0  0  0  0  0  0  0  0  0
  -18.5543   11.2789  -18.1476 C   0  0  0  0  0  0  0  0  0  0  0  0
  -17.8447   10.1531  -18.3490 N   0  0  0  0  0  0  0  0  0  0  0  0
  -17.0808   10.0582  -19.4411 C   0  0  0  0  0  0  0  0  0  0  0  0
  -16.9932   11.0434  -20.3478 N   0  0  0  0  0  0  0  0  0  0  0  0
  -17.6882   12.1979  -20.1903 C   0  0  0  0  0  0  0  0  0  0  0  0
  -17.6234   13.2220  -21.1693 N   0  0  0  0  0  0  0  0  0  0  0  0
  -18.4837   12.3290  -19.0735 C   0  0  0  0  0  0  0  0  0  0  0  0
  -18.4053   13.4652  -21.8127 H   0  0  0  0  0  0  0  0  0  0  0  0
  -16.7457   13.7959  -21.2841 H   0  0  0  0  0  0  0  0  0  0  0  0
  -19.7622   10.8522  -16.0179 C   0  0  0  0  0  0  0  0  0  0  0  0
  -20.6614   11.7175  -15.1663 C   0  0  0  0  0  0  0  0  0  0  0  0
  -22.0536   11.1049  -15.1467 C   0  0  0  0  0  0  0  0  0  0  0  0
  -21.9931    9.7267  -14.4633 C   0  0  0  0  0  0  0  0  0  0  0  0
  -21.0677    8.9312  -15.2022 N   0  0  0  0  0  0  0  0  0  0  0  0
  -20.4270    9.5656  -16.3428 C   0  0  0  0  0  0  0  0  0  0  0  0
  -20.7703    7.6046  -14.8894 C   0  0  0  0  0  0  0  0  0  0  0  0
  -19.8634    7.0985  -15.7227 O   0  0  0  0  0  0  0  0  0  0  0  0
  -21.2591    6.7456  -13.8692 C   0  0  0  0  0  0  0  0  0  0  0  0
  -22.1645    5.8454  -13.9267 C   0  0  0  0  0  0  0  0  0  0  0  0
  -20.2592   17.0464  -20.2427 C   0  0  0  0  0  0  0  0  0  0  0  0
  -21.0931   15.9399  -20.4590 C   0  0  0  0  0  0  0  0  0  0  0  0
  -20.7695   14.7057  -19.9395 C   0  0  0  0  0  0  0  0  0  0  0  0
  -19.6127   14.5919  -19.2079 C   0  0  0  0  0  0  0  0  0  0  0  0
  -18.8256   15.6817  -19.0145 C   0  0  0  0  0  0  0  0  0  0  0  0
  -19.1535   16.8555  -19.5212 N   0  0  0  0  0  0  0  0  0  0  0  0
  -21.9175   18.8592  -20.9601 C   0  0  0  0  0  0  0  0  0  0  0  0
  -21.6758   20.1677  -20.1467 C   0  0  0  0  0  0  0  0  0  0  0  0
  -20.2812   20.5425  -20.6082 C   0  0  0  0  0  0  0  0  0  0  0  0
  -19.7005   19.2968  -21.2941 C   0  0  0  0  0  0  0  0  0  0  0  0
  -20.6005   18.2875  -20.7936 N   0  0  0  0  0  0  0  0  0  0  0  0
  -22.9096   18.2814  -24.6785 C   0  0  0  0  0  0  0  0  0  0  0  0
  -23.1822   18.4604  -23.1772 C   0  0  0  0  0  0  0  0  0  0  0  0
  -23.8894   17.2722  -22.5869 C   0  0  0  0  0  0  0  0  0  0  0  0
  -23.5616   19.8233  -22.7108 C   0  0  0  0  0  0  0  0  0  0  0  0
  -22.2386   19.2416  -22.3806 C   0  0  0  0  0  0  0  0  0  0  0  0
 34 35  1  0  0  0
 35 36  1  0  0  0
 35 37  1  0  0  0
 37 38  1  0  0  0
 38 29  1  0  0  0
 29 30  1  0  0  0
 30 31  1  0  0  0
 31 32  1  0  0  0
 32 33  1  0  0  0
 33 23  1  0  0  0
 23 24  2  0  0  0
 24 25  1  0  0  0
 25 26  2  0  0  0
 26 27  1  0  0  0
 27 28  2  0  0  0
 26  1  1  0  0  0
  1  2  2  0  0  0
  2  3  1  0  0  0
  3 13  1  0  0  0
 13 14  1  0  0  0
 14 15  1  0  0  0
 15 16  1  0  0  0
 16 17  1  0  0  0
 17 18  1  0  0  0
 17 19  1  0  0  0
 19 20  2  0  0  0
 19 21  1  0  0  0
 21 22  2  0  0  0
  3  4  1  0  0  0
  4  5  2  0  0  0
  5  6  1  0  0  0
  6  7  2  0  0  0
  7  8  1  0  0  0
  8  9  1  0  0  0
  8 10  2  0  0  0
 38 35  1  0  0  0
 33 29  1  0  0  0
 28 23  1  0  0  0
 10  1  1  0  0  0
 18 13  1  0  0  0
 10  4  1  0  0  0
  9 11  1  0  0  0
  9 12  1  0  0  0
M  END
> <minimizedAffinity>
-7.98011

> <CNNscore>
0.2870216072

> <CNNaffinity>
7.0025010109

> <CNN_VS>
2.0098690987

> <CNNaffinity_variance>
0.0697339475

$$$$
[H]C([H])=C([H])C(=O)N1C([H])([H])C([H])([H])C([H])([H])C([H])(n2nc(-c3c([H])nc(N4C([H])([H])C([H])([H])C([H])([H])[C@@]4([H])C4([H])C([H])([H])C4(C([H])([H])[H])C([H])([H])[H])c([H])c3[H])c3c(N([H])[H])nc([H])nc32)C1([H])[H]


 38 43  0  0  0  0  0  0  0  0999 V2000
  -19.5332   11.8211  -17.4522 C   0  0  0  0  0  0  0  0  0  0  0  0
  -19.8907   13.0502  -17.9330 N   0  0  0  0  0  0  0  0  0  0  0  0
  -19.2421   13.3145  -19.0419 N   0  0  0  0  0  0  0  0  0  0  0  0
  -18.4425   12.2800  -19.3266 C   0  0  0  0  0  0  0  0  0  0  0  0
  -17.5759   12.0632  -20.3332 N   0  0  0  0  0  0  0  0  0  0  0  0
  -16.8846   10.9200  -20.3552 C   0  0  0  0  0  0  0  0  0  0  0  0
  -17.0201    9.9772  -19.4101 N   0  0  0  0  0  0  0  0  0  0  0  0
  -17.8806   10.1478  -18.3752 C   0  0  0  0  0  0  0  0  0  0  0  0
  -17.9936    9.1664  -17.3575 N   0  0  0  0  0  0  0  0  0  0  0  0
  -18.6107   11.3146  -18.3242 C   0  0  0  0  0  0  0  0  0  0  0  0
  -17.6403    9.2895  -16.3857 H   0  0  0  0  0  0  0  0  0  0  0  0
  -18.4582    8.2408  -17.5579 H   0  0  0  0  0  0  0  0  0  0  0  0
  -19.3785   14.5296  -19.8163 C   0  0  0  0  0  0  0  0  0  0  0  0
  -20.8569   14.7296  -20.0542 C   0  0  0  0  0  0  0  0  0  0  0  0
  -21.3053   15.9831  -19.3183 C   0  0  0  0  0  0  0  0  0  0  0  0
  -20.5930   17.2081  -19.9200 C   0  0  0  0  0  0  0  0  0  0  0  0
  -19.1901   16.9840  -19.7913 N   0  0  0  0  0  0  0  0  0  0  0  0
  -18.7829   15.7301  -19.1782 C   0  0  0  0  0  0  0  0  0  0  0  0
  -18.2222   17.8980  -20.2084 C   0  0  0  0  0  0  0  0  0  0  0  0
  -16.9915   17.4382  -19.9918 O   0  0  0  0  0  0  0  0  0  0  0  0
  -18.3351   19.1841  -20.8008 C   0  0  0  0  0  0  0  0  0  0  0  0
  -18.5104   19.5043  -22.0256 C   0  0  0  0  0  0  0  0  0  0  0  0
  -20.8976   10.0043  -13.9356 C   0  0  0  0  0  0  0  0  0  0  0  0
  -21.4469    9.6560  -15.1780 C   0  0  0  0  0  0  0  0  0  0  0  0
  -21.0144   10.2699  -16.3329 C   0  0  0  0  0  0  0  0  0  0  0  0
  -20.0349   11.2273  -16.2319 C   0  0  0  0  0  0  0  0  0  0  0  0
  -19.5213   11.5427  -15.0147 C   0  0  0  0  0  0  0  0  0  0  0  0
  -19.9499   10.9430  -13.9200 N   0  0  0  0  0  0  0  0  0  0  0  0
  -20.6862    8.4015  -11.9514 C   0  0  0  0  0  0  0  0  0  0  0  0
  -20.7437    9.1914  -10.6078 C   0  0  0  0  0  0  0  0  0  0  0  0
  -22.1512    9.7521  -10.6612 C   0  0  0  0  0  0  0  0  0  0  0  0
  -22.6274    9.5946  -12.1130 C   0  0  0  0  0  0  0  0  0  0  0  0
  -21.3640    9.3780  -12.7735 N   0  0  0  0  0  0  0  0  0  0  0  0
  -22.5979    5.1998  -13.0647 C   0  0  0  0  0  0  0  0  0  0  0  0
  -21.3476    6.0355  -12.7506 C   0  0  0  0  0  0  0  0  0  0  0  0
  -20.4376    6.1581  -13.9411 C   0  0  0  0  0  0  0  0  0  0  0  0
  -20.7408    5.8736  -11.3999 C   0  0  0  0  0  0  0  0  0  0  0  0
  -21.4537    7.1181  -11.7749 C   0  0  0  0  0  0  0  0  0  0  0  0
 34 35  1  0  0  0
 35 36  1  0  0  0
 35 37  1  0  0  0
 37 38  1  0  0  0
 38 29  1  0  0  0
 29 30  1  0  0  0
 30 31  1  0  0  0
 31 32  1  0  0  0
 32 33  1  0  0  0
 33 23  1  0  0  0
 23 24  2  0  0  0
 24 25  1  0  0  0
 25 26  2  0  0  0
 26 27  1  0  0  0
 27 28  2  0  0  0
 26  1  1  0  0  0
  1  2  2  0  0  0
  2  3  1  0  0  0
  3 13  1  0  0  0
 13 14  1  0  0  0
 14 15  1  0  0  0
 15 16  1  0  0  0
 16 17  1  0  0  0
 17 18  1  0  0  0
 17 19  1  0  0  0
 19 20  2  0  0  0
 19 21  1  0  0  0
 21 22  2  0  0  0
  3  4  1  0  0  0
  4  5  2  0  0  0
  5  6  1  0  0  0
  6  7  2  0  0  0
  7  8  1  0  0  0
  8  9  1  0  0  0
  8 10  2  0  0  0
 38 35  1  0  0  0
 33 29  1  0  0  0
 28 23  1  0  0  0
 10  1  1  0  0  0
 18 13  1  0  0  0
 10  4  1  0  0  0
  9 11  1  0  0  0
  9 12  1  0  0  0
M  END
> <minimizedAffinity>
-7.27677

> <CNNscore>
0.2605083883

> <CNNaffinity>
6.8733596802

> <CNN_VS>
1.7905678749

> <CNNaffinity_variance>
0.1875033379

$$$$
[H]C([H])=C([H])C(=O)N1C([H])([H])C([H])([H])C([H])([H])C([H])(n2nc(-c3c([H])nc(N4C([H])([H])C([H])([H])C([H])([H])[C@@]4([H])C4([H])C([H])([H])C4(C([H])([H])[H])C([H])([H])[H])c([H])c3[H])c3c(N([H])[H])nc([H])nc32)C1([H])[H]


 38 43  0  0  0  0  0  0  0  0999 V2000
  -18.5680   14.2764  -20.0532 C   0  0  0  0  0  0  0  0  0  0  0  0
  -18.9422   13.9001  -18.7929 N   0  0  0  0  0  0  0  0  0  0  0  0
  -18.4911   12.6991  -18.5207 N   0  0  0  0  0  0  0  0  0  0  0  0
  -17.8121   12.2467  -19.5814 C   0  0  0  0  0  0  0  0  0  0  0  0
  -17.1733   11.0847  -19.8118 N   0  0  0  0  0  0  0  0  0  0  0  0
  -16.5825   10.8963  -20.9953 C   0  0  0  0  0  0  0  0  0  0  0  0
  -16.6017   11.8222  -21.9663 N   0  0  0  0  0  0  0  0  0  0  0  0
  -17.2318   13.0097  -21.7833 C   0  0  0  0  0  0  0  0  0  0  0  0
  -17.2830   13.9709  -22.8249 N   0  0  0  0  0  0  0  0  0  0  0  0
  -17.8490   13.2368  -20.5731 C   0  0  0  0  0  0  0  0  0  0  0  0
  -18.1441   14.2053  -23.3614 H   0  0  0  0  0  0  0  0  0  0  0  0
  -16.4157   14.5031  -23.1031 H   0  0  0  0  0  0  0  0  0  0  0  0
  -18.7032   11.9930  -17.2752 C   0  0  0  0  0  0  0  0  0  0  0  0
  -19.5444   12.8947  -16.4024 C   0  0  0  0  0  0  0  0  0  0  0  0
  -20.9015   12.2414  -16.1895 C   0  0  0  0  0  0  0  0  0  0  0  0
  -20.7160   10.9253  -15.4127 C   0  0  0  0  0  0  0  0  0  0  0  0
  -19.8400   10.1030  -16.1819 N   0  0  0  0  0  0  0  0  0  0  0  0
  -19.3455   10.6638  -17.4289 C   0  0  0  0  0  0  0  0  0  0  0  0
  -19.4591    8.8159  -15.8015 C   0  0  0  0  0  0  0  0  0  0  0  0
  -18.6228    8.2738  -16.6845 O   0  0  0  0  0  0  0  0  0  0  0  0
  -19.8058    8.0265  -14.6728 C   0  0  0  0  0  0  0  0  0  0  0  0
  -19.3603    8.0764  -13.4759 C   0  0  0  0  0  0  0  0  0  0  0  0
  -19.6161   17.9507  -21.7648 C   0  0  0  0  0  0  0  0  0  0  0  0
  -20.5813   16.9513  -21.5740 C   0  0  0  0  0  0  0  0  0  0  0  0
  -20.2325   15.7339  -21.0319 C   0  0  0  0  0  0  0  0  0  0  0  0
  -18.9193   15.5292  -20.6858 C   0  0  0  0  0  0  0  0  0  0  0  0
  -18.0073   16.5164  -20.8817 C   0  0  0  0  0  0  0  0  0  0  0  0
  -18.3619   17.6758  -21.4030 N   0  0  0  0  0  0  0  0  0  0  0  0
  -21.2534   19.8674  -22.2078 C   0  0  0  0  0  0  0  0  0  0  0  0
  -20.6967   21.2020  -21.6236 C   0  0  0  0  0  0  0  0  0  0  0  0
  -19.4518   21.3910  -22.4679 C   0  0  0  0  0  0  0  0  0  0  0  0
  -19.1799   20.0418  -23.1499 C   0  0  0  0  0  0  0  0  0  0  0  0
  -19.9911   19.1746  -22.3319 N   0  0  0  0  0  0  0  0  0  0  0  0
  -23.1837   19.0975  -25.4980 C   0  0  0  0  0  0  0  0  0  0  0  0
  -23.0568   19.3923  -23.9956 C   0  0  0  0  0  0  0  0  0  0  0  0
  -23.6336   18.2884  -23.1536 C   0  0  0  0  0  0  0  0  0  0  0  0
  -23.2530   20.8027  -23.5585 C   0  0  0  0  0  0  0  0  0  0  0  0
  -21.9123   20.1709  -23.5272 C   0  0  0  0  0  0  0  0  0  0  0  0
 34 35  1  0  0  0
 35 36  1  0  0  0
 35 37  1  0  0  0
 37 38  1  0  0  0
 38 29  1  0  0  0
 29 30  1  0  0  0
 30 31  1  0  0  0
 31 32  1  0  0  0
 32 33  1  0  0  0
 33 23  1  0  0  0
 23 24  2  0  0  0
 24 25  1  0  0  0
 25 26  2  0  0  0
 26 27  1  0  0  0
 27 28  2  0  0  0
 26  1  1  0  0  0
  1  2  2  0  0  0
  2  3  1  0  0  0
  3 13  1  0  0  0
 13 14  1  0  0  0
 14 15  1  0  0  0
 15 16  1  0  0  0
 16 17  1  0  0  0
 17 18  1  0  0  0
 17 19  1  0  0  0
 19 20  2  0  0  0
 19 21  1  0  0  0
 21 22  2  0  0  0
  3  4  1  0  0  0
  4  5  2  0  0  0
  5  6  1  0  0  0
  6  7  2  0  0  0
  7  8  1  0  0  0
  8  9  1  0  0  0
  8 10  2  0  0  0
 38 35  1  0  0  0
 33 29  1  0  0  0
 28 23  1  0  0  0
 10  1  1  0  0  0
 18 13  1  0  0  0
 10  4  1  0  0  0
  9 11  1  0  0  0
  9 12  1  0  0  0
M  END
> <minimizedAffinity>
-8.32274

> <CNNscore>
0.2484783232

> <CNNaffinity>
7.1390280724

> <CNN_VS>
1.7738937140

> <CNNaffinity_variance>
0.2474373281

$$$$
[H]c1c([H])c(N2C([H])([H])C([H])([H])N(C([H])([H])[H])C([H])([H])C2([H])[H])c([H])c([H])c1N([H])c1nc2c([H])c([H])c([H])c([H])c2n2c([H])nc([H])c12


 28 32  0  0  0  0  0  0  0  0999 V2000
  -19.0130   12.4546  -19.2617 N   0  0  0  0  0  0  0  0  0  0  0  0
  -19.3103   11.4510  -18.9710 H   0  0  0  0  0  0  0  0  0  0  0  0
  -18.2357   12.5870  -20.4329 C   0  0  0  0  0  0  0  0  0  0  0  0
  -18.3568   13.5166  -21.3789 N   0  0  0  0  0  0  0  0  0  0  0  0
  -17.5812   13.6059  -22.4719 C   0  0  0  0  0  0  0  0  0  0  0  0
  -17.7554   14.5931  -23.4184 C   0  0  0  0  0  0  0  0  0  0  0  0
  -16.9612   14.6854  -24.5384 C   0  0  0  0  0  0  0  0  0  0  0  0
  -15.9662   13.7464  -24.6937 C   0  0  0  0  0  0  0  0  0  0  0  0
  -15.7780   12.7467  -23.7504 C   0  0  0  0  0  0  0  0  0  0  0  0
  -16.5859   12.6705  -22.6319 C   0  0  0  0  0  0  0  0  0  0  0  0
  -16.4086   11.6973  -21.7059 N   0  0  0  0  0  0  0  0  0  0  0  0
  -15.5049   10.6975  -21.6733 C   0  0  0  0  0  0  0  0  0  0  0  0
  -15.7595   10.0192  -20.5468 N   0  0  0  0  0  0  0  0  0  0  0  0
  -16.7872   10.5680  -19.8880 C   0  0  0  0  0  0  0  0  0  0  0  0
  -17.2067   11.6490  -20.6328 C   0  0  0  0  0  0  0  0  0  0  0  0
  -20.2231   15.5552  -16.6412 C   0  0  0  0  0  0  0  0  0  0  0  0
  -18.9133   15.3576  -17.0050 C   0  0  0  0  0  0  0  0  0  0  0  0
  -18.5231   14.3528  -17.8600 C   0  0  0  0  0  0  0  0  0  0  0  0
  -19.4687   13.4727  -18.4043 C   0  0  0  0  0  0  0  0  0  0  0  0
  -20.7647   13.6832  -18.0319 C   0  0  0  0  0  0  0  0  0  0  0  0
  -21.1647   14.7065  -17.1612 C   0  0  0  0  0  0  0  0  0  0  0  0
  -21.2234   19.2523  -12.7113 C   0  0  0  0  0  0  0  0  0  0  0  0
  -21.4625   18.6858  -14.0185 N   0  0  0  0  0  0  0  0  0  0  0  0
  -20.4217   18.8985  -14.9488 C   0  0  0  0  0  0  0  0  0  0  0  0
  -19.7167   17.6377  -15.3924 C   0  0  0  0  0  0  0  0  0  0  0  0
  -20.6192   16.5863  -15.7708 N   0  0  0  0  0  0  0  0  0  0  0  0
  -21.9544   16.5955  -15.2382 C   0  0  0  0  0  0  0  0  0  0  0  0
  -22.0601   17.4079  -14.0000 C   0  0  0  0  0  0  0  0  0  0  0  0
 22 23  1  0  0  0
 23 24  1  0  0  0
 24 25  1  0  0  0
 25 26  1  0  0  0
 26 27  1  0  0  0
 27 28  1  0  0  0
 26 16  1  0  0  0
 16 17  2  0  0  0
 17 18  1  0  0  0
 18 19  2  0  0  0
 19  1  1  0  0  0
  1  3  1  0  0  0
  3  4  2  0  0  0
  4  5  1  0  0  0
  5  6  2  0  0  0
  6  7  1  0  0  0
  7  8  2  0  0  0
  8  9  1  0  0  0
  9 10  2  0  0  0
 10 11  1  0  0  0
 11 12  1  0  0  0
 12 13  2  0  0  0
 13 14  1  0  0  0
 14 15  2  0  0  0
 19 20  1  0  0  0
 20 21  2  0  0  0
 28 23  1  0  0  0
 21 16  1  0  0  0
 15  3  1  0  0  0
 10  5  1  0  0  0
 15 11  1  0  0  0
  1  2  1  0  0  0
M  END
> <minimizedAffinity>
-7.76243

> <CNNscore>
0.9018737078

> <CNNaffinity>
7.0053739548

> <CNN_VS>
6.3179626465

> <CNNaffinity_variance>
0.1155425906

$$$$
[H]c1c([H])c(N2C([H])([H])C([H])([H])N(C([H])([H])[H])C([H])([H])C2([H])[H])c([H])c([H])c1N([H])c1nc2c([H])c([H])c([H])c([H])c2n2c([H])nc([H])c12


 28 32  0  0  0  0  0  0  0  0999 V2000
  -18.0838   12.7918  -18.1852 N   0  0  0  0  0  0  0  0  0  0  0  0
  -17.4878   13.4293  -17.5382 H   0  0  0  0  0  0  0  0  0  0  0  0
  -17.8093   12.8350  -19.5695 C   0  0  0  0  0  0  0  0  0  0  0  0
  -18.2344   13.7426  -20.4467 N   0  0  0  0  0  0  0  0  0  0  0  0
  -17.9337   13.7452  -21.7558 C   0  0  0  0  0  0  0  0  0  0  0  0
  -18.4049   14.7139  -22.6164 C   0  0  0  0  0  0  0  0  0  0  0  0
  -18.0973   14.7174  -23.9577 C   0  0  0  0  0  0  0  0  0  0  0  0
  -17.2894   13.7071  -24.4293 C   0  0  0  0  0  0  0  0  0  0  0  0
  -16.8073   12.7250  -23.5764 C   0  0  0  0  0  0  0  0  0  0  0  0
  -17.1271   12.7384  -22.2322 C   0  0  0  0  0  0  0  0  0  0  0  0
  -16.6603   11.7830  -21.3924 N   0  0  0  0  0  0  0  0  0  0  0  0
  -15.8677   10.7239  -21.6526 C   0  0  0  0  0  0  0  0  0  0  0  0
  -15.7064   10.0986  -20.4792 N   0  0  0  0  0  0  0  0  0  0  0  0
  -16.3721   10.7369  -19.5093 C   0  0  0  0  0  0  0  0  0  0  0  0
  -16.9871   11.8221  -20.0953 C   0  0  0  0  0  0  0  0  0  0  0  0
  -21.0438   10.5855  -16.1079 C   0  0  0  0  0  0  0  0  0  0  0  0
  -21.0788   11.9541  -16.2210 C   0  0  0  0  0  0  0  0  0  0  0  0
  -20.1188   12.6683  -16.9002 C   0  0  0  0  0  0  0  0  0  0  0  0
  -19.0445   12.0116  -17.5162 C   0  0  0  0  0  0  0  0  0  0  0  0
  -19.0252   10.6525  -17.3933 C   0  0  0  0  0  0  0  0  0  0  0  0
  -20.0023    9.9226  -16.7021 C   0  0  0  0  0  0  0  0  0  0  0  0
  -24.6833    8.2119  -12.7561 C   0  0  0  0  0  0  0  0  0  0  0  0
  -24.0289    8.3457  -14.0371 N   0  0  0  0  0  0  0  0  0  0  0  0
  -24.3747    9.5128  -14.7529 C   0  0  0  0  0  0  0  0  0  0  0  0
  -23.2337   10.4843  -14.9471 C   0  0  0  0  0  0  0  0  0  0  0  0
  -22.0294    9.8581  -15.4170 N   0  0  0  0  0  0  0  0  0  0  0  0
  -21.8351    8.4560  -15.1659 C   0  0  0  0  0  0  0  0  0  0  0  0
  -22.6703    7.9655  -14.0406 C   0  0  0  0  0  0  0  0  0  0  0  0
 22 23  1  0  0  0
 23 24  1  0  0  0
 24 25  1  0  0  0
 25 26  1  0  0  0
 26 27  1  0  0  0
 27 28  1  0  0  0
 26 16  1  0  0  0
 16 17  2  0  0  0
 17 18  1  0  0  0
 18 19  2  0  0  0
 19  1  1  0  0  0
  1  3  1  0  0  0
  3  4  2  0  0  0
  4  5  1  0  0  0
  5  6  2  0  0  0
  6  7  1  0  0  0
  7  8  2  0  0  0
  8  9  1  0  0  0
  9 10  2  0  0  0
 10 11  1  0  0  0
 11 12  1  0  0  0
 12 13  2  0  0  0
 13 14  1  0  0  0
 14 15  2  0  0  0
 19 20  1  0  0  0
 20 21  2  0  0  0
 28 23  1  0  0  0
 21 16  1  0  0  0
 15  3  1  0  0  0
 10  5  1  0  0  0
 15 11  1  0  0  0
  1  2  1  0  0  0
M  END
> <minimizedAffinity>
-8.22484

> <CNNscore>
0.8064320683

> <CNNaffinity>
6.7920441628

> <CNN_VS>
5.4773221016

> <CNNaffinity_variance>
0.1685324907

$$$$
[H]c1c([H])c(N2C([H])([H])C([H])([H])N(C([H])([H])[H])C([H])([H])C2([H])[H])c([H])c([H])c1N([H])c1nc2c([H])c([H])c([H])c([H])c2n2c([H])nc([H])c12


 28 32  0  0  0  0  0  0  0  0999 V2000
  -19.0410   13.6232  -21.0657 N   0  0  0  0  0  0  0  0  0  0  0  0
  -19.7087   12.7914  -21.2721 H   0  0  0  0  0  0  0  0  0  0  0  0
  -17.9421   13.8034  -21.9338 C   0  0  0  0  0  0  0  0  0  0  0  0
  -17.6858   14.8629  -22.6990 N   0  0  0  0  0  0  0  0  0  0  0  0
  -16.6160   14.9902  -23.5011 C   0  0  0  0  0  0  0  0  0  0  0  0
  -16.4043   16.1139  -24.2715 C   0  0  0  0  0  0  0  0  0  0  0  0
  -15.3085   16.2453  -25.0935 C   0  0  0  0  0  0  0  0  0  0  0  0
  -14.4089   15.2035  -25.1283 C   0  0  0  0  0  0  0  0  0  0  0  0
  -14.6075   14.0661  -24.3592 C   0  0  0  0  0  0  0  0  0  0  0  0
  -15.7143   13.9526  -23.5396 C   0  0  0  0  0  0  0  0  0  0  0  0
  -15.9156   12.8452  -22.7853 N   0  0  0  0  0  0  0  0  0  0  0  0
  -15.1643   11.7308  -22.6785 C   0  0  0  0  0  0  0  0  0  0  0  0
  -15.8067   10.9467  -21.8030 N   0  0  0  0  0  0  0  0  0  0  0  0
  -16.9248   11.5411  -21.3697 C   0  0  0  0  0  0  0  0  0  0  0  0
  -16.9969   12.7639  -22.0010 C   0  0  0  0  0  0  0  0  0  0  0  0
  -19.9534   15.9471  -17.6435 C   0  0  0  0  0  0  0  0  0  0  0  0
  -18.6666   15.6346  -18.0089 C   0  0  0  0  0  0  0  0  0  0  0  0
  -18.3723   14.8835  -19.1235 C   0  0  0  0  0  0  0  0  0  0  0  0
  -19.3976   14.3979  -19.9468 C   0  0  0  0  0  0  0  0  0  0  0  0
  -20.6695   14.7172  -19.5687 C   0  0  0  0  0  0  0  0  0  0  0  0
  -20.9717   15.4826  -18.4337 C   0  0  0  0  0  0  0  0  0  0  0  0
  -21.6198   19.3862  -13.7053 C   0  0  0  0  0  0  0  0  0  0  0  0
  -20.8172   18.2813  -14.1764 N   0  0  0  0  0  0  0  0  0  0  0  0
  -21.5449   17.1018  -14.4473 C   0  0  0  0  0  0  0  0  0  0  0  0
  -21.5540   16.6974  -15.9032 C   0  0  0  0  0  0  0  0  0  0  0  0
  -20.2505   16.7192  -16.5062 N   0  0  0  0  0  0  0  0  0  0  0  0
  -19.2348   17.5565  -15.9285 C   0  0  0  0  0  0  0  0  0  0  0  0
  -19.8089   18.6427  -15.0947 C   0  0  0  0  0  0  0  0  0  0  0  0
 22 23  1  0  0  0
 23 24  1  0  0  0
 24 25  1  0  0  0
 25 26  1  0  0  0
 26 27  1  0  0  0
 27 28  1  0  0  0
 26 16  1  0  0  0
 16 17  2  0  0  0
 17 18  1  0  0  0
 18 19  2  0  0  0
 19  1  1  0  0  0
  1  3  1  0  0  0
  3  4  2  0  0  0
  4  5  1  0  0  0
  5  6  2  0  0  0
  6  7  1  0  0  0
  7  8  2  0  0  0
  8  9  1  0  0  0
  9 10  2  0  0  0
 10 11  1  0  0  0
 11 12  1  0  0  0
 12 13  2  0  0  0
 13 14  1  0  0  0
 14 15  2  0  0  0
 19 20  1  0  0  0
 20 21  2  0  0  0
 28 23  1  0  0  0
 21 16  1  0  0  0
 15  3  1  0  0  0
 10  5  1  0  0  0
 15 11  1  0  0  0
  1  2  1  0  0  0
M  END
> <minimizedAffinity>
-7.12464

> <CNNscore>
0.6169193983

> <CNNaffinity>
6.8288450241

> <CNN_VS>
4.2128467560

> <CNNaffinity_variance>
0.1431638449

$$$$
[H]c1c([H])c(N2C([H])([H])C([H])([H])N(C([H])([H])[H])C([H])([H])C2([H])[H])c([H])c([H])c1N([H])c1nc2c([H])c([H])c([H])c([H])c2n2c([H])nc([H])c12


 28 32  0  0  0  0  0  0  0  0999 V2000
  -17.1697   12.2702  -19.0902 N   0  0  0  0  0  0  0  0  0  0  0  0
  -16.1573   12.3056  -18.6978 H   0  0  0  0  0  0  0  0  0  0  0  0
  -17.4118   12.9213  -20.3194 C   0  0  0  0  0  0  0  0  0  0  0  0
  -17.1726   12.4491  -21.5415 N   0  0  0  0  0  0  0  0  0  0  0  0
  -17.4334   13.1063  -22.6835 C   0  0  0  0  0  0  0  0  0  0  0  0
  -17.1630   12.5640  -23.9220 C   0  0  0  0  0  0  0  0  0  0  0  0
  -17.4298   13.2366  -25.0926 C   0  0  0  0  0  0  0  0  0  0  0  0
  -17.9859   14.4923  -24.9939 C   0  0  0  0  0  0  0  0  0  0  0  0
  -18.2639   15.0519  -23.7553 C   0  0  0  0  0  0  0  0  0  0  0  0
  -17.9888   14.3609  -22.5907 C   0  0  0  0  0  0  0  0  0  0  0  0
  -18.2574   14.9002  -21.3771 N   0  0  0  0  0  0  0  0  0  0  0  0
  -18.7933   16.0985  -21.0696 C   0  0  0  0  0  0  0  0  0  0  0  0
  -18.8441   16.1370  -19.7317 N   0  0  0  0  0  0  0  0  0  0  0  0
  -18.3583   15.0049  -19.2087 C   0  0  0  0  0  0  0  0  0  0  0  0
  -17.9799   14.2069  -20.2666 C   0  0  0  0  0  0  0  0  0  0  0  0
  -19.8549    9.9897  -16.7376 C   0  0  0  0  0  0  0  0  0  0  0  0
  -18.7803    9.4344  -17.3888 C   0  0  0  0  0  0  0  0  0  0  0  0
  -17.9067   10.1778  -18.1486 C   0  0  0  0  0  0  0  0  0  0  0  0
  -18.0842   11.5610  -18.2902 C   0  0  0  0  0  0  0  0  0  0  0  0
  -19.1567   12.0957  -17.6372 C   0  0  0  0  0  0  0  0  0  0  0  0
  -20.0479   11.3404  -16.8623 C   0  0  0  0  0  0  0  0  0  0  0  0
  -23.2056    7.5950  -13.1112 C   0  0  0  0  0  0  0  0  0  0  0  0
  -22.5391    7.6428  -14.3920 N   0  0  0  0  0  0  0  0  0  0  0  0
  -23.0312    8.6313  -15.2723 C   0  0  0  0  0  0  0  0  0  0  0  0
  -22.0405    9.7258  -15.5946 C   0  0  0  0  0  0  0  0  0  0  0  0
  -20.7431    9.2278  -15.9578 N   0  0  0  0  0  0  0  0  0  0  0  0
  -20.3519    7.9208  -15.5047 C   0  0  0  0  0  0  0  0  0  0  0  0
  -21.1398    7.4747  -14.3279 C   0  0  0  0  0  0  0  0  0  0  0  0
 22 23  1  0  0  0
 23 24  1  0  0  0
 24 25  1  0  0  0
 25 26  1  0  0  0
 26 27  1  0  0  0
 27 28  1  0  0  0
 26 16  1  0  0  0
 16 17  2  0  0  0
 17 18  1  0  0  0
 18 19  2  0  0  0
 19  1  1  0  0  0
  1  3  1  0  0  0
  3  4  2  0  0  0
  4  5  1  0  0  0
  5  6  2  0  0  0
  6  7  1  0  0  0
  7  8  2  0  0  0
  8  9  1  0  0  0
  9 10  2  0  0  0
 10 11  1  0  0  0
 11 12  1  0  0  0
 12 13  2  0  0  0
 13 14  1  0  0  0
 14 15  2  0  0  0
 19 20  1  0  0  0
 20 21  2  0  0  0
 28 23  1  0  0  0
 21 16  1  0  0  0
 15  3  1  0  0  0
 10  5  1  0  0  0
 15 11  1  0  0  0
  1  2  1  0  0  0
M  END
> <minimizedAffinity>
-8.21336

> <CNNscore>
0.3094532490

> <CNNaffinity>
6.3869957924

> <CNN_VS>
1.9764765501

> <CNNaffinity_variance>
0.0600642189

$$$$
[H]c1c([H])c(N2C([H])([H])C([H])([H])N(C([H])([H])[H])C([H])([H])C2([H])[H])c([H])c([H])c1N([H])c1nc2c([H])c([H])c([H])c([H])c2n2c([H])nc([H])c12


 28 32  0  0  0  0  0  0  0  0999 V2000
  -16.8775   12.4936  -21.7210 N   0  0  0  0  0  0  0  0  0  0  0  0
  -16.2439   11.7979  -22.2639 H   0  0  0  0  0  0  0  0  0  0  0  0
  -17.0200   13.7930  -22.2548 C   0  0  0  0  0  0  0  0  0  0  0  0
  -17.9927   14.6662  -21.9993 N   0  0  0  0  0  0  0  0  0  0  0  0
  -18.0760   15.8990  -22.5260 C   0  0  0  0  0  0  0  0  0  0  0  0
  -19.1095   16.7597  -22.2227 C   0  0  0  0  0  0  0  0  0  0  0  0
  -19.1956   18.0229  -22.7619 C   0  0  0  0  0  0  0  0  0  0  0  0
  -18.2021   18.4144  -23.6310 C   0  0  0  0  0  0  0  0  0  0  0  0
  -17.1556   17.5601  -23.9464 C   0  0  0  0  0  0  0  0  0  0  0  0
  -17.0863   16.2951  -23.3948 C   0  0  0  0  0  0  0  0  0  0  0  0
  -16.0675   15.4546  -23.6976 N   0  0  0  0  0  0  0  0  0  0  0  0
  -15.0117   15.6444  -24.5142 C   0  0  0  0  0  0  0  0  0  0  0  0
  -14.3066   14.5069  -24.4605 N   0  0  0  0  0  0  0  0  0  0  0  0
  -14.8930   13.6269  -23.6401 C   0  0  0  0  0  0  0  0  0  0  0  0
  -16.0272   14.2353  -23.1476 C   0  0  0  0  0  0  0  0  0  0  0  0
  -18.5597   10.7601  -18.2410 C   0  0  0  0  0  0  0  0  0  0  0  0
  -17.5410   10.1693  -18.9483 C   0  0  0  0  0  0  0  0  0  0  0  0
  -16.9929   10.7365  -20.0757 C   0  0  0  0  0  0  0  0  0  0  0  0
  -17.4640   11.9662  -20.5560 C   0  0  0  0  0  0  0  0  0  0  0  0
  -18.4764   12.5385  -19.8417 C   0  0  0  0  0  0  0  0  0  0  0  0
  -19.0361   11.9627  -18.6926 C   0  0  0  0  0  0  0  0  0  0  0  0
  -20.3313    9.0985  -13.3202 C   0  0  0  0  0  0  0  0  0  0  0  0
  -20.2441    8.9625  -14.7558 N   0  0  0  0  0  0  0  0  0  0  0  0
  -20.9655    9.9354  -15.4818 C   0  0  0  0  0  0  0  0  0  0  0  0
  -20.1025   10.8663  -16.3015 C   0  0  0  0  0  0  0  0  0  0  0  0
  -19.1143   10.1800  -17.0863 N   0  0  0  0  0  0  0  0  0  0  0  0
  -18.6863    8.8722  -16.6701 C   0  0  0  0  0  0  0  0  0  0  0  0
  -18.9606    8.6221  -15.2325 C   0  0  0  0  0  0  0  0  0  0  0  0
 22 23  1  0  0  0
 23 24  1  0  0  0
 24 25  1  0  0  0
 25 26  1  0  0  0
 26 27  1  0  0  0
 27 28  1  0  0  0
 26 16  1  0  0  0
 16 17  2  0  0  0
 17 18  1  0  0  0
 18 19  2  0  0  0
 19  1  1  0  0  0
  1  3  1  0  0  0
  3  4  2  0  0  0
  4  5  1  0  0  0
  5  6  2  0  0  0
  6  7  1  0  0  0
  7  8  2  0  0  0
  8  9  1  0  0  0
  9 10  2  0  0  0
 10 11  1  0  0  0
 11 12  1  0  0  0
 12 13  2  0  0  0
 13 14  1  0  0  0
 14 15  2  0  0  0
 19 20  1  0  0  0
 20 21  2  0  0  0
 28 23  1  0  0  0
 21 16  1  0  0  0
 15  3  1  0  0  0
 10  5  1  0  0  0
 15 11  1  0  0  0
  1  2  1  0  0  0
M  END
> <minimizedAffinity>
-8.50892

> <CNNscore>
0.2820639014

> <CNNaffinity>
6.3718914986

> <CNN_VS>
1.7972805500

> <CNNaffinity_variance>
0.0696622580

$$$$
[H]c1c([H])c(N2C([H])([H])C([H])([H])N(C([H])([H])[H])C([H])([H])C2([H])[H])c([H])c([H])c1N([H])c1nc2c([H])c([H])c([H])c([H])c2n2c([H])nc([H])c12


 28 32  0  0  0  0  0  0  0  0999 V2000
  -18.3741   12.7922  -20.5372 N   0  0  0  0  0  0  0  0  0  0  0  0
  -18.0379   11.7707  -20.6910 H   0  0  0  0  0  0  0  0  0  0  0  0
  -17.9523   13.7616  -21.4731 C   0  0  0  0  0  0  0  0  0  0  0  0
  -18.3860   15.0159  -21.5841 N   0  0  0  0  0  0  0  0  0  0  0  0
  -17.9417   15.9051  -22.4874 C   0  0  0  0  0  0  0  0  0  0  0  0
  -18.4304   17.1927  -22.5535 C   0  0  0  0  0  0  0  0  0  0  0  0
  -17.9758   18.1044  -23.4787 C   0  0  0  0  0  0  0  0  0  0  0  0
  -16.9993   17.6895  -24.3561 C   0  0  0  0  0  0  0  0  0  0  0  0
  -16.4972   16.3974  -24.3027 C   0  0  0  0  0  0  0  0  0  0  0  0
  -16.9663   15.4960  -23.3663 C   0  0  0  0  0  0  0  0  0  0  0  0
  -16.4812   14.2322  -23.3073 N   0  0  0  0  0  0  0  0  0  0  0  0
  -15.5375   13.6386  -24.0654 C   0  0  0  0  0  0  0  0  0  0  0  0
  -15.4329   12.3886  -23.5956 N   0  0  0  0  0  0  0  0  0  0  0  0
  -16.2790   12.1954  -22.5768 C   0  0  0  0  0  0  0  0  0  0  0  0
  -16.9551   13.3815  -22.3894 C   0  0  0  0  0  0  0  0  0  0  0  0
  -20.7592   13.2218  -17.0627 C   0  0  0  0  0  0  0  0  0  0  0  0
  -19.6219   12.4519  -17.0937 C   0  0  0  0  0  0  0  0  0  0  0  0
  -18.8461   12.3176  -18.2221 C   0  0  0  0  0  0  0  0  0  0  0  0
  -19.1949   12.9759  -19.4095 C   0  0  0  0  0  0  0  0  0  0  0  0
  -20.3276   13.7356  -19.3609 C   0  0  0  0  0  0  0  0  0  0  0  0
  -21.1194   13.8743  -18.2124 C   0  0  0  0  0  0  0  0  0  0  0  0
  -23.2001   14.2063  -12.2475 C   0  0  0  0  0  0  0  0  0  0  0  0
  -23.1698   13.6077  -13.5620 N   0  0  0  0  0  0  0  0  0  0  0  0
  -23.2988   14.5257  -14.6272 C   0  0  0  0  0  0  0  0  0  0  0  0
  -22.0739   14.6356  -15.5052 C   0  0  0  0  0  0  0  0  0  0  0  0
  -21.5472   13.3608  -15.9063 N   0  0  0  0  0  0  0  0  0  0  0  0
  -21.8345   12.2079  -15.0971 C   0  0  0  0  0  0  0  0  0  0  0  0
  -22.2194   12.5757  -13.7111 C   0  0  0  0  0  0  0  0  0  0  0  0
 22 23  1  0  0  0
 23 24  1  0  0  0
 24 25  1  0  0  0
 25 26  1  0  0  0
 26 27  1  0  0  0
 27 28  1  0  0  0
 26 16  1  0  0  0
 16 17  2  0  0  0
 17 18  1  0  0  0
 18 19  2  0  0  0
 19  1  1  0  0  0
  1  3  1  0  0  0
  3  4  2  0  0  0
  4  5  1  0  0  0
  5  6  2  0  0  0
  6  7  1  0  0  0
  7  8  2  0  0  0
  8  9  1  0  0  0
  9 10  2  0  0  0
 10 11  1  0  0  0
 11 12  1  0  0  0
 12 13  2  0  0  0
 13 14  1  0  0  0
 14 15  2  0  0  0
 19 20  1  0  0  0
 20 21  2  0  0  0
 28 23  1  0  0  0
 21 16  1  0  0  0
 15  3  1  0  0  0
 10  5  1  0  0  0
 15 11  1  0  0  0
  1  2  1  0  0  0
M  END
> <minimizedAffinity>
-7.19011

> <CNNscore>
0.2738986015

> <CNNaffinity>
6.3135347366

> <CNN_VS>
1.7292683125

> <CNNaffinity_variance>
0.0861168280

$$$$
[H]c1c([H])c(N2C([H])([H])C([H])([H])N(C([H])([H])[H])C([H])([H])C2([H])[H])c([H])c([H])c1N([H])c1nc2c([H])c([H])c([H])c([H])c2n2c([H])nc([H])c12


 28 32  0  0  0  0  0  0  0  0999 V2000
  -17.1198   12.3754  -20.0745 N   0  0  0  0  0  0  0  0  0  0  0  0
  -16.0832   12.0560  -20.1342 H   0  0  0  0  0  0  0  0  0  0  0  0
  -17.5445   13.3721  -20.9798 C   0  0  0  0  0  0  0  0  0  0  0  0
  -18.3450   14.4051  -20.7228 N   0  0  0  0  0  0  0  0  0  0  0  0
  -18.7103   15.3355  -21.6200 C   0  0  0  0  0  0  0  0  0  0  0  0
  -19.5436   16.3843  -21.2936 C   0  0  0  0  0  0  0  0  0  0  0  0
  -19.9184   17.3380  -22.2122 C   0  0  0  0  0  0  0  0  0  0  0  0
  -19.4296   17.2161  -23.4936 C   0  0  0  0  0  0  0  0  0  0  0  0
  -18.5903   16.1666  -23.8379 C   0  0  0  0  0  0  0  0  0  0  0  0
  -18.2250   15.2184  -22.9014 C   0  0  0  0  0  0  0  0  0  0  0  0
  -17.4055   14.1904  -23.2295 N   0  0  0  0  0  0  0  0  0  0  0  0
  -16.8283   13.8963  -24.4118 C   0  0  0  0  0  0  0  0  0  0  0  0
  -16.1188   12.7806  -24.1977 N   0  0  0  0  0  0  0  0  0  0  0  0
  -16.2409   12.3808  -22.9263 C   0  0  0  0  0  0  0  0  0  0  0  0
  -17.0692   13.2874  -22.3009 C   0  0  0  0  0  0  0  0  0  0  0  0
  -19.3304   10.2618  -17.1434 C   0  0  0  0  0  0  0  0  0  0  0  0
  -18.2880    9.6985  -17.8384 C   0  0  0  0  0  0  0  0  0  0  0  0
  -17.5683   10.3883  -18.7867 C   0  0  0  0  0  0  0  0  0  0  0  0
  -17.8787   11.7220  -19.0862 C   0  0  0  0  0  0  0  0  0  0  0  0
  -18.9171   12.2654  -18.3870 C   0  0  0  0  0  0  0  0  0  0  0  0
  -19.6516   11.5647  -17.4202 C   0  0  0  0  0  0  0  0  0  0  0  0
  -22.2596    6.9155  -13.9285 C   0  0  0  0  0  0  0  0  0  0  0  0
  -21.5582    8.1540  -14.1753 N   0  0  0  0  0  0  0  0  0  0  0  0
  -20.1532    8.0288  -14.2420 C   0  0  0  0  0  0  0  0  0  0  0  0
  -19.5654    8.3340  -15.6002 C   0  0  0  0  0  0  0  0  0  0  0  0
  -20.0608    9.5554  -16.1712 N   0  0  0  0  0  0  0  0  0  0  0  0
  -21.3360   10.0558  -15.7351 C   0  0  0  0  0  0  0  0  0  0  0  0
  -22.1767    8.9956  -15.1238 C   0  0  0  0  0  0  0  0  0  0  0  0
 22 23  1  0  0  0
 23 24  1  0  0  0
 24 25  1  0  0  0
 25 26  1  0  0  0
 26 27  1  0  0  0
 27 28  1  0  0  0
 26 16  1  0  0  0
 16 17  2  0  0  0
 17 18  1  0  0  0
 18 19  2  0  0  0
 19  1  1  0  0  0
  1  3  1  0  0  0
  3  4  2  0  0  0
  4  5  1  0  0  0
  5  6  2  0  0  0
  6  7  1  0  0  0
  7  8  2  0  0  0
  8  9  1  0  0  0
  9 10  2  0  0  0
 10 11  1  0  0  0
 11 12  1  0  0  0
 12 13  2  0  0  0
 13 14  1  0  0  0
 14 15  2  0  0  0
 19 20  1  0  0  0
 20 21  2  0  0  0
 28 23  1  0  0  0
 21 16  1  0  0  0
 15  3  1  0  0  0
 10  5  1  0  0  0
 15 11  1  0  0  0
  1  2  1  0  0  0
M  END
> <minimizedAffinity>
-8.51290

> <CNNscore>
0.2712154984

> <CNNaffinity>
6.3901557922

> <CNN_VS>
1.7331092358

> <CNNaffinity_variance>
0.0091838334

$$$$
[H]c1c([H])c(N2C([H])([H])C([H])([H])N(C([H])([H])[H])C([H])([H])C2([H])[H])c([H])c([H])c1N([H])c1nc2c([H])c([H])c([H])c([H])c2n2c([H])nc([H])c12


 28 32  0  0  0  0  0  0  0  0999 V2000
  -17.9460   11.2108  -18.3974 N   0  0  0  0  0  0  0  0  0  0  0  0
  -17.1021   10.6047  -18.7147 H   0  0  0  0  0  0  0  0  0  0  0  0
  -18.0171   12.5320  -18.8901 C   0  0  0  0  0  0  0  0  0  0  0  0
  -18.3409   13.6293  -18.2083 N   0  0  0  0  0  0  0  0  0  0  0  0
  -18.3821   14.8693  -18.7230 C   0  0  0  0  0  0  0  0  0  0  0  0
  -18.7253   15.9688  -17.9653 C   0  0  0  0  0  0  0  0  0  0  0  0
  -18.7678   17.2395  -18.4918 C   0  0  0  0  0  0  0  0  0  0  0  0
  -18.4521   17.3888  -19.8237 C   0  0  0  0  0  0  0  0  0  0  0  0
  -18.1047   16.2925  -20.5996 C   0  0  0  0  0  0  0  0  0  0  0  0
  -18.0676   15.0240  -20.0528 C   0  0  0  0  0  0  0  0  0  0  0  0
  -17.7293   13.9481  -20.8038 N   0  0  0  0  0  0  0  0  0  0  0  0
  -17.3913   13.8829  -22.1072 C   0  0  0  0  0  0  0  0  0  0  0  0
  -17.1507   12.5882  -22.3519 N   0  0  0  0  0  0  0  0  0  0  0  0
  -17.3295   11.8579  -21.2447 C   0  0  0  0  0  0  0  0  0  0  0  0
  -17.7021   12.7318  -20.2464 C   0  0  0  0  0  0  0  0  0  0  0  0
  -20.5742    9.0987  -15.8329 C   0  0  0  0  0  0  0  0  0  0  0  0
  -19.4379    8.5356  -16.3608 C   0  0  0  0  0  0  0  0  0  0  0  0
  -18.5832    9.2249  -17.1898 C   0  0  0  0  0  0  0  0  0  0  0  0
  -18.8456   10.5579  -17.5349 C   0  0  0  0  0  0  0  0  0  0  0  0
  -19.9786   11.1012  -17.0022 C   0  0  0  0  0  0  0  0  0  0  0  0
  -20.8507   10.4009  -16.1571 C   0  0  0  0  0  0  0  0  0  0  0  0
  -23.3687    6.4239  -11.9406 C   0  0  0  0  0  0  0  0  0  0  0  0
  -23.2286    6.9377  -13.2835 N   0  0  0  0  0  0  0  0  0  0  0  0
  -23.3167    8.3434  -13.3855 C   0  0  0  0  0  0  0  0  0  0  0  0
  -22.0396    9.0156  -13.8332 C   0  0  0  0  0  0  0  0  0  0  0  0
  -21.4432    8.3928  -14.9819 N   0  0  0  0  0  0  0  0  0  0  0  0
  -21.7447    7.0142  -15.2562 C   0  0  0  0  0  0  0  0  0  0  0  0
  -22.2353    6.2959  -14.0528 C   0  0  0  0  0  0  0  0  0  0  0  0
 22 23  1  0  0  0
 23 24  1  0  0  0
 24 25  1  0  0  0
 25 26  1  0  0  0
 26 27  1  0  0  0
 27 28  1  0  0  0
 26 16  1  0  0  0
 16 17  2  0  0  0
 17 18  1  0  0  0
 18 19  2  0  0  0
 19  1  1  0  0  0
  1  3  1  0  0  0
  3  4  2  0  0  0
  4  5  1  0  0  0
  5  6  2  0  0  0
  6  7  1  0  0  0
  7  8  2  0  0  0
  8  9  1  0  0  0
  9 10  2  0  0  0
 10 11  1  0  0  0
 11 12  1  0  0  0
 12 13  2  0  0  0
 13 14  1  0  0  0
 14 15  2  0  0  0
 19 20  1  0  0  0
 20 21  2  0  0  0
 28 23  1  0  0  0
 21 16  1  0  0  0
 15  3  1  0  0  0
 10  5  1  0  0  0
 15 11  1  0  0  0
  1  2  1  0  0  0
M  END
> <minimizedAffinity>
-7.46077

> <CNNscore>
0.2668476701

> <CNNaffinity>
6.0477395058

> <CNN_VS>
1.6138252020

> <CNNaffinity_variance>
0.0452546105

$$$$
[H]c1c([H])c(N2C([H])([H])C([H])([H])N(C([H])([H])[H])C([H])([H])C2([H])[H])c([H])c([H])c1N([H])c1nc2c([H])c([H])c([H])c([H])c2n2c([H])nc([H])c12


 28 32  0  0  0  0  0  0  0  0999 V2000
  -16.7416   12.1730  -22.1334 N   0  0  0  0  0  0  0  0  0  0  0  0
  -16.1513   11.2629  -22.1928 H   0  0  0  0  0  0  0  0  0  0  0  0
  -16.6250   13.0923  -23.1987 C   0  0  0  0  0  0  0  0  0  0  0  0
  -16.7239   12.8321  -24.5012 N   0  0  0  0  0  0  0  0  0  0  0  0
  -16.6167   13.7482  -25.4776 C   0  0  0  0  0  0  0  0  0  0  0  0
  -16.7285   13.4174  -26.8114 C   0  0  0  0  0  0  0  0  0  0  0  0
  -16.6188   14.3552  -27.8126 C   0  0  0  0  0  0  0  0  0  0  0  0
  -16.3895   15.6610  -27.4408 C   0  0  0  0  0  0  0  0  0  0  0  0
  -16.2745   16.0100  -26.1031 C   0  0  0  0  0  0  0  0  0  0  0  0
  -16.3876   15.0539  -25.1118 C   0  0  0  0  0  0  0  0  0  0  0  0
  -16.2766   15.3865  -23.8030 N   0  0  0  0  0  0  0  0  0  0  0  0
  -16.0555   16.5909  -23.2390 C   0  0  0  0  0  0  0  0  0  0  0  0
  -16.0340   16.3707  -21.9179 N   0  0  0  0  0  0  0  0  0  0  0  0
  -16.2342   15.0742  -21.6527 C   0  0  0  0  0  0  0  0  0  0  0  0
  -16.3908   14.4385  -22.8653 C   0  0  0  0  0  0  0  0  0  0  0  0
  -19.0478   12.3824  -18.5862 C   0  0  0  0  0  0  0  0  0  0  0  0
  -17.8164   11.7759  -18.6380 C   0  0  0  0  0  0  0  0  0  0  0  0
  -17.0669   11.7132  -19.7902 C   0  0  0  0  0  0  0  0  0  0  0  0
  -17.5425   12.2784  -20.9815 C   0  0  0  0  0  0  0  0  0  0  0  0
  -18.7674   12.8761  -20.9120 C   0  0  0  0  0  0  0  0  0  0  0  0
  -19.5327   12.9415  -19.7393 C   0  0  0  0  0  0  0  0  0  0  0  0
  -22.6051   12.2432  -14.4100 C   0  0  0  0  0  0  0  0  0  0  0  0
  -21.3375   12.6192  -14.9922 N   0  0  0  0  0  0  0  0  0  0  0  0
  -20.4492   11.5429  -15.2079 C   0  0  0  0  0  0  0  0  0  0  0  0
  -20.1478   11.2673  -16.6627 C   0  0  0  0  0  0  0  0  0  0  0  0
  -19.8091   12.4490  -17.4057 N   0  0  0  0  0  0  0  0  0  0  0  0
  -20.2680   13.7238  -16.9249 C   0  0  0  0  0  0  0  0  0  0  0  0
  -21.4286   13.5941  -16.0080 C   0  0  0  0  0  0  0  0  0  0  0  0
 22 23  1  0  0  0
 23 24  1  0  0  0
 24 25  1  0  0  0
 25 26  1  0  0  0
 26 27  1  0  0  0
 27 28  1  0  0  0
 26 16  1  0  0  0
 16 17  2  0  0  0
 17 18  1  0  0  0
 18 19  2  0  0  0
 19  1  1  0  0  0
  1  3  1  0  0  0
  3  4  2  0  0  0
  4  5  1  0  0  0
  5  6  2  0  0  0
  6  7  1  0  0  0
  7  8  2  0  0  0
  8  9  1  0  0  0
  9 10  2  0  0  0
 10 11  1  0  0  0
 11 12  1  0  0  0
 12 13  2  0  0  0
 13 14  1  0  0  0
 14 15  2  0  0  0
 19 20  1  0  0  0
 20 21  2  0  0  0
 28 23  1  0  0  0
 21 16  1  0  0  0
 15  3  1  0  0  0
 10  5  1  0  0  0
 15 11  1  0  0  0
  1  2  1  0  0  0
M  END
> <minimizedAffinity>
-8.55091

> <CNNscore>
0.2490556687

> <CNNaffinity>
6.5357041359

> <CNN_VS>
1.6277542114

> <CNNaffinity_variance>
0.0410429202

$$$$
[H]c1nc(C(=O)N([H])[H])c(N([H])c2c([H])c([H])c(C3(C([H])([H])[H])C(=O)N([H])C([H])([H])C3([H])[H])c([H])c2[H])nc1N1C([H])([H])C([H])([H])C([H])([H])[C@@]([H])(N([H])[C@@]([H])(C([H])([H])[H])C(F)(F)F)C1([H])[H]


 41 44  0  0  0  0  0  0  0  0999 V2000
  -19.9577   10.3706  -16.4307 C   0  0  0  0  0  0  0  0  0  0  0  0
  -19.0598    9.4002  -16.8095 C   0  0  0  0  0  0  0  0  0  0  0  0
  -18.2110    9.5823  -17.8294 N   0  0  0  0  0  0  0  0  0  0  0  0
  -18.1873   10.7513  -18.5583 C   0  0  0  0  0  0  0  0  0  0  0  0
  -19.0819   11.7120  -18.1795 C   0  0  0  0  0  0  0  0  0  0  0  0
  -19.9405   11.4987  -17.1294 N   0  0  0  0  0  0  0  0  0  0  0  0
  -21.7557    8.4536  -13.7953 C   0  0  0  0  0  0  0  0  0  0  0  0
  -23.0838    9.1406  -13.9963 C   0  0  0  0  0  0  0  0  0  0  0  0
  -22.7818   10.6509  -13.9686 C   0  0  0  0  0  0  0  0  0  0  0  0
  -22.0914   10.9062  -15.2883 C   0  0  0  0  0  0  0  0  0  0  0  0
  -20.8743   10.1316  -15.3227 N   0  0  0  0  0  0  0  0  0  0  0  0
  -20.5670    9.1796  -14.3134 C   0  0  0  0  0  0  0  0  0  0  0  0
  -21.8134    7.0516  -13.9740 N   0  0  0  0  0  0  0  0  0  0  0  0
  -21.8128    6.5651  -13.0708 H   0  0  0  0  0  0  0  0  0  0  0  0
  -20.1263    5.3480  -14.5484 C   0  0  0  0  0  0  0  0  0  0  0  0
  -21.0985    6.3987  -14.9762 C   0  0  0  0  0  0  0  0  0  0  0  0
  -22.1269    5.7477  -15.9267 C   0  0  0  0  0  0  0  0  0  0  0  0
  -23.0786    6.6885  -16.3147 F   0  0  0  0  0  0  0  0  0  0  0  0
  -22.7762    4.7038  -15.3347 F   0  0  0  0  0  0  0  0  0  0  0  0
  -21.5237    5.2826  -17.0730 F   0  0  0  0  0  0  0  0  0  0  0  0
  -17.2077   10.8363  -19.6202 C   0  0  0  0  0  0  0  0  0  0  0  0
  -16.0821    9.9666  -19.6289 N   0  0  0  0  0  0  0  0  0  0  0  0
  -17.2749   11.6339  -20.5535 O   0  0  0  0  0  0  0  0  0  0  0  0
  -15.2139   10.2342  -19.1500 H   0  0  0  0  0  0  0  0  0  0  0  0
  -16.1527    9.0668  -20.1215 H   0  0  0  0  0  0  0  0  0  0  0  0
  -19.1719   12.9203  -18.9128 N   0  0  0  0  0  0  0  0  0  0  0  0
  -19.0308   12.9897  -19.9331 H   0  0  0  0  0  0  0  0  0  0  0  0
  -19.4891   14.1617  -18.2543 C   0  0  0  0  0  0  0  0  0  0  0  0
  -18.6135   14.7590  -17.4004 C   0  0  0  0  0  0  0  0  0  0  0  0
  -18.9989   15.9382  -16.7434 C   0  0  0  0  0  0  0  0  0  0  0  0
  -20.2250   16.5013  -16.9380 C   0  0  0  0  0  0  0  0  0  0  0  0
  -21.0917   15.8733  -17.8124 C   0  0  0  0  0  0  0  0  0  0  0  0
  -20.7572   14.7205  -18.4749 C   0  0  0  0  0  0  0  0  0  0  0  0
  -20.6661   17.7271  -16.2514 C   0  0  0  0  0  0  0  0  0  0  0  0
  -19.4289   18.4191  -15.7061 C   0  0  0  0  0  0  0  0  0  0  0  0
  -21.4360   18.6510  -17.1844 C   0  0  0  0  0  0  0  0  0  0  0  0
  -22.3193   19.4932  -16.2555 C   0  0  0  0  0  0  0  0  0  0  0  0
  -22.5233   18.6400  -15.0830 N   0  0  0  0  0  0  0  0  0  0  0  0
  -21.6655   17.4940  -15.1985 C   0  0  0  0  0  0  0  0  0  0  0  0
  -21.8079   16.4848  -14.4760 O   0  0  0  0  0  0  0  0  0  0  0  0
  -23.1881   18.8621  -14.3176 H   0  0  0  0  0  0  0  0  0  0  0  0
 15 16  1  0  0  0
 16 13  1  0  0  0
 13  7  1  0  0  0
  7  8  1  0  0  0
  8  9  1  0  0  0
  9 10  1  0  0  0
 10 11  1  0  0  0
 11 12  1  0  0  0
 11  1  1  0  0  0
  1  2  2  0  0  0
  2  3  1  0  0  0
  3  4  2  0  0  0
  4 21  1  0  0  0
 21 22  1  0  0  0
 21 23  2  0  0  0
  4  5  1  0  0  0
  5 26  1  0  0  0
 26 28  1  0  0  0
 28 29  2  0  0  0
 29 30  1  0  0  0
 30 31  2  0  0  0
 31 32  1  0  0  0
 32 33  2  0  0  0
 31 34  1  0  0  0
 34 35  1  0  0  0
 34 36  1  0  0  0
 36 37  1  0  0  0
 37 38  1  0  0  0
 38 39  1  0  0  0
 39 40  2  0  0  0
  5  6  2  0  0  0
 16 17  1  0  0  0
 17 18  1  0  0  0
 17 19  1  0  0  0
 17 20  1  0  0  0
 12  7  1  0  0  0
  6  1  1  0  0  0
 33 28  1  0  0  0
 39 34  1  0  0  0
 13 14  1  0  0  0
 22 24  1  0  0  0
 22 25  1  0  0  0
 26 27  1  0  0  0
 38 41  1  0  0  0
M  END
> <minimizedAffinity>
-6.73224

> <CNNscore>
0.3645210862

> <CNNaffinity>
6.6440916061

> <CNN_VS>
2.4219114780

> <CNNaffinity_variance>
0.0669530332

$$$$
[H]c1nc(C(=O)N([H])[H])c(N([H])c2c([H])c([H])c(C3(C([H])([H])[H])C(=O)N([H])C([H])([H])C3([H])[H])c([H])c2[H])nc1N1C([H])([H])C([H])([H])C([H])([H])[C@@]([H])(N([H])[C@@]([H])(C([H])([H])[H])C(F)(F)F)C1([H])[H]


 41 44  0  0  0  0  0  0  0  0999 V2000
  -19.2692   11.9101  -17.4855 C   0  0  0  0  0  0  0  0  0  0  0  0
  -18.5376   10.7565  -17.6451 C   0  0  0  0  0  0  0  0  0  0  0  0
  -17.7708   10.5495  -18.7236 N   0  0  0  0  0  0  0  0  0  0  0  0
  -17.6700   11.4791  -19.7356 C   0  0  0  0  0  0  0  0  0  0  0  0
  -18.3996   12.6230  -19.5736 C   0  0  0  0  0  0  0  0  0  0  0  0
  -19.1770   12.8091  -18.4572 N   0  0  0  0  0  0  0  0  0  0  0  0
  -20.9500   11.0372  -14.2814 C   0  0  0  0  0  0  0  0  0  0  0  0
  -22.2469   11.7386  -14.6018 C   0  0  0  0  0  0  0  0  0  0  0  0
  -21.8537   13.1559  -15.0597 C   0  0  0  0  0  0  0  0  0  0  0  0
  -21.2630   12.9414  -16.4340 C   0  0  0  0  0  0  0  0  0  0  0  0
  -20.1017   12.0946  -16.3032 N   0  0  0  0  0  0  0  0  0  0  0  0
  -19.7679   11.4711  -15.0707 C   0  0  0  0  0  0  0  0  0  0  0  0
  -21.1066    9.6568  -14.0154 N   0  0  0  0  0  0  0  0  0  0  0  0
  -21.6071    9.5066  -13.1325 H   0  0  0  0  0  0  0  0  0  0  0  0
  -19.6681    7.8626  -13.1263 C   0  0  0  0  0  0  0  0  0  0  0  0
  -20.0951    8.7311  -14.2645 C   0  0  0  0  0  0  0  0  0  0  0  0
  -20.5775    7.8194  -15.4138 C   0  0  0  0  0  0  0  0  0  0  0  0
  -21.9182    8.0756  -15.6939 F   0  0  0  0  0  0  0  0  0  0  0  0
  -20.4528    6.4974  -15.1002 F   0  0  0  0  0  0  0  0  0  0  0  0
  -19.8684    8.0545  -16.5696 F   0  0  0  0  0  0  0  0  0  0  0  0
  -16.7900   11.1499  -20.8364 C   0  0  0  0  0  0  0  0  0  0  0  0
  -16.0066    9.9632  -20.7980 N   0  0  0  0  0  0  0  0  0  0  0  0
  -16.6614   11.8438  -21.8432 O   0  0  0  0  0  0  0  0  0  0  0  0
  -15.0678    9.9726  -20.3817 H   0  0  0  0  0  0  0  0  0  0  0  0
  -16.3958    9.0974  -21.1931 H   0  0  0  0  0  0  0  0  0  0  0  0
  -18.4067   13.6053  -20.5938 N   0  0  0  0  0  0  0  0  0  0  0  0
  -18.1338   13.4247  -21.5728 H   0  0  0  0  0  0  0  0  0  0  0  0
  -18.8218   14.9563  -20.3148 C   0  0  0  0  0  0  0  0  0  0  0  0
  -20.0597   15.4063  -20.6581 C   0  0  0  0  0  0  0  0  0  0  0  0
  -20.3893   16.7486  -20.4128 C   0  0  0  0  0  0  0  0  0  0  0  0
  -19.5044   17.6127  -19.8396 C   0  0  0  0  0  0  0  0  0  0  0  0
  -18.2561   17.1263  -19.4999 C   0  0  0  0  0  0  0  0  0  0  0  0
  -17.8917   15.8234  -19.7216 C   0  0  0  0  0  0  0  0  0  0  0  0
  -19.8129   19.0299  -19.5851 C   0  0  0  0  0  0  0  0  0  0  0  0
  -21.3171   19.2020  -19.7064 C   0  0  0  0  0  0  0  0  0  0  0  0
  -19.3260   19.4764  -18.2138 C   0  0  0  0  0  0  0  0  0  0  0  0
  -19.1399   20.9934  -18.3425 C   0  0  0  0  0  0  0  0  0  0  0  0
  -18.8660   21.2021  -19.7657 N   0  0  0  0  0  0  0  0  0  0  0  0
  -19.0881   19.9642  -20.4590 C   0  0  0  0  0  0  0  0  0  0  0  0
  -18.6950   19.7816  -21.6307 O   0  0  0  0  0  0  0  0  0  0  0  0
  -18.5627   22.1100  -20.1669 H   0  0  0  0  0  0  0  0  0  0  0  0
 15 16  1  0  0  0
 16 13  1  0  0  0
 13  7  1  0  0  0
  7  8  1  0  0  0
  8  9  1  0  0  0
  9 10  1  0  0  0
 10 11  1  0  0  0
 11 12  1  0  0  0
 11  1  1  0  0  0
  1  2  2  0  0  0
  2  3  1  0  0  0
  3  4  2  0  0  0
  4 21  1  0  0  0
 21 22  1  0  0  0
 21 23  2  0  0  0
  4  5  1  0  0  0
  5 26  1  0  0  0
 26 28  1  0  0  0
 28 29  2  0  0  0
 29 30  1  0  0  0
 30 31  2  0  0  0
 31 32  1  0  0  0
 32 33  2  0  0  0
 31 34  1  0  0  0
 34 35  1  0  0  0
 34 36  1  0  0  0
 36 37  1  0  0  0
 37 38  1  0  0  0
 38 39  1  0  0  0
 39 40  2  0  0  0
  5  6  2  0  0  0
 16 17  1  0  0  0
 17 18  1  0  0  0
 17 19  1  0  0  0
 17 20  1  0  0  0
 12  7  1  0  0  0
  6  1  1  0  0  0
 33 28  1  0  0  0
 39 34  1  0  0  0
 13 14  1  0  0  0
 22 24  1  0  0  0
 22 25  1  0  0  0
 26 27  1  0  0  0
 38 41  1  0  0  0
M  END
> <minimizedAffinity>
-6.84607

> <CNNscore>
0.3324099481

> <CNNaffinity>
6.9200720787

> <CNN_VS>
2.3003008366

> <CNNaffinity_variance>
0.2861009240

$$$$
[H]c1nc(C(=O)N([H])[H])c(N([H])c2c([H])c([H])c(C3(C([H])([H])[H])C(=O)N([H])C([H])([H])C3([H])[H])c([H])c2[H])nc1N1C([H])([H])C([H])([H])C([H])([H])[C@@]([H])(N([H])[C@@]([H])(C([H])([H])[H])C(F)(F)F)C1([H])[H]


 41 44  0  0  0  0  0  0  0  0999 V2000
  -20.0567   11.7738  -16.0723 C   0  0  0  0  0  0  0  0  0  0  0  0
  -19.7479   10.5160  -16.5349 C   0  0  0  0  0  0  0  0  0  0  0  0
  -18.9516   10.3289  -17.5954 N   0  0  0  0  0  0  0  0  0  0  0  0
  -18.3954   11.3844  -18.2847 C   0  0  0  0  0  0  0  0  0  0  0  0
  -18.7059   12.6321  -17.8226 C   0  0  0  0  0  0  0  0  0  0  0  0
  -19.5247   12.7948  -16.7324 N   0  0  0  0  0  0  0  0  0  0  0  0
  -22.1830   10.7718  -13.1865 C   0  0  0  0  0  0  0  0  0  0  0  0
  -23.2588   11.8002  -13.4346 C   0  0  0  0  0  0  0  0  0  0  0  0
  -22.5236   13.1447  -13.5921 C   0  0  0  0  0  0  0  0  0  0  0  0
  -21.8669   13.0413  -14.9492 C   0  0  0  0  0  0  0  0  0  0  0  0
  -20.9367   11.9383  -14.9218 N   0  0  0  0  0  0  0  0  0  0  0  0
  -20.8654   11.0495  -13.8154 C   0  0  0  0  0  0  0  0  0  0  0  0
  -22.6622    9.4409  -13.1976 N   0  0  0  0  0  0  0  0  0  0  0  0
  -22.6636    9.0424  -12.2522 H   0  0  0  0  0  0  0  0  0  0  0  0
  -22.2644    7.0899  -13.8248 C   0  0  0  0  0  0  0  0  0  0  0  0
  -22.3209    8.5350  -14.2000 C   0  0  0  0  0  0  0  0  0  0  0  0
  -23.3504    8.6989  -15.3393 C   0  0  0  0  0  0  0  0  0  0  0  0
  -24.6124    8.9553  -14.8073 F   0  0  0  0  0  0  0  0  0  0  0  0
  -23.4340    7.5786  -16.1137 F   0  0  0  0  0  0  0  0  0  0  0  0
  -23.0292    9.7603  -16.1544 F   0  0  0  0  0  0  0  0  0  0  0  0
  -17.5324   11.0521  -19.3980 C   0  0  0  0  0  0  0  0  0  0  0  0
  -16.6541    9.9362  -19.3164 N   0  0  0  0  0  0  0  0  0  0  0  0
  -17.4977   11.6847  -20.4518 O   0  0  0  0  0  0  0  0  0  0  0  0
  -15.7046   10.0476  -18.9413 H   0  0  0  0  0  0  0  0  0  0  0  0
  -16.9858    9.0178  -19.6385 H   0  0  0  0  0  0  0  0  0  0  0  0
  -18.2307   13.7766  -18.5084 N   0  0  0  0  0  0  0  0  0  0  0  0
  -17.2312   13.9972  -18.6424 H   0  0  0  0  0  0  0  0  0  0  0  0
  -19.1484   14.7235  -19.0885 C   0  0  0  0  0  0  0  0  0  0  0  0
  -20.3079   14.3223  -19.6778 C   0  0  0  0  0  0  0  0  0  0  0  0
  -21.1365   15.2842  -20.2769 C   0  0  0  0  0  0  0  0  0  0  0  0
  -20.8121   16.6082  -20.2835 C   0  0  0  0  0  0  0  0  0  0  0  0
  -19.6296   16.9856  -19.6755 C   0  0  0  0  0  0  0  0  0  0  0  0
  -18.7905   16.0802  -19.0790 C   0  0  0  0  0  0  0  0  0  0  0  0
  -21.6503   17.6393  -20.9182 C   0  0  0  0  0  0  0  0  0  0  0  0
  -23.0289   17.0406  -21.1368 C   0  0  0  0  0  0  0  0  0  0  0  0
  -21.7360   18.8992  -20.0683 C   0  0  0  0  0  0  0  0  0  0  0  0
  -22.0617   20.0187  -21.0648 C   0  0  0  0  0  0  0  0  0  0  0  0
  -21.5064   19.5429  -22.3335 N   0  0  0  0  0  0  0  0  0  0  0  0
  -21.0894   18.1789  -22.1656 C   0  0  0  0  0  0  0  0  0  0  0  0
  -20.3585   17.6026  -22.9988 O   0  0  0  0  0  0  0  0  0  0  0  0
  -21.4419   20.1268  -23.1891 H   0  0  0  0  0  0  0  0  0  0  0  0
 15 16  1  0  0  0
 16 13  1  0  0  0
 13  7  1  0  0  0
  7  8  1  0  0  0
  8  9  1  0  0  0
  9 10  1  0  0  0
 10 11  1  0  0  0
 11 12  1  0  0  0
 11  1  1  0  0  0
  1  2  2  0  0  0
  2  3  1  0  0  0
  3  4  2  0  0  0
  4 21  1  0  0  0
 21 22  1  0  0  0
 21 23  2  0  0  0
  4  5  1  0  0  0
  5 26  1  0  0  0
 26 28  1  0  0  0
 28 29  2  0  0  0
 29 30  1  0  0  0
 30 31  2  0  0  0
 31 32  1  0  0  0
 32 33  2  0  0  0
 31 34  1  0  0  0
 34 35  1  0  0  0
 34 36  1  0  0  0
 36 37  1  0  0  0
 37 38  1  0  0  0
 38 39  1  0  0  0
 39 40  2  0  0  0
  5  6  2  0  0  0
 16 17  1  0  0  0
 17 18  1  0  0  0
 17 19  1  0  0  0
 17 20  1  0  0  0
 12  7  1  0  0  0
  6  1  1  0  0  0
 33 28  1  0  0  0
 39 34  1  0  0  0
 13 14  1  0  0  0
 22 24  1  0  0  0
 22 25  1  0  0  0
 26 27  1  0  0  0
 38 41  1  0  0  0
M  END
> <minimizedAffinity>
-6.64490

> <CNNscore>
0.2901605964

> <CNNaffinity>
6.5193076134

> <CNN_VS>
1.8916461468

> <CNNaffinity_variance>
0.0957563445

$$$$
[H]c1nc(C(=O)N([H])[H])c(N([H])c2c([H])c([H])c(C3(C([H])([H])[H])C(=O)N([H])C([H])([H])C3([H])[H])c([H])c2[H])nc1N1C([H])([H])C([H])([H])C([H])([H])[C@@]([H])(N([H])[C@@]([H])(C([H])([H])[H])C(F)(F)F)C1([H])[H]


 41 44  0  0  0  0  0  0  0  0999 V2000
  -19.5128   10.3975  -16.3510 C   0  0  0  0  0  0  0  0  0  0  0  0
  -18.6814    9.4207  -16.8472 C   0  0  0  0  0  0  0  0  0  0  0  0
  -17.9779    9.5967  -17.9733 N   0  0  0  0  0  0  0  0  0  0  0  0
  -18.0455   10.7653  -18.7001 C   0  0  0  0  0  0  0  0  0  0  0  0
  -18.8737   11.7324  -18.2042 C   0  0  0  0  0  0  0  0  0  0  0  0
  -19.5830   11.5253  -17.0469 N   0  0  0  0  0  0  0  0  0  0  0  0
  -20.1391   10.0071  -12.7029 C   0  0  0  0  0  0  0  0  0  0  0  0
  -21.1087    8.8598  -12.8438 C   0  0  0  0  0  0  0  0  0  0  0  0
  -22.1404    9.3110  -13.8952 C   0  0  0  0  0  0  0  0  0  0  0  0
  -21.3807    9.2442  -15.1997 C   0  0  0  0  0  0  0  0  0  0  0  0
  -20.2718   10.1651  -15.1283 N   0  0  0  0  0  0  0  0  0  0  0  0
  -19.9335   10.8335  -13.9209 C   0  0  0  0  0  0  0  0  0  0  0  0
  -19.0118    9.6978  -11.9064 N   0  0  0  0  0  0  0  0  0  0  0  0
  -18.8655    8.6837  -11.8537 H   0  0  0  0  0  0  0  0  0  0  0  0
  -19.8770   10.7285   -9.8406 C   0  0  0  0  0  0  0  0  0  0  0  0
  -18.7249   10.3796  -10.7254 C   0  0  0  0  0  0  0  0  0  0  0  0
  -17.7411    9.5064   -9.9165 C   0  0  0  0  0  0  0  0  0  0  0  0
  -16.6728   10.2816   -9.4700 F   0  0  0  0  0  0  0  0  0  0  0  0
  -17.2400    8.4803  -10.6633 F   0  0  0  0  0  0  0  0  0  0  0  0
  -18.3475    8.9701   -8.8035 F   0  0  0  0  0  0  0  0  0  0  0  0
  -17.2188   10.8433  -19.8854 C   0  0  0  0  0  0  0  0  0  0  0  0
  -16.0695   10.0150  -20.0139 N   0  0  0  0  0  0  0  0  0  0  0  0
  -17.4412   11.6002  -20.8285 O   0  0  0  0  0  0  0  0  0  0  0  0
  -15.1574   10.3326  -19.6646 H   0  0  0  0  0  0  0  0  0  0  0  0
  -16.1676    9.0944  -20.4613 H   0  0  0  0  0  0  0  0  0  0  0  0
  -19.0543   12.9410  -18.9200 N   0  0  0  0  0  0  0  0  0  0  0  0
  -18.9185   13.0358  -19.9389 H   0  0  0  0  0  0  0  0  0  0  0  0
  -19.4645   14.1452  -18.2438 C   0  0  0  0  0  0  0  0  0  0  0  0
  -18.6025   14.8526  -17.4633 C   0  0  0  0  0  0  0  0  0  0  0  0
  -19.0730   15.9869  -16.7832 C   0  0  0  0  0  0  0  0  0  0  0  0
  -20.3683   16.3994  -16.8839 C   0  0  0  0  0  0  0  0  0  0  0  0
  -21.2194   15.6622  -17.6854 C   0  0  0  0  0  0  0  0  0  0  0  0
  -20.8029   14.5481  -18.3671 C   0  0  0  0  0  0  0  0  0  0  0  0
  -20.8971   17.5738  -16.1700 C   0  0  0  0  0  0  0  0  0  0  0  0
  -22.4104   17.4486  -16.1365 C   0  0  0  0  0  0  0  0  0  0  0  0
  -20.3316   17.6798  -14.7607 C   0  0  0  0  0  0  0  0  0  0  0  0
  -20.4448   19.1680  -14.4075 C   0  0  0  0  0  0  0  0  0  0  0  0
  -20.3953   19.8492  -15.7028 N   0  0  0  0  0  0  0  0  0  0  0  0
  -20.4719   18.8602  -16.7412 C   0  0  0  0  0  0  0  0  0  0  0  0
  -20.2028   19.1275  -17.9315 O   0  0  0  0  0  0  0  0  0  0  0  0
  -20.3167   20.8786  -15.8096 H   0  0  0  0  0  0  0  0  0  0  0  0
 15 16  1  0  0  0
 16 13  1  0  0  0
 13  7  1  0  0  0
  7  8  1  0  0  0
  8  9  1  0  0  0
  9 10  1  0  0  0
 10 11  1  0  0  0
 11 12  1  0  0  0
 11  1  1  0  0  0
  1  2  2  0  0  0
  2  3  1  0  0  0
  3  4  2  0  0  0
  4 21  1  0  0  0
 21 22  1  0  0  0
 21 23  2  0  0  0
  4  5  1  0  0  0
  5 26  1  0  0  0
 26 28  1  0  0  0
 28 29  2  0  0  0
 29 30  1  0  0  0
 30 31  2  0  0  0
 31 32  1  0  0  0
 32 33  2  0  0  0
 31 34  1  0  0  0
 34 35  1  0  0  0
 34 36  1  0  0  0
 36 37  1  0  0  0
 37 38  1  0  0  0
 38 39  1  0  0  0
 39 40  2  0  0  0
  5  6  2  0  0  0
 16 17  1  0  0  0
 17 18  1  0  0  0
 17 19  1  0  0  0
 17 20  1  0  0  0
 12  7  1  0  0  0
  6  1  1  0  0  0
 33 28  1  0  0  0
 39 34  1  0  0  0
 13 14  1  0  0  0
 22 24  1  0  0  0
 22 25  1  0  0  0
 26 27  1  0  0  0
 38 41  1  0  0  0
M  END
> <minimizedAffinity>
-7.12569

> <CNNscore>
0.2706089318

> <CNNaffinity>
6.5297546387

> <CNN_VS>
1.7670099735

> <CNNaffinity_variance>
0.1251817346

$$$$
[H]c1nc(C(=O)N([H])[H])c(N([H])c2c([H])c([H])c(C3(C([H])([H])[H])C(=O)N([H])C([H])([H])C3([H])[H])c([H])c2[H])nc1N1C([H])([H])C([H])([H])C([H])([H])[C@@]([H])(N([H])[C@@]([H])(C([H])([H])[H])C(F)(F)F)C1([H])[H]


 41 44  0  0  0  0  0  0  0  0999 V2000
  -20.0273   13.9487  -17.4902 C   0  0  0  0  0  0  0  0  0  0  0  0
  -20.5456   13.0410  -16.5964 C   0  0  0  0  0  0  0  0  0  0  0  0
  -20.1671   11.7562  -16.5944 N   0  0  0  0  0  0  0  0  0  0  0  0
  -19.2373   11.2688  -17.4867 C   0  0  0  0  0  0  0  0  0  0  0  0
  -18.7261   12.1736  -18.3737 C   0  0  0  0  0  0  0  0  0  0  0  0
  -19.1317   13.4852  -18.3530 N   0  0  0  0  0  0  0  0  0  0  0  0
  -21.8172   17.0128  -18.6129 C   0  0  0  0  0  0  0  0  0  0  0  0
  -20.6953   17.9659  -18.2824 C   0  0  0  0  0  0  0  0  0  0  0  0
  -20.2821   17.6394  -16.8347 C   0  0  0  0  0  0  0  0  0  0  0  0
  -19.5519   16.3220  -16.9551 C   0  0  0  0  0  0  0  0  0  0  0  0
  -20.4724   15.3367  -17.4696 N   0  0  0  0  0  0  0  0  0  0  0  0
  -21.7687   15.6945  -17.9286 C   0  0  0  0  0  0  0  0  0  0  0  0
  -22.2028   17.0463  -19.9735 N   0  0  0  0  0  0  0  0  0  0  0  0
  -21.4633   17.4545  -20.5557 H   0  0  0  0  0  0  0  0  0  0  0  0
  -24.1434   18.5406  -19.6905 C   0  0  0  0  0  0  0  0  0  0  0  0
  -23.4954   17.3802  -20.3730 C   0  0  0  0  0  0  0  0  0  0  0  0
  -23.4479   17.6754  -21.8880 C   0  0  0  0  0  0  0  0  0  0  0  0
  -22.1313   17.6257  -22.3416 F   0  0  0  0  0  0  0  0  0  0  0  0
  -23.9535   18.9082  -22.1817 F   0  0  0  0  0  0  0  0  0  0  0  0
  -24.1597   16.7389  -22.6024 F   0  0  0  0  0  0  0  0  0  0  0  0
  -18.8932    9.8681  -17.3678 C   0  0  0  0  0  0  0  0  0  0  0  0
  -19.2555    9.1370  -16.2026 N   0  0  0  0  0  0  0  0  0  0  0  0
  -18.2876    9.2347  -18.2303 O   0  0  0  0  0  0  0  0  0  0  0  0
  -18.6237    9.1005  -15.3937 H   0  0  0  0  0  0  0  0  0  0  0  0
  -20.1593    8.6471  -16.1840 H   0  0  0  0  0  0  0  0  0  0  0  0
  -17.8126   11.7472  -19.3685 N   0  0  0  0  0  0  0  0  0  0  0  0
  -17.2055   10.9171  -19.2788 H   0  0  0  0  0  0  0  0  0  0  0  0
  -17.6844   12.4665  -20.6101 C   0  0  0  0  0  0  0  0  0  0  0  0
  -18.4033   13.5956  -20.8566 C   0  0  0  0  0  0  0  0  0  0  0  0
  -18.2799   14.2231  -22.1063 C   0  0  0  0  0  0  0  0  0  0  0  0
  -17.4595   13.7331  -23.0785 C   0  0  0  0  0  0  0  0  0  0  0  0
  -16.7406   12.5864  -22.7983 C   0  0  0  0  0  0  0  0  0  0  0  0
  -16.8307   11.9411  -21.5921 C   0  0  0  0  0  0  0  0  0  0  0  0
  -17.3211   14.3573  -24.4051 C   0  0  0  0  0  0  0  0  0  0  0  0
  -18.2265   15.5764  -24.4363 C   0  0  0  0  0  0  0  0  0  0  0  0
  -15.8791   14.7464  -24.6983 C   0  0  0  0  0  0  0  0  0  0  0  0
  -15.7872   14.7727  -26.2291 C   0  0  0  0  0  0  0  0  0  0  0  0
  -16.8180   13.8292  -26.6668 N   0  0  0  0  0  0  0  0  0  0  0  0
  -17.5999   13.4460  -25.5248 C   0  0  0  0  0  0  0  0  0  0  0  0
  -18.3807   12.4713  -25.5537 O   0  0  0  0  0  0  0  0  0  0  0  0
  -16.9307   13.5141  -27.6493 H   0  0  0  0  0  0  0  0  0  0  0  0
 15 16  1  0  0  0
 16 13  1  0  0  0
 13  7  1  0  0  0
  7  8  1  0  0  0
  8  9  1  0  0  0
  9 10  1  0  0  0
 10 11  1  0  0  0
 11 12  1  0  0  0
 11  1  1  0  0  0
  1  2  2  0  0  0
  2  3  1  0  0  0
  3  4  2  0  0  0
  4 21  1  0  0  0
 21 22  1  0  0  0
 21 23  2  0  0  0
  4  5  1  0  0  0
  5 26  1  0  0  0
 26 28  1  0  0  0
 28 29  2  0  0  0
 29 30  1  0  0  0
 30 31  2  0  0  0
 31 32  1  0  0  0
 32 33  2  0  0  0
 31 34  1  0  0  0
 34 35  1  0  0  0
 34 36  1  0  0  0
 36 37  1  0  0  0
 37 38  1  0  0  0
 38 39  1  0  0  0
 39 40  2  0  0  0
  5  6  2  0  0  0
 16 17  1  0  0  0
 17 18  1  0  0  0
 17 19  1  0  0  0
 17 20  1  0  0  0
 12  7  1  0  0  0
  6  1  1  0  0  0
 33 28  1  0  0  0
 39 34  1  0  0  0
 13 14  1  0  0  0
 22 24  1  0  0  0
 22 25  1  0  0  0
 26 27  1  0  0  0
 38 41  1  0  0  0
M  END
> <minimizedAffinity>
-8.51540

> <CNNscore>
0.2629922926

> <CNNaffinity>
7.1806230545

> <CNN_VS>
1.8884484768

> <CNNaffinity_variance>
0.2149473727

$$$$
[H]c1nc(C(=O)N([H])[H])c(N([H])c2c([H])c([H])c(C3(C([H])([H])[H])C(=O)N([H])C([H])([H])C3([H])[H])c([H])c2[H])nc1N1C([H])([H])C([H])([H])C([H])([H])[C@@]([H])(N([H])[C@@]([H])(C([H])([H])[H])C(F)(F)F)C1([H])[H]


 41 44  0  0  0  0  0  0  0  0999 V2000
  -17.1318   12.9214  -21.7374 C   0  0  0  0  0  0  0  0  0  0  0  0
  -16.8839   11.5811  -21.5536 C   0  0  0  0  0  0  0  0  0  0  0  0
  -17.2498   10.9418  -20.4350 N   0  0  0  0  0  0  0  0  0  0  0  0
  -17.8953   11.5884  -19.4036 C   0  0  0  0  0  0  0  0  0  0  0  0
  -18.1382   12.9201  -19.5899 C   0  0  0  0  0  0  0  0  0  0  0  0
  -17.7525   13.5502  -20.7473 N   0  0  0  0  0  0  0  0  0  0  0  0
  -16.2555   15.7376  -24.0077 C   0  0  0  0  0  0  0  0  0  0  0  0
  -16.9128   15.1481  -25.2311 C   0  0  0  0  0  0  0  0  0  0  0  0
  -16.3844   13.7048  -25.3351 C   0  0  0  0  0  0  0  0  0  0  0  0
  -17.0927   12.9784  -24.2153 C   0  0  0  0  0  0  0  0  0  0  0  0
  -16.7081   13.5857  -22.9639 N   0  0  0  0  0  0  0  0  0  0  0  0
  -15.9358   14.7776  -22.9192 C   0  0  0  0  0  0  0  0  0  0  0  0
  -16.7652   17.0079  -23.6508 N   0  0  0  0  0  0  0  0  0  0  0  0
  -16.1194   17.7550  -23.9288 H   0  0  0  0  0  0  0  0  0  0  0  0
  -17.1725   18.5479  -21.7690 C   0  0  0  0  0  0  0  0  0  0  0  0
  -17.4164   17.2355  -22.4400 C   0  0  0  0  0  0  0  0  0  0  0  0
  -18.9327   17.0996  -22.6994 C   0  0  0  0  0  0  0  0  0  0  0  0
  -19.6053   18.2041  -22.1807 F   0  0  0  0  0  0  0  0  0  0  0  0
  -19.4484   15.9764  -22.1212 F   0  0  0  0  0  0  0  0  0  0  0  0
  -19.2070   17.0523  -24.0472 F   0  0  0  0  0  0  0  0  0  0  0  0
  -18.2608   10.7831  -18.2581 C   0  0  0  0  0  0  0  0  0  0  0  0
  -17.5587    9.5789  -17.9746 N   0  0  0  0  0  0  0  0  0  0  0  0
  -19.1676   11.0700  -17.4789 O   0  0  0  0  0  0  0  0  0  0  0  0
  -17.8681    8.6880  -18.3812 H   0  0  0  0  0  0  0  0  0  0  0  0
  -16.7374    9.6157  -17.3571 H   0  0  0  0  0  0  0  0  0  0  0  0
  -18.7393   13.6786  -18.5559 N   0  0  0  0  0  0  0  0  0  0  0  0
  -18.6346   13.4709  -17.5502 H   0  0  0  0  0  0  0  0  0  0  0  0
  -19.5488   14.8307  -18.8606 C   0  0  0  0  0  0  0  0  0  0  0  0
  -19.0504   16.0943  -18.7742 C   0  0  0  0  0  0  0  0  0  0  0  0
  -19.9014   17.1816  -19.0279 C   0  0  0  0  0  0  0  0  0  0  0  0
  -21.2120   17.0062  -19.3593 C   0  0  0  0  0  0  0  0  0  0  0  0
  -21.6889   15.7116  -19.4414 C   0  0  0  0  0  0  0  0  0  0  0  0
  -20.8937   14.6208  -19.2015 C   0  0  0  0  0  0  0  0  0  0  0  0
  -22.1346   18.1253  -19.6142 C   0  0  0  0  0  0  0  0  0  0  0  0
  -23.3799   17.8946  -18.7758 C   0  0  0  0  0  0  0  0  0  0  0  0
  -21.4993   19.4679  -19.2813 C   0  0  0  0  0  0  0  0  0  0  0  0
  -22.2633   20.4830  -20.1406 C   0  0  0  0  0  0  0  0  0  0  0  0
  -22.7286   19.7029  -21.2892 N   0  0  0  0  0  0  0  0  0  0  0  0
  -22.4645   18.3145  -21.0345 C   0  0  0  0  0  0  0  0  0  0  0  0
  -22.5261   17.4523  -21.9364 O   0  0  0  0  0  0  0  0  0  0  0  0
  -23.1702   20.1224  -22.1296 H   0  0  0  0  0  0  0  0  0  0  0  0
 15 16  1  0  0  0
 16 13  1  0  0  0
 13  7  1  0  0  0
  7  8  1  0  0  0
  8  9  1  0  0  0
  9 10  1  0  0  0
 10 11  1  0  0  0
 11 12  1  0  0  0
 11  1  1  0  0  0
  1  2  2  0  0  0
  2  3  1  0  0  0
  3  4  2  0  0  0
  4 21  1  0  0  0
 21 22  1  0  0  0
 21 23  2  0  0  0
  4  5  1  0  0  0
  5 26  1  0  0  0
 26 28  1  0  0  0
 28 29  2  0  0  0
 29 30  1  0  0  0
 30 31  2  0  0  0
 31 32  1  0  0  0
 32 33  2  0  0  0
 31 34  1  0  0  0
 34 35  1  0  0  0
 34 36  1  0  0  0
 36 37  1  0  0  0
 37 38  1  0  0  0
 38 39  1  0  0  0
 39 40  2  0  0  0
  5  6  2  0  0  0
 16 17  1  0  0  0
 17 18  1  0  0  0
 17 19  1  0  0  0
 17 20  1  0  0  0
 12  7  1  0  0  0
  6  1  1  0  0  0
 33 28  1  0  0  0
 39 34  1  0  0  0
 13 14  1  0  0  0
 22 24  1  0  0  0
 22 25  1  0  0  0
 26 27  1  0  0  0
 38 41  1  0  0  0
M  END
> <minimizedAffinity>
-7.17337

> <CNNscore>
0.2618328333

> <CNNaffinity>
7.1367006302

> <CNN_VS>
1.8686225414

> <CNNaffinity_variance>
0.1299518198

$$$$
[H]c1nc(C(=O)N([H])[H])c(N([H])c2c([H])c([H])c(C3(C([H])([H])[H])C(=O)N([H])C([H])([H])C3([H])[H])c([H])c2[H])nc1N1C([H])([H])C([H])([H])C([H])([H])[C@@]([H])(N([H])[C@@]([H])(C([H])([H])[H])C(F)(F)F)C1([H])[H]


 41 44  0  0  0  0  0  0  0  0999 V2000
  -19.9906   11.4922  -16.1172 C   0  0  0  0  0  0  0  0  0  0  0  0
  -19.6524   10.2585  -16.6225 C   0  0  0  0  0  0  0  0  0  0  0  0
  -18.8413   10.1261  -17.6800 N   0  0  0  0  0  0  0  0  0  0  0  0
  -18.2983   11.2169  -18.3233 C   0  0  0  0  0  0  0  0  0  0  0  0
  -18.6380   12.4405  -17.8190 C   0  0  0  0  0  0  0  0  0  0  0  0
  -19.4715   12.5469  -16.7331 N   0  0  0  0  0  0  0  0  0  0  0  0
  -22.6413   12.9250  -13.9324 C   0  0  0  0  0  0  0  0  0  0  0  0
  -21.9414   12.6148  -12.6322 C   0  0  0  0  0  0  0  0  0  0  0  0
  -21.5437   11.1289  -12.7155 C   0  0  0  0  0  0  0  0  0  0  0  0
  -20.3986   11.1155  -13.7014 C   0  0  0  0  0  0  0  0  0  0  0  0
  -20.8859   11.5969  -14.9716 N   0  0  0  0  0  0  0  0  0  0  0  0
  -22.1906   12.1419  -15.1123 C   0  0  0  0  0  0  0  0  0  0  0  0
  -22.9186   14.3008  -14.1090 N   0  0  0  0  0  0  0  0  0  0  0  0
  -23.5708   14.6396  -13.3932 H   0  0  0  0  0  0  0  0  0  0  0  0
  -24.3836   15.6068  -15.6013 C   0  0  0  0  0  0  0  0  0  0  0  0
  -23.1068   14.8667  -15.3685 C   0  0  0  0  0  0  0  0  0  0  0  0
  -21.9325   15.8382  -15.6174 C   0  0  0  0  0  0  0  0  0  0  0  0
  -21.5653   16.4568  -14.4241 F   0  0  0  0  0  0  0  0  0  0  0  0
  -22.2589   16.8097  -16.5182 F   0  0  0  0  0  0  0  0  0  0  0  0
  -20.8239   15.1722  -16.0881 F   0  0  0  0  0  0  0  0  0  0  0  0
  -17.4171   10.9427  -19.4382 C   0  0  0  0  0  0  0  0  0  0  0  0
  -16.4631    9.8908  -19.3564 N   0  0  0  0  0  0  0  0  0  0  0  0
  -17.4291   11.5736  -20.4935 O   0  0  0  0  0  0  0  0  0  0  0  0
  -15.5227   10.0688  -18.9841 H   0  0  0  0  0  0  0  0  0  0  0  0
  -16.7310    8.9507  -19.6755 H   0  0  0  0  0  0  0  0  0  0  0  0
  -18.1778   13.6185  -18.4566 N   0  0  0  0  0  0  0  0  0  0  0  0
  -17.1826   13.8324  -18.6282 H   0  0  0  0  0  0  0  0  0  0  0  0
  -19.1067   14.6131  -18.9291 C   0  0  0  0  0  0  0  0  0  0  0  0
  -20.2295   14.2691  -19.6174 C   0  0  0  0  0  0  0  0  0  0  0  0
  -21.0692   15.2840  -20.1028 C   0  0  0  0  0  0  0  0  0  0  0  0
  -20.7914   16.6035  -19.9028 C   0  0  0  0  0  0  0  0  0  0  0  0
  -19.6455   16.9218  -19.1986 C   0  0  0  0  0  0  0  0  0  0  0  0
  -18.7971   15.9636  -18.7070 C   0  0  0  0  0  0  0  0  0  0  0  0
  -21.6418   17.6917  -20.4137 C   0  0  0  0  0  0  0  0  0  0  0  0
  -23.0290   17.1195  -20.6486 C   0  0  0  0  0  0  0  0  0  0  0  0
  -21.6975   18.8661  -19.4469 C   0  0  0  0  0  0  0  0  0  0  0  0
  -22.0454   20.0753  -20.3241 C   0  0  0  0  0  0  0  0  0  0  0  0
  -21.5281   19.7199  -21.6470 N   0  0  0  0  0  0  0  0  0  0  0  0
  -21.1134   18.3452  -21.6202 C   0  0  0  0  0  0  0  0  0  0  0  0
  -20.4088   17.8482  -22.5242 O   0  0  0  0  0  0  0  0  0  0  0  0
  -21.4846   20.3816  -22.4454 H   0  0  0  0  0  0  0  0  0  0  0  0
 15 16  1  0  0  0
 16 13  1  0  0  0
 13  7  1  0  0  0
  7  8  1  0  0  0
  8  9  1  0  0  0
  9 10  1  0  0  0
 10 11  1  0  0  0
 11 12  1  0  0  0
 11  1  1  0  0  0
  1  2  2  0  0  0
  2  3  1  0  0  0
  3  4  2  0  0  0
  4 21  1  0  0  0
 21 22  1  0  0  0
 21 23  2  0  0  0
  4  5  1  0  0  0
  5 26  1  0  0  0
 26 28  1  0  0  0
 28 29  2  0  0  0
 29 30  1  0  0  0
 30 31  2  0  0  0
 31 32  1  0  0  0
 32 33  2  0  0  0
 31 34  1  0  0  0
 34 35  1  0  0  0
 34 36  1  0  0  0
 36 37  1  0  0  0
 37 38  1  0  0  0
 38 39  1  0  0  0
 39 40  2  0  0  0
  5  6  2  0  0  0
 16 17  1  0  0  0
 17 18  1  0  0  0
 17 19  1  0  0  0
 17 20  1  0  0  0
 12  7  1  0  0  0
  6  1  1  0  0  0
 33 28  1  0  0  0
 39 34  1  0  0  0
 13 14  1  0  0  0
 22 24  1  0  0  0
 22 25  1  0  0  0
 26 27  1  0  0  0
 38 41  1  0  0  0
M  END
> <minimizedAffinity>
-6.21659

> <CNNscore>
0.2290348262

> <CNNaffinity>
6.3149905205

> <CNN_VS>
1.4463527203

> <CNNaffinity_variance>
0.0832083076

$$$$
[H]c1nc(C(=O)N([H])[H])c(N([H])c2c([H])c([H])c(C3(C([H])([H])[H])C(=O)N([H])C([H])([H])C3([H])[H])c([H])c2[H])nc1N1C([H])([H])C([H])([H])C([H])([H])[C@@]([H])(N([H])[C@@]([H])(C([H])([H])[H])C(F)(F)F)C1([H])[H]


 41 44  0  0  0  0  0  0  0  0999 V2000
  -20.2100   11.1211  -16.1659 C   0  0  0  0  0  0  0  0  0  0  0  0
  -19.7109   10.0155  -16.8140 C   0  0  0  0  0  0  0  0  0  0  0  0
  -18.7597   10.1154  -17.7516 N   0  0  0  0  0  0  0  0  0  0  0  0
  -18.2256   11.3305  -18.1216 C   0  0  0  0  0  0  0  0  0  0  0  0
  -18.7253   12.4263  -17.4763 C   0  0  0  0  0  0  0  0  0  0  0  0
  -19.7003   12.2946  -16.5185 N   0  0  0  0  0  0  0  0  0  0  0  0
  -21.7009   10.6518  -12.7881 C   0  0  0  0  0  0  0  0  0  0  0  0
  -22.8059    9.7310  -13.2435 C   0  0  0  0  0  0  0  0  0  0  0  0
  -23.4751   10.4392  -14.4367 C   0  0  0  0  0  0  0  0  0  0  0  0
  -22.4666   10.2983  -15.5532 C   0  0  0  0  0  0  0  0  0  0  0  0
  -21.2538   10.9740  -15.1591 N   0  0  0  0  0  0  0  0  0  0  0  0
  -21.0800   11.4901  -13.8466 C   0  0  0  0  0  0  0  0  0  0  0  0
  -20.8570   10.0782  -11.8084 N   0  0  0  0  0  0  0  0  0  0  0  0
  -21.2024   10.2771  -10.8630 H   0  0  0  0  0  0  0  0  0  0  0  0
  -18.6804   10.3285  -10.6777 C   0  0  0  0  0  0  0  0  0  0  0  0
  -19.4683   10.0874  -11.9240 C   0  0  0  0  0  0  0  0  0  0  0  0
  -19.0452    8.7214  -12.5069 C   0  0  0  0  0  0  0  0  0  0  0  0
  -20.1116    7.8267  -12.4454 F   0  0  0  0  0  0  0  0  0  0  0  0
  -17.9953    8.1806  -11.8235 F   0  0  0  0  0  0  0  0  0  0  0  0
  -18.6836    8.8329  -13.8301 F   0  0  0  0  0  0  0  0  0  0  0  0
  -17.1864   11.3050  -19.1285 C   0  0  0  0  0  0  0  0  0  0  0  0
  -16.0603   10.4494  -18.9753 N   0  0  0  0  0  0  0  0  0  0  0  0
  -17.2011   11.9929  -20.1475 O   0  0  0  0  0  0  0  0  0  0  0  0
  -15.2218   10.7763  -18.4804 H   0  0  0  0  0  0  0  0  0  0  0  0
  -16.1003    9.4998  -19.3675 H   0  0  0  0  0  0  0  0  0  0  0  0
  -18.2808   13.7214  -17.8382 N   0  0  0  0  0  0  0  0  0  0  0  0
  -17.3405   14.0907  -17.6257 H   0  0  0  0  0  0  0  0  0  0  0  0
  -19.1424   14.6227  -18.5597 C   0  0  0  0  0  0  0  0  0  0  0  0
  -20.0925   14.1645  -19.4199 C   0  0  0  0  0  0  0  0  0  0  0  0
  -20.8651   15.0904  -20.1385 C   0  0  0  0  0  0  0  0  0  0  0  0
  -20.6905   16.4349  -19.9975 C   0  0  0  0  0  0  0  0  0  0  0  0
  -19.7198   16.8702  -19.1152 C   0  0  0  0  0  0  0  0  0  0  0  0
  -18.9424   16.0017  -18.3935 C   0  0  0  0  0  0  0  0  0  0  0  0
  -21.4720   17.4314  -20.7491 C   0  0  0  0  0  0  0  0  0  0  0  0
  -22.8052   16.7968  -21.1051 C   0  0  0  0  0  0  0  0  0  0  0  0
  -21.6776   18.7090  -19.9476 C   0  0  0  0  0  0  0  0  0  0  0  0
  -21.9109   19.7968  -21.0035 C   0  0  0  0  0  0  0  0  0  0  0  0
  -21.2069   19.3034  -22.1889 N   0  0  0  0  0  0  0  0  0  0  0  0
  -20.7848   17.9535  -21.9395 C   0  0  0  0  0  0  0  0  0  0  0  0
  -19.9535   17.3740  -22.6700 O   0  0  0  0  0  0  0  0  0  0  0  0
  -21.0580   19.8680  -23.0470 H   0  0  0  0  0  0  0  0  0  0  0  0
 15 16  1  0  0  0
 16 13  1  0  0  0
 13  7  1  0  0  0
  7  8  1  0  0  0
  8  9  1  0  0  0
  9 10  1  0  0  0
 10 11  1  0  0  0
 11 12  1  0  0  0
 11  1  1  0  0  0
  1  2  2  0  0  0
  2  3  1  0  0  0
  3  4  2  0  0  0
  4 21  1  0  0  0
 21 22  1  0  0  0
 21 23  2  0  0  0
  4  5  1  0  0  0
  5 26  1  0  0  0
 26 28  1  0  0  0
 28 29  2  0  0  0
 29 30  1  0  0  0
 30 31  2  0  0  0
 31 32  1  0  0  0
 32 33  2  0  0  0
 31 34  1  0  0  0
 34 35  1  0  0  0
 34 36  1  0  0  0
 36 37  1  0  0  0
 37 38  1  0  0  0
 38 39  1  0  0  0
 39 40  2  0  0  0
  5  6  2  0  0  0
 16 17  1  0  0  0
 17 18  1  0  0  0
 17 19  1  0  0  0
 17 20  1  0  0  0
 12  7  1  0  0  0
  6  1  1  0  0  0
 33 28  1  0  0  0
 39 34  1  0  0  0
 13 14  1  0  0  0
 22 24  1  0  0  0
 22 25  1  0  0  0
 26 27  1  0  0  0
 38 41  1  0  0  0
M  END
> <minimizedAffinity>
-6.82829

> <CNNscore>
0.2230713964

> <CNNaffinity>
6.4807882309

> <CNN_VS>
1.4456784725

> <CNNaffinity_variance>
0.0940764472

$$$$
[H]c1nc(C(=O)N([H])[H])c(N([H])c2c([H])c([H])c(C3(C([H])([H])[H])C(=O)N([H])C([H])([H])C3([H])[H])c([H])c2[H])nc1N1C([H])([H])C([H])([H])C([H])([H])[C@@]([H])(N([H])[C@@]([H])(C([H])([H])[H])C(F)(F)F)C1([H])[H]


 41 44  0  0  0  0  0  0  0  0999 V2000
  -20.1973   14.0911  -17.1773 C   0  0  0  0  0  0  0  0  0  0  0  0
  -20.8778   13.0353  -16.6170 C   0  0  0  0  0  0  0  0  0  0  0  0
  -20.4476   11.7728  -16.7388 N   0  0  0  0  0  0  0  0  0  0  0  0
  -19.2992   11.4577  -17.4319 C   0  0  0  0  0  0  0  0  0  0  0  0
  -18.6272   12.5093  -17.9880 C   0  0  0  0  0  0  0  0  0  0  0  0
  -19.0908   13.7940  -17.8469 N   0  0  0  0  0  0  0  0  0  0  0  0
  -20.8258   17.3827  -15.5576 C   0  0  0  0  0  0  0  0  0  0  0  0
  -22.2464   17.5171  -16.0480 C   0  0  0  0  0  0  0  0  0  0  0  0
  -22.1922   17.2513  -17.5644 C   0  0  0  0  0  0  0  0  0  0  0  0
  -21.9641   15.7607  -17.6625 C   0  0  0  0  0  0  0  0  0  0  0  0
  -20.7029   15.4507  -17.0333 N   0  0  0  0  0  0  0  0  0  0  0  0
  -19.9692   16.4296  -16.3103 C   0  0  0  0  0  0  0  0  0  0  0  0
  -20.7105   17.4161  -14.1482 N   0  0  0  0  0  0  0  0  0  0  0  0
  -21.5444   17.0195  -13.7012 H   0  0  0  0  0  0  0  0  0  0  0  0
  -20.0061   19.7772  -14.2370 C   0  0  0  0  0  0  0  0  0  0  0  0
  -20.1610   18.5034  -13.4717 C   0  0  0  0  0  0  0  0  0  0  0  0
  -21.0555   18.7826  -12.2442 C   0  0  0  0  0  0  0  0  0  0  0  0
  -21.4026   20.1315  -12.2050 F   0  0  0  0  0  0  0  0  0  0  0  0
  -20.4255   18.4706  -11.0748 F   0  0  0  0  0  0  0  0  0  0  0  0
  -22.2269   18.0628  -12.3053 F   0  0  0  0  0  0  0  0  0  0  0  0
  -18.9258   10.0600  -17.4713 C   0  0  0  0  0  0  0  0  0  0  0  0
  -19.4959    9.1391  -16.5492 N   0  0  0  0  0  0  0  0  0  0  0  0
  -18.1217    9.5869  -18.2722 O   0  0  0  0  0  0  0  0  0  0  0  0
  -19.0509    8.9713  -15.6389 H   0  0  0  0  0  0  0  0  0  0  0  0
  -20.3597    8.6456  -16.8090 H   0  0  0  0  0  0  0  0  0  0  0  0
  -17.4718   12.2725  -18.7722 N   0  0  0  0  0  0  0  0  0  0  0  0
  -16.6171   11.8135  -18.4193 H   0  0  0  0  0  0  0  0  0  0  0  0
  -17.4282   12.6614  -20.1587 C   0  0  0  0  0  0  0  0  0  0  0  0
  -17.3631   11.7373  -21.1559 C   0  0  0  0  0  0  0  0  0  0  0  0
  -17.2655   12.1755  -22.4860 C   0  0  0  0  0  0  0  0  0  0  0  0
  -17.2352   13.5003  -22.8057 C   0  0  0  0  0  0  0  0  0  0  0  0
  -17.3053   14.4150  -21.7720 C   0  0  0  0  0  0  0  0  0  0  0  0
  -17.4010   14.0318  -20.4592 C   0  0  0  0  0  0  0  0  0  0  0  0
  -17.1158   13.9922  -24.1886 C   0  0  0  0  0  0  0  0  0  0  0  0
  -17.9531   13.0849  -25.0733 C   0  0  0  0  0  0  0  0  0  0  0  0
  -17.5699   15.4396  -24.3142 C   0  0  0  0  0  0  0  0  0  0  0  0
  -16.8353   15.9714  -25.5511 C   0  0  0  0  0  0  0  0  0  0  0  0
  -15.6235   15.1529  -25.6286 N   0  0  0  0  0  0  0  0  0  0  0  0
  -15.7297   14.0894  -24.6693 C   0  0  0  0  0  0  0  0  0  0  0  0
  -14.7461   13.3922  -24.3419 O   0  0  0  0  0  0  0  0  0  0  0  0
  -14.8401   15.3440  -26.2820 H   0  0  0  0  0  0  0  0  0  0  0  0
 15 16  1  0  0  0
 16 13  1  0  0  0
 13  7  1  0  0  0
  7  8  1  0  0  0
  8  9  1  0  0  0
  9 10  1  0  0  0
 10 11  1  0  0  0
 11 12  1  0  0  0
 11  1  1  0  0  0
  1  2  2  0  0  0
  2  3  1  0  0  0
  3  4  2  0  0  0
  4 21  1  0  0  0
 21 22  1  0  0  0
 21 23  2  0  0  0
  4  5  1  0  0  0
  5 26  1  0  0  0
 26 28  1  0  0  0
 28 29  2  0  0  0
 29 30  1  0  0  0
 30 31  2  0  0  0
 31 32  1  0  0  0
 32 33  2  0  0  0
 31 34  1  0  0  0
 34 35  1  0  0  0
 34 36  1  0  0  0
 36 37  1  0  0  0
 37 38  1  0  0  0
 38 39  1  0  0  0
 39 40  2  0  0  0
  5  6  2  0  0  0
 16 17  1  0  0  0
 17 18  1  0  0  0
 17 19  1  0  0  0
 17 20  1  0  0  0
 12  7  1  0  0  0
  6  1  1  0  0  0
 33 28  1  0  0  0
 39 34  1  0  0  0
 13 14  1  0  0  0
 22 24  1  0  0  0
 22 25  1  0  0  0
 26 27  1  0  0  0
 38 41  1  0  0  0
M  END
> <minimizedAffinity>
-8.50021

> <CNNscore>
0.1756458282

> <CNNaffinity>
6.7388291359

> <CNN_VS>
1.1836472750

> <CNNaffinity_variance>
0.2043054998

$$$$
[H]c1c(OC([H])([H])[H])nc(N2C([H])([H])C([H])([H])N(C([H])([H])[H])C([H])([H])C2([H])[H])nc1N([H])c1nc2c([H])c([H])c(C(=O)N([H])c3c(Cl)c([H])c([H])c([H])c3C([H])([H])[H])c([H])c2s1


 38 42  0  0  0  0  0  0  0  0999 V2000
  -16.8506   11.6282  -21.2106 C   0  0  0  0  0  0  0  0  0  0  0  0
  -17.7460   12.1923  -20.4343 N   0  0  0  0  0  0  0  0  0  0  0  0
  -18.1888   11.6133  -19.3643 C   0  0  0  0  0  0  0  0  0  0  0  0
  -19.1443   12.1298  -18.4681 C   0  0  0  0  0  0  0  0  0  0  0  0
  -19.5278   11.4189  -17.3745 C   0  0  0  0  0  0  0  0  0  0  0  0
  -19.0389   10.1799  -17.0542 C   0  0  0  0  0  0  0  0  0  0  0  0
  -18.0948    9.6643  -17.9352 C   0  0  0  0  0  0  0  0  0  0  0  0
  -17.6889   10.3761  -19.0601 C   0  0  0  0  0  0  0  0  0  0  0  0
  -16.5994   10.1292  -20.3561 S   0  0  0  0  0  0  0  0  0  0  0  0
  -19.4897    9.4769  -15.8884 C   0  0  0  0  0  0  0  0  0  0  0  0
  -18.6486    8.9129  -15.1032 O   0  0  0  0  0  0  0  0  0  0  0  0
  -20.8390    9.3527  -15.5259 N   0  0  0  0  0  0  0  0  0  0  0  0
  -21.5663    9.8027  -16.1572 H   0  0  0  0  0  0  0  0  0  0  0  0
  -21.3016    8.6689  -14.3869 C   0  0  0  0  0  0  0  0  0  0  0  0
  -21.6658    7.3518  -14.4836 C   0  0  0  0  0  0  0  0  0  0  0  0
  -21.5776    6.6469  -15.7631 C   0  0  0  0  0  0  0  0  0  0  0  0
  -22.1264    6.6639  -13.3604 C   0  0  0  0  0  0  0  0  0  0  0  0
  -22.2252    7.2761  -12.1524 C   0  0  0  0  0  0  0  0  0  0  0  0
  -21.8617    8.6036  -12.0400 C   0  0  0  0  0  0  0  0  0  0  0  0
  -21.4041    9.2828  -13.1607 C   0  0  0  0  0  0  0  0  0  0  0  0
  -20.9556   10.9580  -12.9742 Cl  0  0  0  0  0  0  0  0  0  0  0  0
  -16.2237   12.0528  -22.4088 N   0  0  0  0  0  0  0  0  0  0  0  0
  -15.4448   11.3801  -22.7374 H   0  0  0  0  0  0  0  0  0  0  0  0
  -16.8384   14.3980  -25.1861 C   0  0  0  0  0  0  0  0  0  0  0  0
  -16.5656   13.2096  -24.5256 C   0  0  0  0  0  0  0  0  0  0  0  0
  -16.4927   13.1935  -23.1738 C   0  0  0  0  0  0  0  0  0  0  0  0
  -16.7005   14.3896  -22.5406 N   0  0  0  0  0  0  0  0  0  0  0  0
  -16.9632   15.5321  -23.1830 C   0  0  0  0  0  0  0  0  0  0  0  0
  -17.0312   15.5274  -24.5208 N   0  0  0  0  0  0  0  0  0  0  0  0
  -17.1696   16.7532  -22.4537 N   0  0  0  0  0  0  0  0  0  0  0  0
  -17.5806   17.9280  -23.1456 C   0  0  0  0  0  0  0  0  0  0  0  0
  -18.3521   18.8928  -22.2923 C   0  0  0  0  0  0  0  0  0  0  0  0
  -17.9044   18.9782  -20.9358 N   0  0  0  0  0  0  0  0  0  0  0  0
  -18.9538   18.8060  -19.9623 C   0  0  0  0  0  0  0  0  0  0  0  0
  -16.7171   18.2337  -20.6471 C   0  0  0  0  0  0  0  0  0  0  0  0
  -16.9558   16.7752  -21.0258 C   0  0  0  0  0  0  0  0  0  0  0  0
  -16.1040   15.2294  -27.3259 C   0  0  0  0  0  0  0  0  0  0  0  0
  -16.9059   14.3818  -26.5624 O   0  0  0  0  0  0  0  0  0  0  0  0
 37 38  1  0  0  0
 38 24  1  0  0  0
 24 25  2  0  0  0
 25 26  1  0  0  0
 26 22  1  0  0  0
 22  1  1  0  0  0
  1  2  2  0  0  0
  2  3  1  0  0  0
  3  4  2  0  0  0
  4  5  1  0  0  0
  5  6  2  0  0  0
  6  7  1  0  0  0
  7  8  2  0  0  0
  8  9  1  0  0  0
  6 10  1  0  0  0
 10 11  2  0  0  0
 10 12  1  0  0  0
 12 14  1  0  0  0
 14 15  2  0  0  0
 15 16  1  0  0  0
 15 17  1  0  0  0
 17 18  2  0  0  0
 18 19  1  0  0  0
 19 20  2  0  0  0
 20 21  1  0  0  0
 26 27  2  0  0  0
 27 28  1  0  0  0
 28 29  2  0  0  0
 28 30  1  0  0  0
 30 31  1  0  0  0
 31 32  1  0  0  0
 32 33  1  0  0  0
 33 34  1  0  0  0
 33 35  1  0  0  0
 35 36  1  0  0  0
 29 24  1  0  0  0
 36 30  1  0  0  0
  9  1  1  0  0  0
 20 14  1  0  0  0
  8  3  1  0  0  0
 22 23  1  0  0  0
 12 13  1  0  0  0
M  END
> <minimizedAffinity>
-8.77670

> <CNNscore>
0.6594072580

> <CNNaffinity>
7.4471344948

> <CNN_VS>
4.9106945992

> <CNNaffinity_variance>
0.0318831801

$$$$
[H]c1c(OC([H])([H])[H])nc(N2C([H])([H])C([H])([H])N(C([H])([H])[H])C([H])([H])C2([H])[H])nc1N([H])c1nc2c([H])c([H])c(C(=O)N([H])c3c(Cl)c([H])c([H])c([H])c3C([H])([H])[H])c([H])c2s1


 38 42  0  0  0  0  0  0  0  0999 V2000
  -18.0568   10.1705  -18.1682 C   0  0  0  0  0  0  0  0  0  0  0  0
  -18.6089   11.3401  -18.3908 N   0  0  0  0  0  0  0  0  0  0  0  0
  -18.4091   11.9952  -19.4895 C   0  0  0  0  0  0  0  0  0  0  0  0
  -18.9509   13.2508  -19.8250 C   0  0  0  0  0  0  0  0  0  0  0  0
  -18.6623   13.8367  -21.0175 C   0  0  0  0  0  0  0  0  0  0  0  0
  -17.8476   13.2810  -21.9685 C   0  0  0  0  0  0  0  0  0  0  0  0
  -17.3094   12.0409  -21.6433 C   0  0  0  0  0  0  0  0  0  0  0  0
  -17.5927   11.4244  -20.4281 C   0  0  0  0  0  0  0  0  0  0  0  0
  -17.1630    9.9620  -19.6508 S   0  0  0  0  0  0  0  0  0  0  0  0
  -17.5759   13.9535  -23.2056 C   0  0  0  0  0  0  0  0  0  0  0  0
  -18.2286   15.0074  -23.5300 O   0  0  0  0  0  0  0  0  0  0  0  0
  -16.6095   13.5276  -24.1287 N   0  0  0  0  0  0  0  0  0  0  0  0
  -16.0522   12.6526  -23.8963 H   0  0  0  0  0  0  0  0  0  0  0  0
  -16.3270   14.1730  -25.3462 C   0  0  0  0  0  0  0  0  0  0  0  0
  -16.8035   13.6524  -26.5204 C   0  0  0  0  0  0  0  0  0  0  0  0
  -17.6060   12.4286  -26.5209 C   0  0  0  0  0  0  0  0  0  0  0  0
  -16.5291   14.2842  -27.7339 C   0  0  0  0  0  0  0  0  0  0  0  0
  -15.7889   15.4216  -27.7830 C   0  0  0  0  0  0  0  0  0  0  0  0
  -15.3020   15.9578  -26.6072 C   0  0  0  0  0  0  0  0  0  0  0  0
  -15.5783   15.3251  -25.4031 C   0  0  0  0  0  0  0  0  0  0  0  0
  -14.9439   16.0362  -23.9421 Cl  0  0  0  0  0  0  0  0  0  0  0  0
  -18.1221    9.2786  -17.0685 N   0  0  0  0  0  0  0  0  0  0  0  0
  -17.1597    8.8643  -16.8050 H   0  0  0  0  0  0  0  0  0  0  0  0
  -21.3965    9.1946  -15.3765 C   0  0  0  0  0  0  0  0  0  0  0  0
  -20.3373    9.6721  -16.1335 C   0  0  0  0  0  0  0  0  0  0  0  0
  -19.2442    8.8964  -16.3245 C   0  0  0  0  0  0  0  0  0  0  0  0
  -19.2677    7.6597  -15.7373 N   0  0  0  0  0  0  0  0  0  0  0  0
  -20.2920    7.2049  -15.0086 C   0  0  0  0  0  0  0  0  0  0  0  0
  -21.3645    7.9876  -14.8312 N   0  0  0  0  0  0  0  0  0  0  0  0
  -20.2486    5.8948  -14.4192 N   0  0  0  0  0  0  0  0  0  0  0  0
  -19.4189    5.6572  -13.2865 C   0  0  0  0  0  0  0  0  0  0  0  0
  -19.9030    4.5411  -12.4066 C   0  0  0  0  0  0  0  0  0  0  0  0
  -20.4918    3.4418  -13.1083 N   0  0  0  0  0  0  0  0  0  0  0  0
  -21.7973    3.0704  -12.6225 C   0  0  0  0  0  0  0  0  0  0  0  0
  -20.4049    3.5236  -14.5343 C   0  0  0  0  0  0  0  0  0  0  0  0
  -21.0466    4.8324  -14.9844 C   0  0  0  0  0  0  0  0  0  0  0  0
  -22.4158   11.1504  -14.4045 C   0  0  0  0  0  0  0  0  0  0  0  0
  -22.4947   10.0081  -15.2003 O   0  0  0  0  0  0  0  0  0  0  0  0
 37 38  1  0  0  0
 38 24  1  0  0  0
 24 25  2  0  0  0
 25 26  1  0  0  0
 26 22  1  0  0  0
 22  1  1  0  0  0
  1  2  2  0  0  0
  2  3  1  0  0  0
  3  4  2  0  0  0
  4  5  1  0  0  0
  5  6  2  0  0  0
  6  7  1  0  0  0
  7  8  2  0  0  0
  8  9  1  0  0  0
  6 10  1  0  0  0
 10 11  2  0  0  0
 10 12  1  0  0  0
 12 14  1  0  0  0
 14 15  2  0  0  0
 15 16  1  0  0  0
 15 17  1  0  0  0
 17 18  2  0  0  0
 18 19  1  0  0  0
 19 20  2  0  0  0
 20 21  1  0  0  0
 26 27  2  0  0  0
 27 28  1  0  0  0
 28 29  2  0  0  0
 28 30  1  0  0  0
 30 31  1  0  0  0
 31 32  1  0  0  0
 32 33  1  0  0  0
 33 34  1  0  0  0
 33 35  1  0  0  0
 35 36  1  0  0  0
 29 24  1  0  0  0
 36 30  1  0  0  0
  9  1  1  0  0  0
 20 14  1  0  0  0
  8  3  1  0  0  0
 22 23  1  0  0  0
 12 13  1  0  0  0
M  END
> <minimizedAffinity>
-9.43298

> <CNNscore>
0.5710604191

> <CNNaffinity>
7.1935491562

> <CNN_VS>
4.1079511642

> <CNNaffinity_variance>
0.1355267614

$$$$
[H]c1c(OC([H])([H])[H])nc(N2C([H])([H])C([H])([H])N(C([H])([H])[H])C([H])([H])C2([H])[H])nc1N([H])c1nc2c([H])c([H])c(C(=O)N([H])c3c(Cl)c([H])c([H])c([H])c3C([H])([H])[H])c([H])c2s1


 38 42  0  0  0  0  0  0  0  0999 V2000
  -17.3215   11.6366  -20.0190 C   0  0  0  0  0  0  0  0  0  0  0  0
  -18.2995   12.0496  -19.2473 N   0  0  0  0  0  0  0  0  0  0  0  0
  -18.7698   11.3207  -18.2862 C   0  0  0  0  0  0  0  0  0  0  0  0
  -19.8121   11.6685  -17.4056 C   0  0  0  0  0  0  0  0  0  0  0  0
  -20.2160   10.8095  -16.4323 C   0  0  0  0  0  0  0  0  0  0  0  0
  -19.6674    9.5713  -16.2252 C   0  0  0  0  0  0  0  0  0  0  0  0
  -18.6375    9.2218  -17.0914 C   0  0  0  0  0  0  0  0  0  0  0  0
  -18.2093   10.0869  -18.0940 C   0  0  0  0  0  0  0  0  0  0  0  0
  -17.0261   10.0624  -19.3298 S   0  0  0  0  0  0  0  0  0  0  0  0
  -20.1434    8.7074  -15.1841 C   0  0  0  0  0  0  0  0  0  0  0  0
  -21.2885    8.9081  -14.6452 O   0  0  0  0  0  0  0  0  0  0  0  0
  -19.4204    7.6126  -14.6881 N   0  0  0  0  0  0  0  0  0  0  0  0
  -18.4629    7.4187  -15.1072 H   0  0  0  0  0  0  0  0  0  0  0  0
  -19.8694    6.7530  -13.6691 C   0  0  0  0  0  0  0  0  0  0  0  0
  -19.4823    6.9712  -12.3732 C   0  0  0  0  0  0  0  0  0  0  0  0
  -18.6045    8.0930  -12.0373 C   0  0  0  0  0  0  0  0  0  0  0  0
  -19.9214    6.1247  -11.3547 C   0  0  0  0  0  0  0  0  0  0  0  0
  -20.7367    5.0713  -11.6183 C   0  0  0  0  0  0  0  0  0  0  0  0
  -21.1350    4.8391  -12.9200 C   0  0  0  0  0  0  0  0  0  0  0  0
  -20.6952    5.6845  -13.9291 C   0  0  0  0  0  0  0  0  0  0  0  0
  -21.2223    5.3549  -15.5588 Cl  0  0  0  0  0  0  0  0  0  0  0  0
  -16.6497   12.2387  -21.1121 N   0  0  0  0  0  0  0  0  0  0  0  0
  -15.6295   11.8991  -21.2178 H   0  0  0  0  0  0  0  0  0  0  0  0
  -17.7593   13.9701  -24.1719 C   0  0  0  0  0  0  0  0  0  0  0  0
  -17.2577   12.9672  -23.3562 C   0  0  0  0  0  0  0  0  0  0  0  0
  -17.1421   13.1793  -22.0240 C   0  0  0  0  0  0  0  0  0  0  0  0
  -17.5420   14.4069  -21.5682 N   0  0  0  0  0  0  0  0  0  0  0  0
  -18.0248   15.3699  -22.3597 C   0  0  0  0  0  0  0  0  0  0  0  0
  -18.1314   15.1406  -23.6752 N   0  0  0  0  0  0  0  0  0  0  0  0
  -18.4249   16.6374  -21.8128 N   0  0  0  0  0  0  0  0  0  0  0  0
  -19.8059   16.9812  -21.7642 C   0  0  0  0  0  0  0  0  0  0  0  0
  -20.1502   17.9445  -20.6652 C   0  0  0  0  0  0  0  0  0  0  0  0
  -19.1535   18.9393  -20.4110 N   0  0  0  0  0  0  0  0  0  0  0  0
  -18.7598   19.0316  -19.0272 C   0  0  0  0  0  0  0  0  0  0  0  0
  -18.0550   18.9370  -21.3279 C   0  0  0  0  0  0  0  0  0  0  0  0
  -17.4201   17.5498  -21.3199 C   0  0  0  0  0  0  0  0  0  0  0  0
  -17.5893   12.4584  -26.0414 C   0  0  0  0  0  0  0  0  0  0  0  0
  -17.8645   13.7235  -25.5236 O   0  0  0  0  0  0  0  0  0  0  0  0
 37 38  1  0  0  0
 38 24  1  0  0  0
 24 25  2  0  0  0
 25 26  1  0  0  0
 26 22  1  0  0  0
 22  1  1  0  0  0
  1  2  2  0  0  0
  2  3  1  0  0  0
  3  4  2  0  0  0
  4  5  1  0  0  0
  5  6  2  0  0  0
  6  7  1  0  0  0
  7  8  2  0  0  0
  8  9  1  0  0  0
  6 10  1  0  0  0
 10 11  2  0  0  0
 10 12  1  0  0  0
 12 14  1  0  0  0
 14 15  2  0  0  0
 15 16  1  0  0  0
 15 17  1  0  0  0
 17 18  2  0  0  0
 18 19  1  0  0  0
 19 20  2  0  0  0
 20 21  1  0  0  0
 26 27  2  0  0  0
 27 28  1  0  0  0
 28 29  2  0  0  0
 28 30  1  0  0  0
 30 31  1  0  0  0
 31 32  1  0  0  0
 32 33  1  0  0  0
 33 34  1  0  0  0
 33 35  1  0  0  0
 35 36  1  0  0  0
 29 24  1  0  0  0
 36 30  1  0  0  0
  9  1  1  0  0  0
 20 14  1  0  0  0
  8  3  1  0  0  0
 22 23  1  0  0  0
 12 13  1  0  0  0
M  END
> <minimizedAffinity>
-8.32598

> <CNNscore>
0.4758832753

> <CNNaffinity>
7.0607595444

> <CNN_VS>
3.3600974083

> <CNNaffinity_variance>
0.0282768421

$$$$
[H]c1c(OC([H])([H])[H])nc(N2C([H])([H])C([H])([H])N(C([H])([H])[H])C([H])([H])C2([H])[H])nc1N([H])c1nc2c([H])c([H])c(C(=O)N([H])c3c(Cl)c([H])c([H])c([H])c3C([H])([H])[H])c([H])c2s1


 38 42  0  0  0  0  0  0  0  0999 V2000
  -17.1830   11.8822  -21.1176 C   0  0  0  0  0  0  0  0  0  0  0  0
  -17.1566   10.8565  -20.2992 N   0  0  0  0  0  0  0  0  0  0  0  0
  -17.8842   10.8135  -19.2292 C   0  0  0  0  0  0  0  0  0  0  0  0
  -17.9292    9.7655  -18.2899 C   0  0  0  0  0  0  0  0  0  0  0  0
  -18.7399    9.8418  -17.2011 C   0  0  0  0  0  0  0  0  0  0  0  0
  -19.5579   10.9058  -16.9262 C   0  0  0  0  0  0  0  0  0  0  0  0
  -19.5182   11.9441  -17.8501 C   0  0  0  0  0  0  0  0  0  0  0  0
  -18.6954   11.8852  -18.9711 C   0  0  0  0  0  0  0  0  0  0  0  0
  -18.3482   12.8955  -20.3077 S   0  0  0  0  0  0  0  0  0  0  0  0
  -20.3855   10.9295  -15.7552 C   0  0  0  0  0  0  0  0  0  0  0  0
  -21.4362   10.1992  -15.6864 O   0  0  0  0  0  0  0  0  0  0  0  0
  -20.1228   11.7259  -14.6308 N   0  0  0  0  0  0  0  0  0  0  0  0
  -19.2625   12.3499  -14.6542 H   0  0  0  0  0  0  0  0  0  0  0  0
  -20.9206   11.7629  -13.4728 C   0  0  0  0  0  0  0  0  0  0  0  0
  -20.5844   10.9960  -12.3885 C   0  0  0  0  0  0  0  0  0  0  0  0
  -19.4002   10.1368  -12.4226 C   0  0  0  0  0  0  0  0  0  0  0  0
  -21.3688   11.0248  -11.2349 C   0  0  0  0  0  0  0  0  0  0  0  0
  -22.4764   11.8065  -11.1568 C   0  0  0  0  0  0  0  0  0  0  0  0
  -22.8275   12.5848  -12.2422 C   0  0  0  0  0  0  0  0  0  0  0  0
  -22.0434   12.5523  -13.3871 C   0  0  0  0  0  0  0  0  0  0  0  0
  -22.5229   13.5508  -14.7344 Cl  0  0  0  0  0  0  0  0  0  0  0  0
  -16.4945   12.1566  -22.3258 N   0  0  0  0  0  0  0  0  0  0  0  0
  -16.2514   11.2639  -22.8837 H   0  0  0  0  0  0  0  0  0  0  0  0
  -14.9578   14.8438  -24.3280 C   0  0  0  0  0  0  0  0  0  0  0  0
  -15.2679   13.5650  -23.8903 C   0  0  0  0  0  0  0  0  0  0  0  0
  -16.1150   13.3986  -22.8473 C   0  0  0  0  0  0  0  0  0  0  0  0
  -16.6176   14.5417  -22.2856 N   0  0  0  0  0  0  0  0  0  0  0  0
  -16.3148   15.7719  -22.7121 C   0  0  0  0  0  0  0  0  0  0  0  0
  -15.4748   15.9156  -23.7456 N   0  0  0  0  0  0  0  0  0  0  0  0
  -16.8789   16.9294  -22.0736 N   0  0  0  0  0  0  0  0  0  0  0  0
  -17.6301   17.8638  -22.8419 C   0  0  0  0  0  0  0  0  0  0  0  0
  -18.6543   18.6174  -22.0434 C   0  0  0  0  0  0  0  0  0  0  0  0
  -18.2476   18.9456  -20.7112 N   0  0  0  0  0  0  0  0  0  0  0  0
  -19.1909   18.5454  -19.6971 C   0  0  0  0  0  0  0  0  0  0  0  0
  -16.8891   18.6211  -20.4008 C   0  0  0  0  0  0  0  0  0  0  0  0
  -16.6755   17.1326  -20.6585 C   0  0  0  0  0  0  0  0  0  0  0  0
  -14.4709   15.6866  -26.5329 C   0  0  0  0  0  0  0  0  0  0  0  0
  -14.0926   14.9800  -25.3919 O   0  0  0  0  0  0  0  0  0  0  0  0
 37 38  1  0  0  0
 38 24  1  0  0  0
 24 25  2  0  0  0
 25 26  1  0  0  0
 26 22  1  0  0  0
 22  1  1  0  0  0
  1  2  2  0  0  0
  2  3  1  0  0  0
  3  4  2  0  0  0
  4  5  1  0  0  0
  5  6  2  0  0  0
  6  7  1  0  0  0
  7  8  2  0  0  0
  8  9  1  0  0  0
  6 10  1  0  0  0
 10 11  2  0  0  0
 10 12  1  0  0  0
 12 14  1  0  0  0
 14 15  2  0  0  0
 15 16  1  0  0  0
 15 17  1  0  0  0
 17 18  2  0  0  0
 18 19  1  0  0  0
 19 20  2  0  0  0
 20 21  1  0  0  0
 26 27  2  0  0  0
 27 28  1  0  0  0
 28 29  2  0  0  0
 28 30  1  0  0  0
 30 31  1  0  0  0
 31 32  1  0  0  0
 32 33  1  0  0  0
 33 34  1  0  0  0
 33 35  1  0  0  0
 35 36  1  0  0  0
 29 24  1  0  0  0
 36 30  1  0  0  0
  9  1  1  0  0  0
 20 14  1  0  0  0
  8  3  1  0  0  0
 22 23  1  0  0  0
 12 13  1  0  0  0
M  END
> <minimizedAffinity>
-8.70747

> <CNNscore>
0.4721335769

> <CNNaffinity>
7.3725309372

> <CNN_VS>
3.4808194637

> <CNNaffinity_variance>
0.1102130041

$$$$
[H]c1c(OC([H])([H])[H])nc(N2C([H])([H])C([H])([H])N(C([H])([H])[H])C([H])([H])C2([H])[H])nc1N([H])c1nc2c([H])c([H])c(C(=O)N([H])c3c(Cl)c([H])c([H])c([H])c3C([H])([H])[H])c([H])c2s1


 38 42  0  0  0  0  0  0  0  0999 V2000
  -17.5250   11.6225  -19.7395 C   0  0  0  0  0  0  0  0  0  0  0  0
  -18.4900   11.9997  -18.9340 N   0  0  0  0  0  0  0  0  0  0  0  0
  -18.9374   11.2319  -17.9924 C   0  0  0  0  0  0  0  0  0  0  0  0
  -19.9642   11.5395  -17.0793 C   0  0  0  0  0  0  0  0  0  0  0  0
  -20.3442   10.6416  -16.1317 C   0  0  0  0  0  0  0  0  0  0  0  0
  -19.7848    9.4000  -15.9825 C   0  0  0  0  0  0  0  0  0  0  0  0
  -18.7700    9.0902  -16.8811 C   0  0  0  0  0  0  0  0  0  0  0  0
  -18.3663    9.9953  -17.8581 C   0  0  0  0  0  0  0  0  0  0  0  0
  -17.2073   10.0252  -19.1165 S   0  0  0  0  0  0  0  0  0  0  0  0
  -20.2355    8.4942  -14.9661 C   0  0  0  0  0  0  0  0  0  0  0  0
  -21.3829    8.6509  -14.4176 O   0  0  0  0  0  0  0  0  0  0  0  0
  -19.4842    7.4030  -14.5052 N   0  0  0  0  0  0  0  0  0  0  0  0
  -18.5239    7.2450  -14.9331 H   0  0  0  0  0  0  0  0  0  0  0  0
  -19.9081    6.5029  -13.5108 C   0  0  0  0  0  0  0  0  0  0  0  0
  -19.4983    6.6759  -12.2151 C   0  0  0  0  0  0  0  0  0  0  0  0
  -18.6222    7.7911  -11.8539 C   0  0  0  0  0  0  0  0  0  0  0  0
  -19.9125    5.7890  -11.2208 C   0  0  0  0  0  0  0  0  0  0  0  0
  -20.7253    4.7398  -11.5083 C   0  0  0  0  0  0  0  0  0  0  0  0
  -21.1462    4.5530  -12.8102 C   0  0  0  0  0  0  0  0  0  0  0  0
  -20.7312    5.4386  -13.7951 C   0  0  0  0  0  0  0  0  0  0  0  0
  -21.2864    5.1656  -15.4259 Cl  0  0  0  0  0  0  0  0  0  0  0  0
  -16.8780   12.2699  -20.8217 N   0  0  0  0  0  0  0  0  0  0  0  0
  -15.9008   11.8607  -21.0334 H   0  0  0  0  0  0  0  0  0  0  0  0
  -18.6451   15.2625  -22.0519 C   0  0  0  0  0  0  0  0  0  0  0  0
  -18.2478   14.2507  -21.1908 C   0  0  0  0  0  0  0  0  0  0  0  0
  -17.3465   13.3299  -21.6064 C   0  0  0  0  0  0  0  0  0  0  0  0
  -16.8804   13.4715  -22.8861 N   0  0  0  0  0  0  0  0  0  0  0  0
  -17.2673   14.4492  -23.7115 C   0  0  0  0  0  0  0  0  0  0  0  0
  -18.1600   15.3507  -23.2816 N   0  0  0  0  0  0  0  0  0  0  0  0
  -16.7372   14.5368  -25.0445 N   0  0  0  0  0  0  0  0  0  0  0  0
  -16.8257   13.4131  -25.9148 C   0  0  0  0  0  0  0  0  0  0  0  0
  -16.8511   13.7775  -27.3711 C   0  0  0  0  0  0  0  0  0  0  0  0
  -16.0256   14.8929  -27.7207 N   0  0  0  0  0  0  0  0  0  0  0  0
  -16.7137   15.9186  -28.4642 C   0  0  0  0  0  0  0  0  0  0  0  0
  -15.2118   15.3949  -26.6561 C   0  0  0  0  0  0  0  0  0  0  0  0
  -16.1185   15.7645  -25.4861 C   0  0  0  0  0  0  0  0  0  0  0  0
  -19.1782   17.4926  -21.3093 C   0  0  0  0  0  0  0  0  0  0  0  0
  -19.5640   16.1844  -21.5993 O   0  0  0  0  0  0  0  0  0  0  0  0
 37 38  1  0  0  0
 38 24  1  0  0  0
 24 25  2  0  0  0
 25 26  1  0  0  0
 26 22  1  0  0  0
 22  1  1  0  0  0
  1  2  2  0  0  0
  2  3  1  0  0  0
  3  4  2  0  0  0
  4  5  1  0  0  0
  5  6  2  0  0  0
  6  7  1  0  0  0
  7  8  2  0  0  0
  8  9  1  0  0  0
  6 10  1  0  0  0
 10 11  2  0  0  0
 10 12  1  0  0  0
 12 14  1  0  0  0
 14 15  2  0  0  0
 15 16  1  0  0  0
 15 17  1  0  0  0
 17 18  2  0  0  0
 18 19  1  0  0  0
 19 20  2  0  0  0
 20 21  1  0  0  0
 26 27  2  0  0  0
 27 28  1  0  0  0
 28 29  2  0  0  0
 28 30  1  0  0  0
 30 31  1  0  0  0
 31 32  1  0  0  0
 32 33  1  0  0  0
 33 34  1  0  0  0
 33 35  1  0  0  0
 35 36  1  0  0  0
 29 24  1  0  0  0
 36 30  1  0  0  0
  9  1  1  0  0  0
 20 14  1  0  0  0
  8  3  1  0  0  0
 22 23  1  0  0  0
 12 13  1  0  0  0
M  END
> <minimizedAffinity>
-8.04533

> <CNNscore>
0.3935918212

> <CNNaffinity>
7.1789155006

> <CNN_VS>
2.8255624771

> <CNNaffinity_variance>
0.3139764667

$$$$
[H]c1c(OC([H])([H])[H])nc(N2C([H])([H])C([H])([H])N(C([H])([H])[H])C([H])([H])C2([H])[H])nc1N([H])c1nc2c([H])c([H])c(C(=O)N([H])c3c(Cl)c([H])c([H])c([H])c3C([H])([H])[H])c([H])c2s1


 38 42  0  0  0  0  0  0  0  0999 V2000
  -16.9783   12.0437  -21.5601 C   0  0  0  0  0  0  0  0  0  0  0  0
  -17.8772   12.4485  -20.6937 N   0  0  0  0  0  0  0  0  0  0  0  0
  -18.1790   11.7546  -19.6432 C   0  0  0  0  0  0  0  0  0  0  0  0
  -19.1240   12.0975  -18.6573 C   0  0  0  0  0  0  0  0  0  0  0  0
  -19.3506   11.2783  -17.5961 C   0  0  0  0  0  0  0  0  0  0  0  0
  -18.7050   10.0869  -17.3946 C   0  0  0  0  0  0  0  0  0  0  0  0
  -17.7703    9.7425  -18.3647 C   0  0  0  0  0  0  0  0  0  0  0  0
  -17.5237   10.5673  -19.4582 C   0  0  0  0  0  0  0  0  0  0  0  0
  -16.5031   10.5327  -20.8311 S   0  0  0  0  0  0  0  0  0  0  0  0
  -18.9942    9.2629  -16.2571 C   0  0  0  0  0  0  0  0  0  0  0  0
  -18.2349    8.2745  -15.9599 O   0  0  0  0  0  0  0  0  0  0  0  0
  -20.0927    9.4636  -15.4081 N   0  0  0  0  0  0  0  0  0  0  0  0
  -20.7487   10.2710  -15.6271 H   0  0  0  0  0  0  0  0  0  0  0  0
  -20.3933    8.6683  -14.2875 C   0  0  0  0  0  0  0  0  0  0  0  0
  -20.0700    9.1099  -13.0316 C   0  0  0  0  0  0  0  0  0  0  0  0
  -19.4137   10.4043  -12.8435 C   0  0  0  0  0  0  0  0  0  0  0  0
  -20.3632    8.3291  -11.9130 C   0  0  0  0  0  0  0  0  0  0  0  0
  -20.9714    7.1214  -12.0382 C   0  0  0  0  0  0  0  0  0  0  0  0
  -21.3031    6.6635  -13.2981 C   0  0  0  0  0  0  0  0  0  0  0  0
  -21.0091    7.4445  -14.4072 C   0  0  0  0  0  0  0  0  0  0  0  0
  -21.4453    6.8282  -15.9795 Cl  0  0  0  0  0  0  0  0  0  0  0  0
  -16.4853   12.6143  -22.7602 N   0  0  0  0  0  0  0  0  0  0  0  0
  -15.7408   11.9988  -23.2440 H   0  0  0  0  0  0  0  0  0  0  0  0
  -16.7526   15.5129  -25.0226 C   0  0  0  0  0  0  0  0  0  0  0  0
  -16.3282   14.2922  -24.5198 C   0  0  0  0  0  0  0  0  0  0  0  0
  -16.8423   13.8295  -23.3559 C   0  0  0  0  0  0  0  0  0  0  0  0
  -17.7719   14.6268  -22.7437 N   0  0  0  0  0  0  0  0  0  0  0  0
  -18.1770   15.8028  -23.2334 C   0  0  0  0  0  0  0  0  0  0  0  0
  -17.6565   16.2433  -24.3864 N   0  0  0  0  0  0  0  0  0  0  0  0
  -19.1570   16.5896  -22.5361 N   0  0  0  0  0  0  0  0  0  0  0  0
  -19.8092   17.6624  -23.2081 C   0  0  0  0  0  0  0  0  0  0  0  0
  -21.1750   17.9727  -22.6670 C   0  0  0  0  0  0  0  0  0  0  0  0
  -21.2999   17.8324  -21.2484 N   0  0  0  0  0  0  0  0  0  0  0  0
  -22.4053   17.0027  -20.8385 C   0  0  0  0  0  0  0  0  0  0  0  0
  -20.0763   17.5493  -20.5628 C   0  0  0  0  0  0  0  0  0  0  0  0
  -19.4681   16.2838  -21.1596 C   0  0  0  0  0  0  0  0  0  0  0  0
  -14.9507   15.5253  -26.6232 C   0  0  0  0  0  0  0  0  0  0  0  0
  -16.2105   15.9566  -26.2093 O   0  0  0  0  0  0  0  0  0  0  0  0
 37 38  1  0  0  0
 38 24  1  0  0  0
 24 25  2  0  0  0
 25 26  1  0  0  0
 26 22  1  0  0  0
 22  1  1  0  0  0
  1  2  2  0  0  0
  2  3  1  0  0  0
  3  4  2  0  0  0
  4  5  1  0  0  0
  5  6  2  0  0  0
  6  7  1  0  0  0
  7  8  2  0  0  0
  8  9  1  0  0  0
  6 10  1  0  0  0
 10 11  2  0  0  0
 10 12  1  0  0  0
 12 14  1  0  0  0
 14 15  2  0  0  0
 15 16  1  0  0  0
 15 17  1  0  0  0
 17 18  2  0  0  0
 18 19  1  0  0  0
 19 20  2  0  0  0
 20 21  1  0  0  0
 26 27  2  0  0  0
 27 28  1  0  0  0
 28 29  2  0  0  0
 28 30  1  0  0  0
 30 31  1  0  0  0
 31 32  1  0  0  0
 32 33  1  0  0  0
 33 34  1  0  0  0
 33 35  1  0  0  0
 35 36  1  0  0  0
 29 24  1  0  0  0
 36 30  1  0  0  0
  9  1  1  0  0  0
 20 14  1  0  0  0
  8  3  1  0  0  0
 22 23  1  0  0  0
 12 13  1  0  0  0
M  END
> <minimizedAffinity>
-8.59968

> <CNNscore>
0.3707091808

> <CNNaffinity>
7.2107467651

> <CNN_VS>
2.6730899811

> <CNNaffinity_variance>
0.0406834744

$$$$
[H]c1c(OC([H])([H])[H])nc(N2C([H])([H])C([H])([H])N(C([H])([H])[H])C([H])([H])C2([H])[H])nc1N([H])c1nc2c([H])c([H])c(C(=O)N([H])c3c(Cl)c([H])c([H])c([H])c3C([H])([H])[H])c([H])c2s1


 38 42  0  0  0  0  0  0  0  0999 V2000
  -18.9779   10.4433  -17.0097 C   0  0  0  0  0  0  0  0  0  0  0  0
  -18.1217   10.0335  -17.9161 N   0  0  0  0  0  0  0  0  0  0  0  0
  -17.8804   10.7152  -18.9899 C   0  0  0  0  0  0  0  0  0  0  0  0
  -16.9852   10.3656  -20.0192 C   0  0  0  0  0  0  0  0  0  0  0  0
  -16.8210   11.1717  -21.1017 C   0  0  0  0  0  0  0  0  0  0  0  0
  -17.4864   12.3550  -21.2855 C   0  0  0  0  0  0  0  0  0  0  0  0
  -18.3718   12.7061  -20.2725 C   0  0  0  0  0  0  0  0  0  0  0  0
  -18.5541   11.8949  -19.1564 C   0  0  0  0  0  0  0  0  0  0  0  0
  -19.5027   11.9405  -17.7331 S   0  0  0  0  0  0  0  0  0  0  0  0
  -17.2742   13.1581  -22.4546 C   0  0  0  0  0  0  0  0  0  0  0  0
  -17.9565   14.2263  -22.6424 O   0  0  0  0  0  0  0  0  0  0  0  0
  -16.3374   12.8505  -23.4523 N   0  0  0  0  0  0  0  0  0  0  0  0
  -15.7570   11.9679  -23.3335 H   0  0  0  0  0  0  0  0  0  0  0  0
  -16.1133   13.6249  -24.6051 C   0  0  0  0  0  0  0  0  0  0  0  0
  -15.1007   14.5475  -24.6203 C   0  0  0  0  0  0  0  0  0  0  0  0
  -14.2473   14.7359  -23.4465 C   0  0  0  0  0  0  0  0  0  0  0  0
  -14.8697   15.3212  -25.7583 C   0  0  0  0  0  0  0  0  0  0  0  0
  -15.6355   15.1817  -26.8710 C   0  0  0  0  0  0  0  0  0  0  0  0
  -16.6598   14.2555  -26.8699 C   0  0  0  0  0  0  0  0  0  0  0  0
  -16.8849   13.4886  -25.7352 C   0  0  0  0  0  0  0  0  0  0  0  0
  -18.1889   12.3309  -25.7769 Cl  0  0  0  0  0  0  0  0  0  0  0  0
  -19.4030    9.8858  -15.7779 N   0  0  0  0  0  0  0  0  0  0  0  0
  -18.6095    9.8253  -15.0472 H   0  0  0  0  0  0  0  0  0  0  0  0
  -22.4022    7.8136  -15.2278 C   0  0  0  0  0  0  0  0  0  0  0  0
  -21.1172    8.1620  -15.6155 C   0  0  0  0  0  0  0  0  0  0  0  0
  -20.6776    9.4282  -15.4245 C   0  0  0  0  0  0  0  0  0  0  0  0
  -21.5629   10.2968  -14.8444 N   0  0  0  0  0  0  0  0  0  0  0  0
  -22.8006    9.9549  -14.4727 C   0  0  0  0  0  0  0  0  0  0  0  0
  -23.2169    8.6971  -14.6701 N   0  0  0  0  0  0  0  0  0  0  0  0
  -23.6786   10.9199  -13.8697 N   0  0  0  0  0  0  0  0  0  0  0  0
  -24.7541   10.4790  -13.0471 C   0  0  0  0  0  0  0  0  0  0  0  0
  -25.1723   11.4819  -12.0109 C   0  0  0  0  0  0  0  0  0  0  0  0
  -25.1103   12.8450  -12.4419 N   0  0  0  0  0  0  0  0  0  0  0  0
  -24.3700   13.7056  -11.5532 C   0  0  0  0  0  0  0  0  0  0  0  0
  -24.7885   13.0238  -13.8246 C   0  0  0  0  0  0  0  0  0  0  0  0
  -23.4607   12.3275  -14.1069 C   0  0  0  0  0  0  0  0  0  0  0  0
  -22.1896    5.7071  -16.3795 C   0  0  0  0  0  0  0  0  0  0  0  0
  -22.8201    6.5170  -15.4357 O   0  0  0  0  0  0  0  0  0  0  0  0
 37 38  1  0  0  0
 38 24  1  0  0  0
 24 25  2  0  0  0
 25 26  1  0  0  0
 26 22  1  0  0  0
 22  1  1  0  0  0
  1  2  2  0  0  0
  2  3  1  0  0  0
  3  4  2  0  0  0
  4  5  1  0  0  0
  5  6  2  0  0  0
  6  7  1  0  0  0
  7  8  2  0  0  0
  8  9  1  0  0  0
  6 10  1  0  0  0
 10 11  2  0  0  0
 10 12  1  0  0  0
 12 14  1  0  0  0
 14 15  2  0  0  0
 15 16  1  0  0  0
 15 17  1  0  0  0
 17 18  2  0  0  0
 18 19  1  0  0  0
 19 20  2  0  0  0
 20 21  1  0  0  0
 26 27  2  0  0  0
 27 28  1  0  0  0
 28 29  2  0  0  0
 28 30  1  0  0  0
 30 31  1  0  0  0
 31 32  1  0  0  0
 32 33  1  0  0  0
 33 34  1  0  0  0
 33 35  1  0  0  0
 35 36  1  0  0  0
 29 24  1  0  0  0
 36 30  1  0  0  0
  9  1  1  0  0  0
 20 14  1  0  0  0
  8  3  1  0  0  0
 22 23  1  0  0  0
 12 13  1  0  0  0
M  END
> <minimizedAffinity>
-8.94523

> <CNNscore>
0.3269780576

> <CNNaffinity>
6.8969469070

> <CNN_VS>
2.2551503181

> <CNNaffinity_variance>
0.1419527531

$$$$
[H]c1c(OC([H])([H])[H])nc(N2C([H])([H])C([H])([H])N(C([H])([H])[H])C([H])([H])C2([H])[H])nc1N([H])c1nc2c([H])c([H])c(C(=O)N([H])c3c(Cl)c([H])c([H])c([H])c3C([H])([H])[H])c([H])c2s1


 38 42  0  0  0  0  0  0  0  0999 V2000
  -19.1270   11.0633  -17.3661 C   0  0  0  0  0  0  0  0  0  0  0  0
  -18.2089   10.4340  -18.0615 N   0  0  0  0  0  0  0  0  0  0  0  0
  -17.7523   10.9033  -19.1784 C   0  0  0  0  0  0  0  0  0  0  0  0
  -16.7728   10.3092  -19.9972 C   0  0  0  0  0  0  0  0  0  0  0  0
  -16.3771   10.9060  -21.1530 C   0  0  0  0  0  0  0  0  0  0  0  0
  -16.8760   12.0964  -21.6120 C   0  0  0  0  0  0  0  0  0  0  0  0
  -17.8436   12.6884  -20.8079 C   0  0  0  0  0  0  0  0  0  0  0  0
  -18.2621   12.0938  -19.6212 C   0  0  0  0  0  0  0  0  0  0  0  0
  -19.3806   12.4597  -18.3791 S   0  0  0  0  0  0  0  0  0  0  0  0
  -16.4220   12.6716  -22.8448 C   0  0  0  0  0  0  0  0  0  0  0  0
  -15.3510   12.2466  -23.4053 O   0  0  0  0  0  0  0  0  0  0  0  0
  -17.0884   13.7094  -23.5130 N   0  0  0  0  0  0  0  0  0  0  0  0
  -17.9779   14.0920  -23.0742 H   0  0  0  0  0  0  0  0  0  0  0  0
  -16.6608   14.2863  -24.7226 C   0  0  0  0  0  0  0  0  0  0  0  0
  -15.9202   15.4387  -24.7039 C   0  0  0  0  0  0  0  0  0  0  0  0
  -15.5680   16.0770  -23.4350 C   0  0  0  0  0  0  0  0  0  0  0  0
  -15.4910   16.0197  -25.8977 C   0  0  0  0  0  0  0  0  0  0  0  0
  -15.7934   15.4636  -27.0991 C   0  0  0  0  0  0  0  0  0  0  0  0
  -16.5393   14.3019  -27.1332 C   0  0  0  0  0  0  0  0  0  0  0  0
  -16.9633   13.7283  -25.9425 C   0  0  0  0  0  0  0  0  0  0  0  0
  -17.9030   12.2615  -26.0313 Cl  0  0  0  0  0  0  0  0  0  0  0  0
  -19.7717   10.7587  -16.1412 N   0  0  0  0  0  0  0  0  0  0  0  0
  -20.3196   11.5962  -15.7344 H   0  0  0  0  0  0  0  0  0  0  0  0
  -20.1387    7.2222  -15.1665 C   0  0  0  0  0  0  0  0  0  0  0  0
  -20.1765    8.3635  -15.9533 C   0  0  0  0  0  0  0  0  0  0  0  0
  -19.7743    9.5489  -15.4375 C   0  0  0  0  0  0  0  0  0  0  0  0
  -19.3470    9.5309  -14.1368 N   0  0  0  0  0  0  0  0  0  0  0  0
  -19.3129    8.4273  -13.3833 C   0  0  0  0  0  0  0  0  0  0  0  0
  -19.7149    7.2640  -13.9119 N   0  0  0  0  0  0  0  0  0  0  0  0
  -18.8531    8.4817  -12.0227 N   0  0  0  0  0  0  0  0  0  0  0  0
  -18.2478    7.3342  -11.4355 C   0  0  0  0  0  0  0  0  0  0  0  0
  -17.2787    7.6587  -10.3356 C   0  0  0  0  0  0  0  0  0  0  0  0
  -17.6573    8.7690   -9.5162 N   0  0  0  0  0  0  0  0  0  0  0  0
  -16.6291    9.7700   -9.3773 C   0  0  0  0  0  0  0  0  0  0  0  0
  -18.9551    9.3046   -9.7928 C   0  0  0  0  0  0  0  0  0  0  0  0
  -19.0121    9.7006  -11.2650 C   0  0  0  0  0  0  0  0  0  0  0  0
  -21.9074    5.7881  -15.9567 C   0  0  0  0  0  0  0  0  0  0  0  0
  -20.5548    6.0309  -15.7203 O   0  0  0  0  0  0  0  0  0  0  0  0
 37 38  1  0  0  0
 38 24  1  0  0  0
 24 25  2  0  0  0
 25 26  1  0  0  0
 26 22  1  0  0  0
 22  1  1  0  0  0
  1  2  2  0  0  0
  2  3  1  0  0  0
  3  4  2  0  0  0
  4  5  1  0  0  0
  5  6  2  0  0  0
  6  7  1  0  0  0
  7  8  2  0  0  0
  8  9  1  0  0  0
  6 10  1  0  0  0
 10 11  2  0  0  0
 10 12  1  0  0  0
 12 14  1  0  0  0
 14 15  2  0  0  0
 15 16  1  0  0  0
 15 17  1  0  0  0
 17 18  2  0  0  0
 18 19  1  0  0  0
 19 20  2  0  0  0
 20 21  1  0  0  0
 26 27  2  0  0  0
 27 28  1  0  0  0
 28 29  2  0  0  0
 28 30  1  0  0  0
 30 31  1  0  0  0
 31 32  1  0  0  0
 32 33  1  0  0  0
 33 34  1  0  0  0
 33 35  1  0  0  0
 35 36  1  0  0  0
 29 24  1  0  0  0
 36 30  1  0  0  0
  9  1  1  0  0  0
 20 14  1  0  0  0
  8  3  1  0  0  0
 22 23  1  0  0  0
 12 13  1  0  0  0
M  END
> <minimizedAffinity>
-10.78633

> <CNNscore>
0.3262739480

> <CNNaffinity>
7.0182852745

> <CNN_VS>
2.2898836136

> <CNNaffinity_variance>
0.2620480061

$$$$
[H]c1c(OC([H])([H])[H])nc(N2C([H])([H])C([H])([H])N(C([H])([H])[H])C([H])([H])C2([H])[H])nc1N([H])c1nc2c([H])c([H])c(C(=O)N([H])c3c(Cl)c([H])c([H])c([H])c3C([H])([H])[H])c([H])c2s1


 38 42  0  0  0  0  0  0  0  0999 V2000
  -17.1333   12.3036  -21.5639 C   0  0  0  0  0  0  0  0  0  0  0  0
  -17.0328   11.2821  -20.7460 N   0  0  0  0  0  0  0  0  0  0  0  0
  -17.7374   11.1981  -19.6632 C   0  0  0  0  0  0  0  0  0  0  0  0
  -17.7048   10.1502  -18.7231 C   0  0  0  0  0  0  0  0  0  0  0  0
  -18.4989   10.1806  -17.6199 C   0  0  0  0  0  0  0  0  0  0  0  0
  -19.3722   11.1957  -17.3305 C   0  0  0  0  0  0  0  0  0  0  0  0
  -19.4092   12.2336  -18.2550 C   0  0  0  0  0  0  0  0  0  0  0  0
  -18.6046   12.2213  -19.3905 C   0  0  0  0  0  0  0  0  0  0  0  0
  -18.3405   13.2485  -20.7332 S   0  0  0  0  0  0  0  0  0  0  0  0
  -20.1787   11.1727  -16.1449 C   0  0  0  0  0  0  0  0  0  0  0  0
  -20.5352   12.2658  -15.5794 O   0  0  0  0  0  0  0  0  0  0  0  0
  -20.6261    9.9945  -15.5290 N   0  0  0  0  0  0  0  0  0  0  0  0
  -20.3446    9.0675  -15.9667 H   0  0  0  0  0  0  0  0  0  0  0  0
  -21.4182    9.9502  -14.3674 C   0  0  0  0  0  0  0  0  0  0  0  0
  -22.7666    9.7307  -14.4697 C   0  0  0  0  0  0  0  0  0  0  0  0
  -23.3929    9.5409  -15.7786 C   0  0  0  0  0  0  0  0  0  0  0  0
  -23.5618    9.6852  -13.3241 C   0  0  0  0  0  0  0  0  0  0  0  0
  -23.0254    9.8557  -12.0883 C   0  0  0  0  0  0  0  0  0  0  0  0
  -21.6676   10.0777  -11.9700 C   0  0  0  0  0  0  0  0  0  0  0  0
  -20.8814   10.1219  -13.1130 C   0  0  0  0  0  0  0  0  0  0  0  0
  -19.1713   10.4047  -12.9181 Cl  0  0  0  0  0  0  0  0  0  0  0  0
  -16.4836   12.6161  -22.7842 N   0  0  0  0  0  0  0  0  0  0  0  0
  -15.9125   11.7892  -23.1807 H   0  0  0  0  0  0  0  0  0  0  0  0
  -15.8847   15.2893  -25.2514 C   0  0  0  0  0  0  0  0  0  0  0  0
  -15.7938   14.0555  -24.6250 C   0  0  0  0  0  0  0  0  0  0  0  0
  -16.5020   13.8216  -23.4951 C   0  0  0  0  0  0  0  0  0  0  0  0
  -17.2793   14.8536  -23.0416 N   0  0  0  0  0  0  0  0  0  0  0  0
  -17.3628   16.0409  -23.6500 C   0  0  0  0  0  0  0  0  0  0  0  0
  -16.6544   16.2528  -24.7670 N   0  0  0  0  0  0  0  0  0  0  0  0
  -18.1990   17.0813  -23.1169 N   0  0  0  0  0  0  0  0  0  0  0  0
  -19.1741   16.7663  -22.1280 C   0  0  0  0  0  0  0  0  0  0  0  0
  -19.5100   17.9164  -21.2232 C   0  0  0  0  0  0  0  0  0  0  0  0
  -19.5263   19.1949  -21.8657 N   0  0  0  0  0  0  0  0  0  0  0  0
  -18.7214   20.1915  -21.2043 C   0  0  0  0  0  0  0  0  0  0  0  0
  -19.3510   19.1560  -23.2854 C   0  0  0  0  0  0  0  0  0  0  0  0
  -18.0417   18.4356  -23.5923 C   0  0  0  0  0  0  0  0  0  0  0  0
  -15.7575   15.4324  -27.6540 C   0  0  0  0  0  0  0  0  0  0  0  0
  -15.1516   15.4965  -26.3997 O   0  0  0  0  0  0  0  0  0  0  0  0
 37 38  1  0  0  0
 38 24  1  0  0  0
 24 25  2  0  0  0
 25 26  1  0  0  0
 26 22  1  0  0  0
 22  1  1  0  0  0
  1  2  2  0  0  0
  2  3  1  0  0  0
  3  4  2  0  0  0
  4  5  1  0  0  0
  5  6  2  0  0  0
  6  7  1  0  0  0
  7  8  2  0  0  0
  8  9  1  0  0  0
  6 10  1  0  0  0
 10 11  2  0  0  0
 10 12  1  0  0  0
 12 14  1  0  0  0
 14 15  2  0  0  0
 15 16  1  0  0  0
 15 17  1  0  0  0
 17 18  2  0  0  0
 18 19  1  0  0  0
 19 20  2  0  0  0
 20 21  1  0  0  0
 26 27  2  0  0  0
 27 28  1  0  0  0
 28 29  2  0  0  0
 28 30  1  0  0  0
 30 31  1  0  0  0
 31 32  1  0  0  0
 32 33  1  0  0  0
 33 34  1  0  0  0
 33 35  1  0  0  0
 35 36  1  0  0  0
 29 24  1  0  0  0
 36 30  1  0  0  0
  9  1  1  0  0  0
 20 14  1  0  0  0
  8  3  1  0  0  0
 22 23  1  0  0  0
 12 13  1  0  0  0
M  END
> <minimizedAffinity>
-8.43062

> <CNNscore>
0.3096699119

> <CNNaffinity>
7.1328620911

> <CNN_VS>
2.2088327408

> <CNNaffinity_variance>
0.0943073779

$$$$
[H]c1c([H])c(C2([H])C([H])([H])C([H])([H])N(C(=O)C([H])([H])C([H])([H])C(C([H])([H])[H])(C([H])([H])[H])C([H])([H])[H])C([H])([H])C2([H])[H])c([H])c(F)c1C#CC([H])([H])N(C(=O)N([H])c1c([H])c([H])c(C([H])([H])[H])c(C(F)(F)F)c1[H])C([H])([H])[H]


 41 43  0  0  0  0  0  0  0  0999 V2000
  -17.0882   11.8410  -20.9395 C   0  0  0  0  0  0  0  0  0  0  0  0
  -17.9739   12.5587  -20.1748 C   0  0  0  0  0  0  0  0  0  0  0  0
  -18.4506   12.0644  -18.9946 C   0  0  0  0  0  0  0  0  0  0  0  0
  -18.0589   10.8334  -18.5351 C   0  0  0  0  0  0  0  0  0  0  0  0
  -17.1714   10.1010  -19.2902 C   0  0  0  0  0  0  0  0  0  0  0  0
  -16.6787   10.6032  -20.5023 C   0  0  0  0  0  0  0  0  0  0  0  0
  -15.7951    9.8491  -21.2316 F   0  0  0  0  0  0  0  0  0  0  0  0
  -18.5864   10.3280  -17.2593 C   0  0  0  0  0  0  0  0  0  0  0  0
  -18.8272    8.8456  -17.2226 C   0  0  0  0  0  0  0  0  0  0  0  0
  -19.0333    8.4668  -15.7771 C   0  0  0  0  0  0  0  0  0  0  0  0
  -19.9315    9.3708  -15.1406 N   0  0  0  0  0  0  0  0  0  0  0  0
  -20.5733   10.5049  -15.7473 C   0  0  0  0  0  0  0  0  0  0  0  0
  -19.8923   11.0331  -16.9719 C   0  0  0  0  0  0  0  0  0  0  0  0
  -20.2317    9.1444  -13.7433 C   0  0  0  0  0  0  0  0  0  0  0  0
  -19.6295    8.1440  -13.2231 O   0  0  0  0  0  0  0  0  0  0  0  0
  -21.1449   10.0054  -13.0117 C   0  0  0  0  0  0  0  0  0  0  0  0
  -20.5973   10.7744  -11.8865 C   0  0  0  0  0  0  0  0  0  0  0  0
  -21.4881   11.4149  -10.9095 C   0  0  0  0  0  0  0  0  0  0  0  0
  -22.4687   10.3451  -10.3529 C   0  0  0  0  0  0  0  0  0  0  0  0
  -20.6927   11.8290   -9.6443 C   0  0  0  0  0  0  0  0  0  0  0  0
  -22.3067   12.5807  -11.2809 C   0  0  0  0  0  0  0  0  0  0  0  0
  -16.1276   12.7749  -23.2124 C   0  0  0  0  0  0  0  0  0  0  0  0
  -16.5699   12.3360  -22.1799 C   0  0  0  0  0  0  0  0  0  0  0  0
  -15.5717   13.3406  -24.4693 C   0  0  0  0  0  0  0  0  0  0  0  0
  -16.7444   14.3969  -26.4013 C   0  0  0  0  0  0  0  0  0  0  0  0
  -16.4494   14.3463  -24.9923 N   0  0  0  0  0  0  0  0  0  0  0  0
  -17.0485   15.2978  -24.1193 C   0  0  0  0  0  0  0  0  0  0  0  0
  -17.8389   16.1382  -24.6755 O   0  0  0  0  0  0  0  0  0  0  0  0
  -16.7722   15.2918  -22.7493 N   0  0  0  0  0  0  0  0  0  0  0  0
  -16.1008   14.5451  -22.4039 H   0  0  0  0  0  0  0  0  0  0  0  0
  -17.3246   16.2139  -21.8382 C   0  0  0  0  0  0  0  0  0  0  0  0
  -16.5441   17.3394  -21.4997 C   0  0  0  0  0  0  0  0  0  0  0  0
  -17.0198   18.2950  -20.6453 C   0  0  0  0  0  0  0  0  0  0  0  0
  -18.2664   18.2283  -20.0674 C   0  0  0  0  0  0  0  0  0  0  0  0
  -18.6644   19.3086  -19.1708 C   0  0  0  0  0  0  0  0  0  0  0  0
  -19.0340   17.1471  -20.3843 C   0  0  0  0  0  0  0  0  0  0  0  0
  -18.5602   16.1552  -21.2616 C   0  0  0  0  0  0  0  0  0  0  0  0
  -20.3829   17.0339  -19.7915 C   0  0  0  0  0  0  0  0  0  0  0  0
  -21.2302   18.0470  -20.2128 F   0  0  0  0  0  0  0  0  0  0  0  0
  -20.3576   16.9190  -18.4070 F   0  0  0  0  0  0  0  0  0  0  0  0
  -20.9506   15.8606  -20.2521 F   0  0  0  0  0  0  0  0  0  0  0  0
 25 26  1  0  0  0
 26 24  1  0  0  0
 24 22  1  0  0  0
 22 23  3  0  0  0
 23  1  1  0  0  0
  1  2  2  0  0  0
  2  3  1  0  0  0
  3  4  2  0  0  0
  4  5  1  0  0  0
  5  6  2  0  0  0
  6  7  1  0  0  0
  4  8  1  0  0  0
  8  9  1  0  0  0
  9 10  1  0  0  0
 10 11  1  0  0  0
 11 12  1  0  0  0
 12 13  1  0  0  0
 11 14  1  0  0  0
 14 15  2  0  0  0
 14 16  1  0  0  0
 16 17  1  0  0  0
 17 18  1  0  0  0
 18 19  1  0  0  0
 18 20  1  0  0  0
 18 21  1  0  0  0
 26 27  1  0  0  0
 27 28  2  0  0  0
 27 29  1  0  0  0
 29 31  1  0  0  0
 31 32  2  0  0  0
 32 33  1  0  0  0
 33 34  2  0  0  0
 34 35  1  0  0  0
 34 36  1  0  0  0
 36 37  2  0  0  0
 36 38  1  0  0  0
 38 39  1  0  0  0
 38 40  1  0  0  0
 38 41  1  0  0  0
  6  1  1  0  0  0
 13  8  1  0  0  0
 37 31  1  0  0  0
 29 30  1  0  0  0
M  END
> <minimizedAffinity>
-9.06942

> <CNNscore>
0.2571144104

> <CNNaffinity>
7.2798433304

> <CNN_VS>
1.8717526197

> <CNNaffinity_variance>
0.1589850485

$$$$
[H]c1c([H])c(C2([H])C([H])([H])C([H])([H])N(C(=O)C([H])([H])C([H])([H])C(C([H])([H])[H])(C([H])([H])[H])C([H])([H])[H])C([H])([H])C2([H])[H])c([H])c(F)c1C#CC([H])([H])N(C(=O)N([H])c1c([H])c([H])c(C([H])([H])[H])c(C(F)(F)F)c1[H])C([H])([H])[H]


 41 43  0  0  0  0  0  0  0  0999 V2000
  -17.3869   12.0752  -21.3198 C   0  0  0  0  0  0  0  0  0  0  0  0
  -18.3886   12.6293  -20.5624 C   0  0  0  0  0  0  0  0  0  0  0  0
  -18.7057   12.1262  -19.3332 C   0  0  0  0  0  0  0  0  0  0  0  0
  -18.0323   11.0498  -18.8157 C   0  0  0  0  0  0  0  0  0  0  0  0
  -17.0252   10.4825  -19.5628 C   0  0  0  0  0  0  0  0  0  0  0  0
  -16.6953   10.9946  -20.8249 C   0  0  0  0  0  0  0  0  0  0  0  0
  -15.6863   10.4070  -21.5447 F   0  0  0  0  0  0  0  0  0  0  0  0
  -18.3935   10.5315  -17.4882 C   0  0  0  0  0  0  0  0  0  0  0  0
  -18.7116    9.0637  -17.4526 C   0  0  0  0  0  0  0  0  0  0  0  0
  -18.7230    8.6488  -16.0023 C   0  0  0  0  0  0  0  0  0  0  0  0
  -19.4634    9.5780  -15.2164 N   0  0  0  0  0  0  0  0  0  0  0  0
  -20.1213   10.7643  -15.6921 C   0  0  0  0  0  0  0  0  0  0  0  0
  -19.5996   11.2955  -16.9913 C   0  0  0  0  0  0  0  0  0  0  0  0
  -19.5661    9.3219  -13.7961 C   0  0  0  0  0  0  0  0  0  0  0  0
  -18.9523    8.2741  -13.3966 O   0  0  0  0  0  0  0  0  0  0  0  0
  -20.3097   10.2058  -12.9150 C   0  0  0  0  0  0  0  0  0  0  0  0
  -19.6730   10.5952  -11.6499 C   0  0  0  0  0  0  0  0  0  0  0  0
  -20.0277    9.9242  -10.3921 C   0  0  0  0  0  0  0  0  0  0  0  0
  -18.7977    9.1142   -9.8953 C   0  0  0  0  0  0  0  0  0  0  0  0
  -20.2203   10.9665   -9.2602 C   0  0  0  0  0  0  0  0  0  0  0  0
  -21.1847    9.0170  -10.3175 C   0  0  0  0  0  0  0  0  0  0  0  0
  -16.7411   13.0353  -23.6910 C   0  0  0  0  0  0  0  0  0  0  0  0
  -17.0312   12.5839  -22.6110 C   0  0  0  0  0  0  0  0  0  0  0  0
  -16.3909   13.6200  -25.0117 C   0  0  0  0  0  0  0  0  0  0  0  0
  -14.2874   14.8706  -25.4964 C   0  0  0  0  0  0  0  0  0  0  0  0
  -15.5656   14.7794  -24.8386 N   0  0  0  0  0  0  0  0  0  0  0  0
  -16.0094   15.8587  -24.0233 C   0  0  0  0  0  0  0  0  0  0  0  0
  -15.2157   16.8613  -23.9526 O   0  0  0  0  0  0  0  0  0  0  0  0
  -17.2351   15.7989  -23.3544 N   0  0  0  0  0  0  0  0  0  0  0  0
  -17.8075   14.9150  -23.4908 H   0  0  0  0  0  0  0  0  0  0  0  0
  -17.7222   16.8289  -22.5253 C   0  0  0  0  0  0  0  0  0  0  0  0
  -17.7029   16.6050  -21.1324 C   0  0  0  0  0  0  0  0  0  0  0  0
  -18.1311   17.5658  -20.2589 C   0  0  0  0  0  0  0  0  0  0  0  0
  -18.6009   18.7925  -20.6673 C   0  0  0  0  0  0  0  0  0  0  0  0
  -19.0307   19.7375  -19.6417 C   0  0  0  0  0  0  0  0  0  0  0  0
  -18.6259   19.0254  -22.0103 C   0  0  0  0  0  0  0  0  0  0  0  0
  -18.1889   18.0482  -22.9226 C   0  0  0  0  0  0  0  0  0  0  0  0
  -19.1182   20.3309  -22.4970 C   0  0  0  0  0  0  0  0  0  0  0  0
  -18.9852   20.4656  -23.8703 F   0  0  0  0  0  0  0  0  0  0  0  0
  -18.5656   21.4068  -21.8129 F   0  0  0  0  0  0  0  0  0  0  0  0
  -20.4770   20.3903  -22.2488 F   0  0  0  0  0  0  0  0  0  0  0  0
 25 26  1  0  0  0
 26 24  1  0  0  0
 24 22  1  0  0  0
 22 23  3  0  0  0
 23  1  1  0  0  0
  1  2  2  0  0  0
  2  3  1  0  0  0
  3  4  2  0  0  0
  4  5  1  0  0  0
  5  6  2  0  0  0
  6  7  1  0  0  0
  4  8  1  0  0  0
  8  9  1  0  0  0
  9 10  1  0  0  0
 10 11  1  0  0  0
 11 12  1  0  0  0
 12 13  1  0  0  0
 11 14  1  0  0  0
 14 15  2  0  0  0
 14 16  1  0  0  0
 16 17  1  0  0  0
 17 18  1  0  0  0
 18 19  1  0  0  0
 18 20  1  0  0  0
 18 21  1  0  0  0
 26 27  1  0  0  0
 27 28  2  0  0  0
 27 29  1  0  0  0
 29 31  1  0  0  0
 31 32  2  0  0  0
 32 33  1  0  0  0
 33 34  2  0  0  0
 34 35  1  0  0  0
 34 36  1  0  0  0
 36 37  2  0  0  0
 36 38  1  0  0  0
 38 39  1  0  0  0
 38 40  1  0  0  0
 38 41  1  0  0  0
  6  1  1  0  0  0
 13  8  1  0  0  0
 37 31  1  0  0  0
 29 30  1  0  0  0
M  END
> <minimizedAffinity>
-9.39548

> <CNNscore>
0.2342214286

> <CNNaffinity>
7.0900163651

> <CNN_VS>
1.6606338024

> <CNNaffinity_variance>
0.1464326382

$$$$
[H]c1c([H])c(C2([H])C([H])([H])C([H])([H])N(C(=O)C([H])([H])C([H])([H])C(C([H])([H])[H])(C([H])([H])[H])C([H])([H])[H])C([H])([H])C2([H])[H])c([H])c(F)c1C#CC([H])([H])N(C(=O)N([H])c1c([H])c([H])c(C([H])([H])[H])c(C(F)(F)F)c1[H])C([H])([H])[H]


 41 43  0  0  0  0  0  0  0  0999 V2000
  -17.7366   11.5908  -20.0111 C   0  0  0  0  0  0  0  0  0  0  0  0
  -18.6843   12.3490  -19.3700 C   0  0  0  0  0  0  0  0  0  0  0  0
  -19.2288   11.9454  -18.1846 C   0  0  0  0  0  0  0  0  0  0  0  0
  -18.8453   10.7680  -17.5960 C   0  0  0  0  0  0  0  0  0  0  0  0
  -17.8961    9.9959  -18.2262 C   0  0  0  0  0  0  0  0  0  0  0  0
  -17.3337   10.4050  -19.4429 C   0  0  0  0  0  0  0  0  0  0  0  0
  -16.3897    9.6133  -20.0458 F   0  0  0  0  0  0  0  0  0  0  0  0
  -19.4466   10.3602  -16.3179 C   0  0  0  0  0  0  0  0  0  0  0  0
  -19.7218    8.8885  -16.1946 C   0  0  0  0  0  0  0  0  0  0  0  0
  -20.0077    8.6126  -14.7394 C   0  0  0  0  0  0  0  0  0  0  0  0
  -20.9162    9.5744  -14.2114 N   0  0  0  0  0  0  0  0  0  0  0  0
  -21.5018   10.6766  -14.9246 C   0  0  0  0  0  0  0  0  0  0  0  0
  -20.7493   11.1076  -16.1453 C   0  0  0  0  0  0  0  0  0  0  0  0
  -21.2903    9.4489  -12.8193 C   0  0  0  0  0  0  0  0  0  0  0  0
  -20.7370    8.4750  -12.2033 O   0  0  0  0  0  0  0  0  0  0  0  0
  -22.2194   10.3745  -12.1945 C   0  0  0  0  0  0  0  0  0  0  0  0
  -21.6549   11.5540  -11.5255 C   0  0  0  0  0  0  0  0  0  0  0  0
  -21.2140   11.4853  -10.1258 C   0  0  0  0  0  0  0  0  0  0  0  0
  -21.4195   12.8792   -9.4695 C   0  0  0  0  0  0  0  0  0  0  0  0
  -22.1707   10.5844   -9.3023 C   0  0  0  0  0  0  0  0  0  0  0  0
  -19.8481   11.0575   -9.7819 C   0  0  0  0  0  0  0  0  0  0  0  0
  -16.6660   12.3480  -22.3005 C   0  0  0  0  0  0  0  0  0  0  0  0
  -17.1466   11.9909  -21.2537 C   0  0  0  0  0  0  0  0  0  0  0  0
  -16.0902   12.8145  -23.5889 C   0  0  0  0  0  0  0  0  0  0  0  0
  -17.4679   12.5169  -25.6472 C   0  0  0  0  0  0  0  0  0  0  0  0
  -17.1320   13.2663  -24.4639 N   0  0  0  0  0  0  0  0  0  0  0  0
  -17.8539   14.4558  -24.1629 C   0  0  0  0  0  0  0  0  0  0  0  0
  -18.7837   14.7625  -24.9886 O   0  0  0  0  0  0  0  0  0  0  0  0
  -17.5447   15.2194  -23.0340 N   0  0  0  0  0  0  0  0  0  0  0  0
  -16.7529   14.8632  -22.4226 H   0  0  0  0  0  0  0  0  0  0  0  0
  -18.2147   16.4104  -22.6905 C   0  0  0  0  0  0  0  0  0  0  0  0
  -17.7321   17.6118  -23.2509 C   0  0  0  0  0  0  0  0  0  0  0  0
  -18.3444   18.8063  -22.9904 C   0  0  0  0  0  0  0  0  0  0  0  0
  -19.4507   18.9189  -22.1806 C   0  0  0  0  0  0  0  0  0  0  0  0
  -20.0175   20.2480  -21.9762 C   0  0  0  0  0  0  0  0  0  0  0  0
  -19.9304   17.7672  -21.6312 C   0  0  0  0  0  0  0  0  0  0  0  0
  -19.3128   16.5302  -21.8890 C   0  0  0  0  0  0  0  0  0  0  0  0
  -21.1203   17.8373  -20.7577 C   0  0  0  0  0  0  0  0  0  0  0  0
  -20.9313   18.6844  -19.6767 F   0  0  0  0  0  0  0  0  0  0  0  0
  -21.5770   16.5854  -20.3639 F   0  0  0  0  0  0  0  0  0  0  0  0
  -22.1511   18.3959  -21.4904 F   0  0  0  0  0  0  0  0  0  0  0  0
 25 26  1  0  0  0
 26 24  1  0  0  0
 24 22  1  0  0  0
 22 23  3  0  0  0
 23  1  1  0  0  0
  1  2  2  0  0  0
  2  3  1  0  0  0
  3  4  2  0  0  0
  4  5  1  0  0  0
  5  6  2  0  0  0
  6  7  1  0  0  0
  4  8  1  0  0  0
  8  9  1  0  0  0
  9 10  1  0  0  0
 10 11  1  0  0  0
 11 12  1  0  0  0
 12 13  1  0  0  0
 11 14  1  0  0  0
 14 15  2  0  0  0
 14 16  1  0  0  0
 16 17  1  0  0  0
 17 18  1  0  0  0
 18 19  1  0  0  0
 18 20  1  0  0  0
 18 21  1  0  0  0
 26 27  1  0  0  0
 27 28  2  0  0  0
 27 29  1  0  0  0
 29 31  1  0  0  0
 31 32  2  0  0  0
 32 33  1  0  0  0
 33 34  2  0  0  0
 34 35  1  0  0  0
 34 36  1  0  0  0
 36 37  2  0  0  0
 36 38  1  0  0  0
 38 39  1  0  0  0
 38 40  1  0  0  0
 38 41  1  0  0  0
  6  1  1  0  0  0
 13  8  1  0  0  0
 37 31  1  0  0  0
 29 30  1  0  0  0
M  END
> <minimizedAffinity>
-8.62016

> <CNNscore>
0.2262094319

> <CNNaffinity>
6.6429204941

> <CNN_VS>
1.5026912689

> <CNNaffinity_variance>
0.4002650678

$$$$
[H]c1c([H])c(C2([H])C([H])([H])C([H])([H])N(C(=O)C([H])([H])C([H])([H])C(C([H])([H])[H])(C([H])([H])[H])C([H])([H])[H])C([H])([H])C2([H])[H])c([H])c(F)c1C#CC([H])([H])N(C(=O)N([H])c1c([H])c([H])c(C([H])([H])[H])c(C(F)(F)F)c1[H])C([H])([H])[H]


 41 43  0  0  0  0  0  0  0  0999 V2000
  -17.2738   12.1020  -21.3974 C   0  0  0  0  0  0  0  0  0  0  0  0
  -18.2724   12.6755  -20.6504 C   0  0  0  0  0  0  0  0  0  0  0  0
  -18.6178   12.1736  -19.4284 C   0  0  0  0  0  0  0  0  0  0  0  0
  -17.9770   11.0790  -18.9079 C   0  0  0  0  0  0  0  0  0  0  0  0
  -16.9734   10.4920  -19.6445 C   0  0  0  0  0  0  0  0  0  0  0  0
  -16.6145   11.0028  -20.8993 C   0  0  0  0  0  0  0  0  0  0  0  0
  -15.6099   10.3955  -21.6087 F   0  0  0  0  0  0  0  0  0  0  0  0
  -18.3682   10.5623  -17.5883 C   0  0  0  0  0  0  0  0  0  0  0  0
  -18.6335    9.0842  -17.5463 C   0  0  0  0  0  0  0  0  0  0  0  0
  -18.6838    8.6852  -16.0924 C   0  0  0  0  0  0  0  0  0  0  0  0
  -19.4864    9.5950  -15.3459 N   0  0  0  0  0  0  0  0  0  0  0  0
  -20.1691   10.7508  -15.8601 C   0  0  0  0  0  0  0  0  0  0  0  0
  -19.6191   11.2866  -17.1457 C   0  0  0  0  0  0  0  0  0  0  0  0
  -19.6325    9.3510  -13.9272 C   0  0  0  0  0  0  0  0  0  0  0  0
  -18.9962    8.3310  -13.4925 O   0  0  0  0  0  0  0  0  0  0  0  0
  -20.4403   10.2164  -13.0851 C   0  0  0  0  0  0  0  0  0  0  0  0
  -21.7081    9.6767  -12.5765 C   0  0  0  0  0  0  0  0  0  0  0  0
  -22.9657    9.9019  -13.3017 C   0  0  0  0  0  0  0  0  0  0  0  0
  -24.1516    9.7014  -12.3171 C   0  0  0  0  0  0  0  0  0  0  0  0
  -23.1041   11.3967  -13.6908 C   0  0  0  0  0  0  0  0  0  0  0  0
  -23.2911    9.1298  -14.5121 C   0  0  0  0  0  0  0  0  0  0  0  0
  -16.5896   13.0358  -23.7683 C   0  0  0  0  0  0  0  0  0  0  0  0
  -16.8888   12.6090  -22.6808 C   0  0  0  0  0  0  0  0  0  0  0  0
  -16.2511   13.5654  -25.1151 C   0  0  0  0  0  0  0  0  0  0  0  0
  -14.2660   15.0375  -25.4551 C   0  0  0  0  0  0  0  0  0  0  0  0
  -15.6194   14.8472  -25.0004 N   0  0  0  0  0  0  0  0  0  0  0  0
  -16.3309   15.9488  -24.4466 C   0  0  0  0  0  0  0  0  0  0  0  0
  -15.6925   17.0586  -24.4120 O   0  0  0  0  0  0  0  0  0  0  0  0
  -17.6390   15.7987  -23.9779 N   0  0  0  0  0  0  0  0  0  0  0  0
  -18.0642   14.8292  -24.0607 H   0  0  0  0  0  0  0  0  0  0  0  0
  -18.3890   16.8475  -23.4096 C   0  0  0  0  0  0  0  0  0  0  0  0
  -17.7924   17.5780  -22.3604 C   0  0  0  0  0  0  0  0  0  0  0  0
  -18.4428   18.6290  -21.7756 C   0  0  0  0  0  0  0  0  0  0  0  0
  -19.6980   19.0397  -22.1603 C   0  0  0  0  0  0  0  0  0  0  0  0
  -20.2914   20.1750  -21.4614 C   0  0  0  0  0  0  0  0  0  0  0  0
  -20.2888   18.3447  -23.1734 C   0  0  0  0  0  0  0  0  0  0  0  0
  -19.6338   17.2613  -23.7861 C   0  0  0  0  0  0  0  0  0  0  0  0
  -21.6357   18.7519  -23.6247 C   0  0  0  0  0  0  0  0  0  0  0  0
  -21.6281   19.9829  -24.2621 F   0  0  0  0  0  0  0  0  0  0  0  0
  -22.5855   18.6964  -22.6119 F   0  0  0  0  0  0  0  0  0  0  0  0
  -22.0553   17.8434  -24.5786 F   0  0  0  0  0  0  0  0  0  0  0  0
 25 26  1  0  0  0
 26 24  1  0  0  0
 24 22  1  0  0  0
 22 23  3  0  0  0
 23  1  1  0  0  0
  1  2  2  0  0  0
  2  3  1  0  0  0
  3  4  2  0  0  0
  4  5  1  0  0  0
  5  6  2  0  0  0
  6  7  1  0  0  0
  4  8  1  0  0  0
  8  9  1  0  0  0
  9 10  1  0  0  0
 10 11  1  0  0  0
 11 12  1  0  0  0
 12 13  1  0  0  0
 11 14  1  0  0  0
 14 15  2  0  0  0
 14 16  1  0  0  0
 16 17  1  0  0  0
 17 18  1  0  0  0
 18 19  1  0  0  0
 18 20  1  0  0  0
 18 21  1  0  0  0
 26 27  1  0  0  0
 27 28  2  0  0  0
 27 29  1  0  0  0
 29 31  1  0  0  0
 31 32  2  0  0  0
 32 33  1  0  0  0
 33 34  2  0  0  0
 34 35  1  0  0  0
 34 36  1  0  0  0
 36 37  2  0  0  0
 36 38  1  0  0  0
 38 39  1  0  0  0
 38 40  1  0  0  0
 38 41  1  0  0  0
  6  1  1  0  0  0
 13  8  1  0  0  0
 37 31  1  0  0  0
 29 30  1  0  0  0
M  END
> <minimizedAffinity>
-9.29227

> <CNNscore>
0.2249129266

> <CNNaffinity>
6.9489393234

> <CNN_VS>
1.5629062653

> <CNNaffinity_variance>
0.2537050843

$$$$
[H]c1c([H])c(C2([H])C([H])([H])C([H])([H])N(C(=O)C([H])([H])C([H])([H])C(C([H])([H])[H])(C([H])([H])[H])C([H])([H])[H])C([H])([H])C2([H])[H])c([H])c(F)c1C#CC([H])([H])N(C(=O)N([H])c1c([H])c([H])c(C([H])([H])[H])c(C(F)(F)F)c1[H])C([H])([H])[H]


 41 43  0  0  0  0  0  0  0  0999 V2000
  -17.3473   12.0288  -21.3533 C   0  0  0  0  0  0  0  0  0  0  0  0
  -16.7624   10.9079  -20.8187 C   0  0  0  0  0  0  0  0  0  0  0  0
  -17.1213   10.4433  -19.5859 C   0  0  0  0  0  0  0  0  0  0  0  0
  -18.0790   11.0826  -18.8416 C   0  0  0  0  0  0  0  0  0  0  0  0
  -18.6750   12.2082  -19.3633 C   0  0  0  0  0  0  0  0  0  0  0  0
  -18.3109   12.6897  -20.6281 C   0  0  0  0  0  0  0  0  0  0  0  0
  -18.9237   13.8137  -21.1203 F   0  0  0  0  0  0  0  0  0  0  0  0
  -18.4472   10.5579  -17.5187 C   0  0  0  0  0  0  0  0  0  0  0  0
  -18.6513    9.0704  -17.4678 C   0  0  0  0  0  0  0  0  0  0  0  0
  -18.6837    8.6781  -16.0116 C   0  0  0  0  0  0  0  0  0  0  0  0
  -19.5223    9.5583  -15.2693 N   0  0  0  0  0  0  0  0  0  0  0  0
  -20.2526   10.6820  -15.7893 C   0  0  0  0  0  0  0  0  0  0  0  0
  -19.7265   11.2325  -17.0786 C   0  0  0  0  0  0  0  0  0  0  0  0
  -19.6568    9.3166  -13.8490 C   0  0  0  0  0  0  0  0  0  0  0  0
  -18.9785    8.3263  -13.4093 O   0  0  0  0  0  0  0  0  0  0  0  0
  -20.4987   10.1529  -13.0110 C   0  0  0  0  0  0  0  0  0  0  0  0
  -19.8400   10.9447  -11.9637 C   0  0  0  0  0  0  0  0  0  0  0  0
  -19.8475   10.4955  -10.5650 C   0  0  0  0  0  0  0  0  0  0  0  0
  -18.3888   10.5113  -10.0287 C   0  0  0  0  0  0  0  0  0  0  0  0
  -20.5457   11.5471   -9.6643 C   0  0  0  0  0  0  0  0  0  0  0  0
  -20.4171    9.1904  -10.1914 C   0  0  0  0  0  0  0  0  0  0  0  0
  -16.7053   12.9869  -23.7262 C   0  0  0  0  0  0  0  0  0  0  0  0
  -16.9924   12.5369  -22.6448 C   0  0  0  0  0  0  0  0  0  0  0  0
  -16.3617   13.5695  -25.0497 C   0  0  0  0  0  0  0  0  0  0  0  0
  -14.3989   15.0844  -25.3250 C   0  0  0  0  0  0  0  0  0  0  0  0
  -15.7505   14.8555  -24.8828 N   0  0  0  0  0  0  0  0  0  0  0  0
  -16.4807   15.9234  -24.2887 C   0  0  0  0  0  0  0  0  0  0  0  0
  -15.8598   17.0407  -24.2085 O   0  0  0  0  0  0  0  0  0  0  0  0
  -17.7876   15.7347  -23.8308 N   0  0  0  0  0  0  0  0  0  0  0  0
  -18.1974   14.7628  -23.9529 H   0  0  0  0  0  0  0  0  0  0  0  0
  -18.5555   16.7487  -23.2244 C   0  0  0  0  0  0  0  0  0  0  0  0
  -18.0515   17.3239  -22.0389 C   0  0  0  0  0  0  0  0  0  0  0  0
  -18.7222   18.3331  -21.4054 C   0  0  0  0  0  0  0  0  0  0  0  0
  -19.9105   18.8480  -21.8691 C   0  0  0  0  0  0  0  0  0  0  0  0
  -20.5341   19.9250  -21.1070 C   0  0  0  0  0  0  0  0  0  0  0  0
  -20.4114   18.3037  -23.0142 C   0  0  0  0  0  0  0  0  0  0  0  0
  -19.7342   17.2653  -23.6785 C   0  0  0  0  0  0  0  0  0  0  0  0
  -21.6836   18.8274  -23.5537 C   0  0  0  0  0  0  0  0  0  0  0  0
  -21.5445   20.0973  -24.0921 F   0  0  0  0  0  0  0  0  0  0  0  0
  -22.7272   18.7618  -22.6386 F   0  0  0  0  0  0  0  0  0  0  0  0
  -22.0617   18.0173  -24.6082 F   0  0  0  0  0  0  0  0  0  0  0  0
 25 26  1  0  0  0
 26 24  1  0  0  0
 24 22  1  0  0  0
 22 23  3  0  0  0
 23  1  1  0  0  0
  1  2  2  0  0  0
  2  3  1  0  0  0
  3  4  2  0  0  0
  4  5  1  0  0  0
  5  6  2  0  0  0
  6  7  1  0  0  0
  4  8  1  0  0  0
  8  9  1  0  0  0
  9 10  1  0  0  0
 10 11  1  0  0  0
 11 12  1  0  0  0
 12 13  1  0  0  0
 11 14  1  0  0  0
 14 15  2  0  0  0
 14 16  1  0  0  0
 16 17  1  0  0  0
 17 18  1  0  0  0
 18 19  1  0  0  0
 18 20  1  0  0  0
 18 21  1  0  0  0
 26 27  1  0  0  0
 27 28  2  0  0  0
 27 29  1  0  0  0
 29 31  1  0  0  0
 31 32  2  0  0  0
 32 33  1  0  0  0
 33 34  2  0  0  0
 34 35  1  0  0  0
 34 36  1  0  0  0
 36 37  2  0  0  0
 36 38  1  0  0  0
 38 39  1  0  0  0
 38 40  1  0  0  0
 38 41  1  0  0  0
  6  1  1  0  0  0
 13  8  1  0  0  0
 37 31  1  0  0  0
 29 30  1  0  0  0
M  END
> <minimizedAffinity>
-9.59719

> <CNNscore>
0.2171348333

> <CNNaffinity>
6.9929375648

> <CNN_VS>
1.5184103251

> <CNNaffinity_variance>
0.2154810131

$$$$
[H]c1c([H])c(C2([H])C([H])([H])C([H])([H])N(C(=O)C([H])([H])C([H])([H])C(C([H])([H])[H])(C([H])([H])[H])C([H])([H])[H])C([H])([H])C2([H])[H])c([H])c(F)c1C#CC([H])([H])N(C(=O)N([H])c1c([H])c([H])c(C([H])([H])[H])c(C(F)(F)F)c1[H])C([H])([H])[H]


 41 43  0  0  0  0  0  0  0  0999 V2000
  -17.7896   11.5546  -19.9497 C   0  0  0  0  0  0  0  0  0  0  0  0
  -18.7635   12.2728  -19.3017 C   0  0  0  0  0  0  0  0  0  0  0  0
  -19.3580   11.7951  -18.1691 C   0  0  0  0  0  0  0  0  0  0  0  0
  -19.0005   10.5808  -17.6424 C   0  0  0  0  0  0  0  0  0  0  0  0
  -18.0256    9.8480  -18.2803 C   0  0  0  0  0  0  0  0  0  0  0  0
  -17.4118   10.3333  -19.4430 C   0  0  0  0  0  0  0  0  0  0  0  0
  -16.4433    9.5793  -20.0553 F   0  0  0  0  0  0  0  0  0  0  0  0
  -19.6558   10.0931  -16.4200 C   0  0  0  0  0  0  0  0  0  0  0  0
  -19.7725   11.1110  -15.3213 C   0  0  0  0  0  0  0  0  0  0  0  0
  -20.7442   10.5587  -14.3083 C   0  0  0  0  0  0  0  0  0  0  0  0
  -20.4500    9.1959  -14.0161 N   0  0  0  0  0  0  0  0  0  0  0  0
  -19.3892    8.4108  -14.5859 C   0  0  0  0  0  0  0  0  0  0  0  0
  -18.8699    8.9120  -15.8979 C   0  0  0  0  0  0  0  0  0  0  0  0
  -21.2981    8.5176  -13.0599 C   0  0  0  0  0  0  0  0  0  0  0  0
  -22.2471    9.2316  -12.5870 O   0  0  0  0  0  0  0  0  0  0  0  0
  -21.0699    7.1317  -12.6888 C   0  0  0  0  0  0  0  0  0  0  0  0
  -22.0138    6.1287  -13.1991 C   0  0  0  0  0  0  0  0  0  0  0  0
  -21.6850    5.3193  -14.3802 C   0  0  0  0  0  0  0  0  0  0  0  0
  -22.6207    4.0786  -14.4103 C   0  0  0  0  0  0  0  0  0  0  0  0
  -22.0843    6.0701  -15.6770 C   0  0  0  0  0  0  0  0  0  0  0  0
  -20.3181    4.8186  -14.5989 C   0  0  0  0  0  0  0  0  0  0  0  0
  -16.6225   12.4204  -22.1519 C   0  0  0  0  0  0  0  0  0  0  0  0
  -17.1471   12.0324  -21.1377 C   0  0  0  0  0  0  0  0  0  0  0  0
  -15.9985   12.8848  -23.4183 C   0  0  0  0  0  0  0  0  0  0  0  0
  -17.3657   12.5793  -25.4825 C   0  0  0  0  0  0  0  0  0  0  0  0
  -17.0047   13.3559  -24.3243 N   0  0  0  0  0  0  0  0  0  0  0  0
  -17.6663   14.5922  -24.0793 C   0  0  0  0  0  0  0  0  0  0  0  0
  -18.5689   14.9146  -24.9288 O   0  0  0  0  0  0  0  0  0  0  0  0
  -17.3305   15.3822  -22.9763 N   0  0  0  0  0  0  0  0  0  0  0  0
  -16.5658   15.0094  -22.3409 H   0  0  0  0  0  0  0  0  0  0  0  0
  -17.9409   16.6191  -22.6881 C   0  0  0  0  0  0  0  0  0  0  0  0
  -17.2357   17.5125  -21.8544 C   0  0  0  0  0  0  0  0  0  0  0  0
  -17.7463   18.7441  -21.5508 C   0  0  0  0  0  0  0  0  0  0  0  0
  -18.9578   19.1897  -22.0262 C   0  0  0  0  0  0  0  0  0  0  0  0
  -19.3991   20.5240  -21.6330 C   0  0  0  0  0  0  0  0  0  0  0  0
  -19.6522   18.3387  -22.8337 C   0  0  0  0  0  0  0  0  0  0  0  0
  -19.1414   17.0686  -23.1563 C   0  0  0  0  0  0  0  0  0  0  0  0
  -20.9570   18.7751  -23.3728 C   0  0  0  0  0  0  0  0  0  0  0  0
  -20.8426   19.8844  -24.1963 F   0  0  0  0  0  0  0  0  0  0  0  0
  -21.9169   18.9576  -22.3848 F   0  0  0  0  0  0  0  0  0  0  0  0
  -21.4416   17.7628  -24.1800 F   0  0  0  0  0  0  0  0  0  0  0  0
 25 26  1  0  0  0
 26 24  1  0  0  0
 24 22  1  0  0  0
 22 23  3  0  0  0
 23  1  1  0  0  0
  1  2  2  0  0  0
  2  3  1  0  0  0
  3  4  2  0  0  0
  4  5  1  0  0  0
  5  6  2  0  0  0
  6  7  1  0  0  0
  4  8  1  0  0  0
  8  9  1  0  0  0
  9 10  1  0  0  0
 10 11  1  0  0  0
 11 12  1  0  0  0
 12 13  1  0  0  0
 11 14  1  0  0  0
 14 15  2  0  0  0
 14 16  1  0  0  0
 16 17  1  0  0  0
 17 18  1  0  0  0
 18 19  1  0  0  0
 18 20  1  0  0  0
 18 21  1  0  0  0
 26 27  1  0  0  0
 27 28  2  0  0  0
 27 29  1  0  0  0
 29 31  1  0  0  0
 31 32  2  0  0  0
 32 33  1  0  0  0
 33 34  2  0  0  0
 34 35  1  0  0  0
 34 36  1  0  0  0
 36 37  2  0  0  0
 36 38  1  0  0  0
 38 39  1  0  0  0
 38 40  1  0  0  0
 38 41  1  0  0  0
  6  1  1  0  0  0
 13  8  1  0  0  0
 37 31  1  0  0  0
 29 30  1  0  0  0
M  END
> <minimizedAffinity>
-8.72555

> <CNNscore>
0.2165465355

> <CNNaffinity>
6.7247438431

> <CNN_VS>
1.4562200308

> <CNNaffinity_variance>
0.2843151391

$$$$
[H]c1c([H])c(C2([H])C([H])([H])C([H])([H])N(C(=O)C([H])([H])C([H])([H])C(C([H])([H])[H])(C([H])([H])[H])C([H])([H])[H])C([H])([H])C2([H])[H])c([H])c(F)c1C#CC([H])([H])N(C(=O)N([H])c1c([H])c([H])c(C([H])([H])[H])c(C(F)(F)F)c1[H])C([H])([H])[H]


 41 43  0  0  0  0  0  0  0  0999 V2000
  -20.0274   15.6577  -20.1517 C   0  0  0  0  0  0  0  0  0  0  0  0
  -19.5050   16.5434  -21.0610 C   0  0  0  0  0  0  0  0  0  0  0  0
  -20.2785   17.5191  -21.6216 C   0  0  0  0  0  0  0  0  0  0  0  0
  -21.6037   17.6453  -21.2934 C   0  0  0  0  0  0  0  0  0  0  0  0
  -22.1429   16.7649  -20.3833 C   0  0  0  0  0  0  0  0  0  0  0  0
  -21.3540   15.7615  -19.8046 C   0  0  0  0  0  0  0  0  0  0  0  0
  -21.9209   14.8997  -18.9006 F   0  0  0  0  0  0  0  0  0  0  0  0
  -22.4114   18.7073  -21.9108 C   0  0  0  0  0  0  0  0  0  0  0  0
  -22.1680   18.9077  -23.3796 C   0  0  0  0  0  0  0  0  0  0  0  0
  -23.2905   19.7706  -23.9001 C   0  0  0  0  0  0  0  0  0  0  0  0
  -23.5167   20.8810  -23.0369 N   0  0  0  0  0  0  0  0  0  0  0  0
  -22.8047   21.1777  -21.8239 C   0  0  0  0  0  0  0  0  0  0  0  0
  -22.1173   20.0057  -21.1946 C   0  0  0  0  0  0  0  0  0  0  0  0
  -24.5688   21.8065  -23.3975 C   0  0  0  0  0  0  0  0  0  0  0  0
  -25.2010   21.5059  -24.4672 O   0  0  0  0  0  0  0  0  0  0  0  0
  -24.8662   22.9745  -22.5865 C   0  0  0  0  0  0  0  0  0  0  0  0
  -26.0505   22.9147  -21.7197 C   0  0  0  0  0  0  0  0  0  0  0  0
  -25.9133   22.6951  -20.2736 C   0  0  0  0  0  0  0  0  0  0  0  0
  -24.6500   23.4495  -19.7727 C   0  0  0  0  0  0  0  0  0  0  0  0
  -27.0556   23.4121  -19.5082 C   0  0  0  0  0  0  0  0  0  0  0  0
  -25.8364   21.3341  -19.7179 C   0  0  0  0  0  0  0  0  0  0  0  0
  -18.5694   13.7744  -19.0167 C   0  0  0  0  0  0  0  0  0  0  0  0
  -19.2389   14.6264  -19.5460 C   0  0  0  0  0  0  0  0  0  0  0  0
  -17.7411   12.7428  -18.3394 C   0  0  0  0  0  0  0  0  0  0  0  0
  -17.4643   10.2989  -18.7567 C   0  0  0  0  0  0  0  0  0  0  0  0
  -17.4689   11.6574  -19.2355 N   0  0  0  0  0  0  0  0  0  0  0  0
  -17.2128   11.9129  -20.6123 C   0  0  0  0  0  0  0  0  0  0  0  0
  -17.0083   10.8778  -21.3384 O   0  0  0  0  0  0  0  0  0  0  0  0
  -17.1907   13.2186  -21.1103 N   0  0  0  0  0  0  0  0  0  0  0  0
  -17.3757   13.9961  -20.4112 H   0  0  0  0  0  0  0  0  0  0  0  0
  -16.9317   13.5348  -22.4588 C   0  0  0  0  0  0  0  0  0  0  0  0
  -17.9538   13.2719  -23.3952 C   0  0  0  0  0  0  0  0  0  0  0  0
  -17.7920   13.5768  -24.7182 C   0  0  0  0  0  0  0  0  0  0  0  0
  -16.6459   14.1491  -25.2194 C   0  0  0  0  0  0  0  0  0  0  0  0
  -16.5892   14.4288  -26.6505 C   0  0  0  0  0  0  0  0  0  0  0  0
  -15.6483   14.4101  -24.3277 C   0  0  0  0  0  0  0  0  0  0  0  0
  -15.7983   14.1031  -22.9634 C   0  0  0  0  0  0  0  0  0  0  0  0
  -14.3993   15.0290  -24.8185 C   0  0  0  0  0  0  0  0  0  0  0  0
  -13.3698   14.9427  -23.8941 F   0  0  0  0  0  0  0  0  0  0  0  0
  -14.5822   16.3291  -25.2735 F   0  0  0  0  0  0  0  0  0  0  0  0
  -13.9721   14.3067  -25.9172 F   0  0  0  0  0  0  0  0  0  0  0  0
 25 26  1  0  0  0
 26 24  1  0  0  0
 24 22  1  0  0  0
 22 23  3  0  0  0
 23  1  1  0  0  0
  1  2  2  0  0  0
  2  3  1  0  0  0
  3  4  2  0  0  0
  4  5  1  0  0  0
  5  6  2  0  0  0
  6  7  1  0  0  0
  4  8  1  0  0  0
  8  9  1  0  0  0
  9 10  1  0  0  0
 10 11  1  0  0  0
 11 12  1  0  0  0
 12 13  1  0  0  0
 11 14  1  0  0  0
 14 15  2  0  0  0
 14 16  1  0  0  0
 16 17  1  0  0  0
 17 18  1  0  0  0
 18 19  1  0  0  0
 18 20  1  0  0  0
 18 21  1  0  0  0
 26 27  1  0  0  0
 27 28  2  0  0  0
 27 29  1  0  0  0
 29 31  1  0  0  0
 31 32  2  0  0  0
 32 33  1  0  0  0
 33 34  2  0  0  0
 34 35  1  0  0  0
 34 36  1  0  0  0
 36 37  2  0  0  0
 36 38  1  0  0  0
 38 39  1  0  0  0
 38 40  1  0  0  0
 38 41  1  0  0  0
  6  1  1  0  0  0
 13  8  1  0  0  0
 37 31  1  0  0  0
 29 30  1  0  0  0
M  END
> <minimizedAffinity>
-8.08556

> <CNNscore>
0.2098355144

> <CNNaffinity>
7.0254006386

> <CNN_VS>
1.4741785526

> <CNNaffinity_variance>
0.2975300252

$$$$
[H]c1c([H])c(C2([H])C([H])([H])C([H])([H])N(C(=O)C([H])([H])C([H])([H])C(C([H])([H])[H])(C([H])([H])[H])C([H])([H])[H])C([H])([H])C2([H])[H])c([H])c(F)c1C#CC([H])([H])N(C(=O)N([H])c1c([H])c([H])c(C([H])([H])[H])c(C(F)(F)F)c1[H])C([H])([H])[H]


 41 43  0  0  0  0  0  0  0  0999 V2000
  -17.7222   11.5422  -19.9670 C   0  0  0  0  0  0  0  0  0  0  0  0
  -18.6985   12.2361  -19.2965 C   0  0  0  0  0  0  0  0  0  0  0  0
  -19.2454   11.7504  -18.1435 C   0  0  0  0  0  0  0  0  0  0  0  0
  -18.8359   10.5521  -17.6179 C   0  0  0  0  0  0  0  0  0  0  0  0
  -17.8579    9.8438  -18.2782 C   0  0  0  0  0  0  0  0  0  0  0  0
  -17.2929   10.3373  -19.4619 C   0  0  0  0  0  0  0  0  0  0  0  0
  -16.3198    9.6078  -20.0962 F   0  0  0  0  0  0  0  0  0  0  0  0
  -19.4406   10.0554  -16.3733 C   0  0  0  0  0  0  0  0  0  0  0  0
  -19.3847    8.5642  -16.1996 C   0  0  0  0  0  0  0  0  0  0  0  0
  -19.7292    8.2736  -14.7600 C   0  0  0  0  0  0  0  0  0  0  0  0
  -20.8755    9.0158  -14.3546 N   0  0  0  0  0  0  0  0  0  0  0  0
  -21.6298    9.9318  -15.1661 C   0  0  0  0  0  0  0  0  0  0  0  0
  -20.8889   10.4876  -16.3426 C   0  0  0  0  0  0  0  0  0  0  0  0
  -21.3340    8.8494  -12.9924 C   0  0  0  0  0  0  0  0  0  0  0  0
  -20.6315    8.0479  -12.2867 O   0  0  0  0  0  0  0  0  0  0  0  0
  -22.5008    9.5545  -12.4905 C   0  0  0  0  0  0  0  0  0  0  0  0
  -22.2711   10.6819  -11.5774 C   0  0  0  0  0  0  0  0  0  0  0  0
  -22.9047   11.9853  -11.8180 C   0  0  0  0  0  0  0  0  0  0  0  0
  -22.5803   12.9252  -10.6234 C   0  0  0  0  0  0  0  0  0  0  0  0
  -22.2189   12.7074  -13.0067 C   0  0  0  0  0  0  0  0  0  0  0  0
  -24.3541   12.0913  -12.0529 C   0  0  0  0  0  0  0  0  0  0  0  0
  -16.6458   12.4236  -22.2087 C   0  0  0  0  0  0  0  0  0  0  0  0
  -17.1291   12.0289  -21.1767 C   0  0  0  0  0  0  0  0  0  0  0  0
  -16.0724   12.8950  -23.4963 C   0  0  0  0  0  0  0  0  0  0  0  0
  -17.5173   12.5402  -25.4988 C   0  0  0  0  0  0  0  0  0  0  0  0
  -17.1166   13.3418  -24.3711 N   0  0  0  0  0  0  0  0  0  0  0  0
  -17.7767   14.5786  -24.1245 C   0  0  0  0  0  0  0  0  0  0  0  0
  -18.7141   14.8785  -24.9440 O   0  0  0  0  0  0  0  0  0  0  0  0
  -17.4035   15.3924  -23.0512 N   0  0  0  0  0  0  0  0  0  0  0  0
  -16.6119   15.0369  -22.4392 H   0  0  0  0  0  0  0  0  0  0  0  0
  -18.0107   16.6309  -22.7635 C   0  0  0  0  0  0  0  0  0  0  0  0
  -17.2992   17.5266  -21.9377 C   0  0  0  0  0  0  0  0  0  0  0  0
  -17.8065   18.7598  -21.6352 C   0  0  0  0  0  0  0  0  0  0  0  0
  -19.0207   19.2049  -22.1042 C   0  0  0  0  0  0  0  0  0  0  0  0
  -19.4580   20.5410  -21.7130 C   0  0  0  0  0  0  0  0  0  0  0  0
  -19.7212   18.3517  -22.9041 C   0  0  0  0  0  0  0  0  0  0  0  0
  -19.2138   17.0799  -23.2255 C   0  0  0  0  0  0  0  0  0  0  0  0
  -21.0291   18.7875  -23.4361 C   0  0  0  0  0  0  0  0  0  0  0  0
  -20.9154   19.8744  -24.2891 F   0  0  0  0  0  0  0  0  0  0  0  0
  -21.9733   19.0047  -22.4400 F   0  0  0  0  0  0  0  0  0  0  0  0
  -21.5348   17.7600  -24.2107 F   0  0  0  0  0  0  0  0  0  0  0  0
 25 26  1  0  0  0
 26 24  1  0  0  0
 24 22  1  0  0  0
 22 23  3  0  0  0
 23  1  1  0  0  0
  1  2  2  0  0  0
  2  3  1  0  0  0
  3  4  2  0  0  0
  4  5  1  0  0  0
  5  6  2  0  0  0
  6  7  1  0  0  0
  4  8  1  0  0  0
  8  9  1  0  0  0
  9 10  1  0  0  0
 10 11  1  0  0  0
 11 12  1  0  0  0
 12 13  1  0  0  0
 11 14  1  0  0  0
 14 15  2  0  0  0
 14 16  1  0  0  0
 16 17  1  0  0  0
 17 18  1  0  0  0
 18 19  1  0  0  0
 18 20  1  0  0  0
 18 21  1  0  0  0
 26 27  1  0  0  0
 27 28  2  0  0  0
 27 29  1  0  0  0
 29 31  1  0  0  0
 31 32  2  0  0  0
 32 33  1  0  0  0
 33 34  2  0  0  0
 34 35  1  0  0  0
 34 36  1  0  0  0
 36 37  2  0  0  0
 36 38  1  0  0  0
 38 39  1  0  0  0
 38 40  1  0  0  0
 38 41  1  0  0  0
  6  1  1  0  0  0
 13  8  1  0  0  0
 37 31  1  0  0  0
 29 30  1  0  0  0
M  END
> <minimizedAffinity>
-8.71471

> <CNNscore>
0.2010255456

> <CNNaffinity>
6.5940346718

> <CNN_VS>
1.3255693913

> <CNNaffinity_variance>
0.3079183996

$$$$
[H]c1c([H])c(C2([H])C([H])([H])C([H])([H])N(C(=O)C([H])([H])C([H])([H])C(C([H])([H])[H])(C([H])([H])[H])C([H])([H])[H])C([H])([H])C2([H])[H])c([H])c(F)c1C#CC([H])([H])N(C(=O)N([H])c1c([H])c([H])c(C([H])([H])[H])c(C(F)(F)F)c1[H])C([H])([H])[H]


 41 43  0  0  0  0  0  0  0  0999 V2000
  -16.9514   12.4206  -21.6694 C   0  0  0  0  0  0  0  0  0  0  0  0
  -18.0737   12.9982  -21.1299 C   0  0  0  0  0  0  0  0  0  0  0  0
  -18.7125   12.4379  -20.0611 C   0  0  0  0  0  0  0  0  0  0  0  0
  -18.2524   11.2786  -19.4919 C   0  0  0  0  0  0  0  0  0  0  0  0
  -17.1283   10.6866  -20.0212 C   0  0  0  0  0  0  0  0  0  0  0  0
  -16.4684   11.2571  -21.1180 C   0  0  0  0  0  0  0  0  0  0  0  0
  -15.3504   10.6430  -21.6223 F   0  0  0  0  0  0  0  0  0  0  0  0
  -18.9590   10.6997  -18.3399 C   0  0  0  0  0  0  0  0  0  0  0  0
  -19.1061   11.6236  -17.1645 C   0  0  0  0  0  0  0  0  0  0  0  0
  -20.1216   11.0023  -16.2381 C   0  0  0  0  0  0  0  0  0  0  0  0
  -19.8538    9.6158  -16.0509 N   0  0  0  0  0  0  0  0  0  0  0  0
  -18.7808    8.8662  -16.6453 C   0  0  0  0  0  0  0  0  0  0  0  0
  -18.2066    9.4680  -17.8903 C   0  0  0  0  0  0  0  0  0  0  0  0
  -20.7449    8.8720  -15.1871 C   0  0  0  0  0  0  0  0  0  0  0  0
  -21.7033    9.5573  -14.6912 O   0  0  0  0  0  0  0  0  0  0  0  0
  -20.5463    7.4568  -14.9258 C   0  0  0  0  0  0  0  0  0  0  0  0
  -21.5672    6.5254  -15.4234 C   0  0  0  0  0  0  0  0  0  0  0  0
  -21.5243    5.1014  -15.0648 C   0  0  0  0  0  0  0  0  0  0  0  0
  -21.5863    4.2572  -16.3684 C   0  0  0  0  0  0  0  0  0  0  0  0
  -20.1313    4.7307  -14.4931 C   0  0  0  0  0  0  0  0  0  0  0  0
  -22.5150    4.5220  -14.1430 C   0  0  0  0  0  0  0  0  0  0  0  0
  -15.6740   13.4870  -23.7169 C   0  0  0  0  0  0  0  0  0  0  0  0
  -16.2597   12.9878  -22.7884 C   0  0  0  0  0  0  0  0  0  0  0  0
  -14.9448   14.1266  -24.8430 C   0  0  0  0  0  0  0  0  0  0  0  0
  -15.7114   15.5622  -26.7337 C   0  0  0  0  0  0  0  0  0  0  0  0
  -15.6738   15.2629  -25.3252 N   0  0  0  0  0  0  0  0  0  0  0  0
  -16.3790   16.0998  -24.4150 C   0  0  0  0  0  0  0  0  0  0  0  0
  -17.0229   17.0728  -24.9432 O   0  0  0  0  0  0  0  0  0  0  0  0
  -16.3510   15.8522  -23.0398 N   0  0  0  0  0  0  0  0  0  0  0  0
  -15.7828   15.0140  -22.7201 H   0  0  0  0  0  0  0  0  0  0  0  0
  -17.0184   16.6507  -22.0897 C   0  0  0  0  0  0  0  0  0  0  0  0
  -16.2545   17.6178  -21.4029 C   0  0  0  0  0  0  0  0  0  0  0  0
  -16.8333   18.4516  -20.4868 C   0  0  0  0  0  0  0  0  0  0  0  0
  -18.1727   18.4075  -20.1762 C   0  0  0  0  0  0  0  0  0  0  0  0
  -18.6764   19.3484  -19.1810 C   0  0  0  0  0  0  0  0  0  0  0  0
  -18.9255   17.4787  -20.8313 C   0  0  0  0  0  0  0  0  0  0  0  0
  -18.3462   16.6136  -21.7768 C   0  0  0  0  0  0  0  0  0  0  0  0
  -20.3708   17.3965  -20.5344 C   0  0  0  0  0  0  0  0  0  0  0  0
  -21.0702   18.4938  -21.0126 F   0  0  0  0  0  0  0  0  0  0  0  0
  -20.6345   17.1565  -19.1915 F   0  0  0  0  0  0  0  0  0  0  0  0
  -20.8814   16.3066  -21.2146 F   0  0  0  0  0  0  0  0  0  0  0  0
 25 26  1  0  0  0
 26 24  1  0  0  0
 24 22  1  0  0  0
 22 23  3  0  0  0
 23  1  1  0  0  0
  1  2  2  0  0  0
  2  3  1  0  0  0
  3  4  2  0  0  0
  4  5  1  0  0  0
  5  6  2  0  0  0
  6  7  1  0  0  0
  4  8  1  0  0  0
  8  9  1  0  0  0
  9 10  1  0  0  0
 10 11  1  0  0  0
 11 12  1  0  0  0
 12 13  1  0  0  0
 11 14  1  0  0  0
 14 15  2  0  0  0
 14 16  1  0  0  0
 16 17  1  0  0  0
 17 18  1  0  0  0
 18 19  1  0  0  0
 18 20  1  0  0  0
 18 21  1  0  0  0
 26 27  1  0  0  0
 27 28  2  0  0  0
 27 29  1  0  0  0
 29 31  1  0  0  0
 31 32  2  0  0  0
 32 33  1  0  0  0
 33 34  2  0  0  0
 34 35  1  0  0  0
 34 36  1  0  0  0
 36 37  2  0  0  0
 36 38  1  0  0  0
 38 39  1  0  0  0
 38 40  1  0  0  0
 38 41  1  0  0  0
  6  1  1  0  0  0
 13  8  1  0  0  0
 37 31  1  0  0  0
 29 30  1  0  0  0
M  END
> <minimizedAffinity>
-9.08617

> <CNNscore>
0.1699551046

> <CNNaffinity>
7.2289533615

> <CNN_VS>
1.2285975218

> <CNNaffinity_variance>
0.1737946719

$$$$
[H]c1nc(N([H])[H])c2c(-c3c([H])c([H])c(C(=O)N([H])c4nc([H])c([H])c(C([H])(F)F)c4[H])c([H])c3OC([H])([H])[H])c([H])n(C3([H])C([H])([H])C3([H])[H])c2n1


 36 40  0  0  0  0  0  0  0  0999 V2000
  -20.8796   10.1270  -15.1811 C   0  0  0  0  0  0  0  0  0  0  0  0
  -20.2702   10.6709  -16.3174 C   0  0  0  0  0  0  0  0  0  0  0  0
  -19.2053   10.0220  -16.9086 C   0  0  0  0  0  0  0  0  0  0  0  0
  -18.7103    8.8357  -16.4127 C   0  0  0  0  0  0  0  0  0  0  0  0
  -19.3353    8.3314  -15.2948 C   0  0  0  0  0  0  0  0  0  0  0  0
  -20.3989    8.9494  -14.6777 C   0  0  0  0  0  0  0  0  0  0  0  0
  -20.9156    8.3501  -13.4707 C   0  0  0  0  0  0  0  0  0  0  0  0
  -21.8249    7.3030  -13.3706 C   0  0  0  0  0  0  0  0  0  0  0  0
  -22.1644    7.0712  -12.1003 N   0  0  0  0  0  0  0  0  0  0  0  0
  -21.4740    7.9658  -11.3671 C   0  0  0  0  0  0  0  0  0  0  0  0
  -21.4159    8.1864  -10.0485 N   0  0  0  0  0  0  0  0  0  0  0  0
  -20.6539    9.1250   -9.4838 C   0  0  0  0  0  0  0  0  0  0  0  0
  -19.9051    9.8885  -10.2771 N   0  0  0  0  0  0  0  0  0  0  0  0
  -19.8811    9.7587  -11.6272 C   0  0  0  0  0  0  0  0  0  0  0  0
  -19.0351   10.5764  -12.4208 N   0  0  0  0  0  0  0  0  0  0  0  0
  -20.6825    8.7800  -12.1833 C   0  0  0  0  0  0  0  0  0  0  0  0
  -18.2618   10.1127  -12.9856 H   0  0  0  0  0  0  0  0  0  0  0  0
  -19.0969   11.5953  -12.5049 H   0  0  0  0  0  0  0  0  0  0  0  0
  -23.0926    6.0784  -11.5736 C   0  0  0  0  0  0  0  0  0  0  0  0
  -22.4570    4.7811  -11.2192 C   0  0  0  0  0  0  0  0  0  0  0  0
  -23.3588    4.8885  -12.4277 C   0  0  0  0  0  0  0  0  0  0  0  0
  -18.5894   10.5777  -18.1106 C   0  0  0  0  0  0  0  0  0  0  0  0
  -19.0286   11.6441  -18.6027 O   0  0  0  0  0  0  0  0  0  0  0  0
  -17.4937    9.9321  -18.7436 N   0  0  0  0  0  0  0  0  0  0  0  0
  -17.1215    9.0390  -18.3291 H   0  0  0  0  0  0  0  0  0  0  0  0
  -16.9072   10.4641  -19.9157 C   0  0  0  0  0  0  0  0  0  0  0  0
  -17.4235   11.5819  -20.5116 C   0  0  0  0  0  0  0  0  0  0  0  0
  -16.8260   12.1075  -21.6628 C   0  0  0  0  0  0  0  0  0  0  0  0
  -15.7159   11.4902  -22.1892 C   0  0  0  0  0  0  0  0  0  0  0  0
  -15.2310   10.3660  -21.5541 C   0  0  0  0  0  0  0  0  0  0  0  0
  -15.8293    9.8776  -20.4394 N   0  0  0  0  0  0  0  0  0  0  0  0
  -17.3967   13.3123  -22.3044 C   0  0  0  0  0  0  0  0  0  0  0  0
  -18.5555   13.7281  -21.6901 F   0  0  0  0  0  0  0  0  0  0  0  0
  -17.6884   13.0816  -23.6445 F   0  0  0  0  0  0  0  0  0  0  0  0
  -23.2859   10.5972  -14.8176 C   0  0  0  0  0  0  0  0  0  0  0  0
  -21.9301   10.7686  -14.5982 O   0  0  0  0  0  0  0  0  0  0  0  0
 35 36  1  0  0  0
 36  1  1  0  0  0
  1  2  2  0  0  0
  2  3  1  0  0  0
  3  4  2  0  0  0
  4  5  1  0  0  0
  5  6  2  0  0  0
  6  7  1  0  0  0
  7  8  2  0  0  0
  8  9  1  0  0  0
  9 19  1  0  0  0
 19 20  1  0  0  0
 20 21  1  0  0  0
  9 10  1  0  0  0
 10 11  2  0  0  0
 11 12  1  0  0  0
 12 13  2  0  0  0
 13 14  1  0  0  0
 14 15  1  0  0  0
 14 16  2  0  0  0
  3 22  1  0  0  0
 22 23  2  0  0  0
 22 24  1  0  0  0
 24 26  1  0  0  0
 26 27  2  0  0  0
 27 28  1  0  0  0
 28 29  2  0  0  0
 29 30  1  0  0  0
 30 31  2  0  0  0
 28 32  1  0  0  0
 32 33  1  0  0  0
 32 34  1  0  0  0
  6  1  1  0  0  0
 16  7  1  0  0  0
 31 26  1  0  0  0
 21 19  1  0  0  0
 16 10  1  0  0  0
 15 17  1  0  0  0
 15 18  1  0  0  0
 24 25  1  0  0  0
M  END
> <minimizedAffinity>
-7.55867

> <CNNscore>
0.5280009508

> <CNNaffinity>
6.3488454819

> <CNN_VS>
3.3521964550

> <CNNaffinity_variance>
0.1804714054

$$$$
[H]c1nc(N([H])[H])c2c(-c3c([H])c([H])c(C(=O)N([H])c4nc([H])c([H])c(C([H])(F)F)c4[H])c([H])c3OC([H])([H])[H])c([H])n(C3([H])C([H])([H])C3([H])[H])c2n1


 36 40  0  0  0  0  0  0  0  0999 V2000
  -18.3007   13.8025  -18.5899 C   0  0  0  0  0  0  0  0  0  0  0  0
  -17.6177   14.3779  -19.6673 C   0  0  0  0  0  0  0  0  0  0  0  0
  -17.6558   13.7784  -20.9098 C   0  0  0  0  0  0  0  0  0  0  0  0
  -18.3547   12.6124  -21.1337 C   0  0  0  0  0  0  0  0  0  0  0  0
  -19.0140   12.0765  -20.0508 C   0  0  0  0  0  0  0  0  0  0  0  0
  -18.9992   12.6448  -18.7974 C   0  0  0  0  0  0  0  0  0  0  0  0
  -19.6740   11.9413  -17.7332 C   0  0  0  0  0  0  0  0  0  0  0  0
  -20.7539   12.3866  -16.9788 C   0  0  0  0  0  0  0  0  0  0  0  0
  -21.0592   11.5237  -16.0069 N   0  0  0  0  0  0  0  0  0  0  0  0
  -20.1800   10.5102  -16.1268 C   0  0  0  0  0  0  0  0  0  0  0  0
  -20.0232    9.3760  -15.4341 N   0  0  0  0  0  0  0  0  0  0  0  0
  -19.0893    8.4620  -15.7042 C   0  0  0  0  0  0  0  0  0  0  0  0
  -18.2636    8.6888  -16.7239 N   0  0  0  0  0  0  0  0  0  0  0  0
  -18.3255    9.8015  -17.4973 C   0  0  0  0  0  0  0  0  0  0  0  0
  -17.4424    9.9734  -18.5949 N   0  0  0  0  0  0  0  0  0  0  0  0
  -19.3011   10.7312  -17.1918 C   0  0  0  0  0  0  0  0  0  0  0  0
  -17.8522   10.0251  -19.5754 H   0  0  0  0  0  0  0  0  0  0  0  0
  -16.4232   10.0540  -18.5345 H   0  0  0  0  0  0  0  0  0  0  0  0
  -22.1065   11.6234  -14.9980 C   0  0  0  0  0  0  0  0  0  0  0  0
  -22.3249   13.0021  -14.4843 C   0  0  0  0  0  0  0  0  0  0  0  0
  -21.6742   11.9527  -13.6120 C   0  0  0  0  0  0  0  0  0  0  0  0
  -16.9650   14.3962  -22.0386 C   0  0  0  0  0  0  0  0  0  0  0  0
  -16.8677   15.6446  -22.1052 O   0  0  0  0  0  0  0  0  0  0  0  0
  -16.3954   13.6091  -23.0750 N   0  0  0  0  0  0  0  0  0  0  0  0
  -16.4729   12.5608  -23.0181 H   0  0  0  0  0  0  0  0  0  0  0  0
  -15.7389   14.2094  -24.1747 C   0  0  0  0  0  0  0  0  0  0  0  0
  -16.3877   14.3864  -25.3659 C   0  0  0  0  0  0  0  0  0  0  0  0
  -15.7324   14.9945  -26.4426 C   0  0  0  0  0  0  0  0  0  0  0  0
  -14.4310   15.4122  -26.2922 C   0  0  0  0  0  0  0  0  0  0  0  0
  -13.8179   15.2127  -25.0729 C   0  0  0  0  0  0  0  0  0  0  0  0
  -14.4763   14.6207  -24.0457 N   0  0  0  0  0  0  0  0  0  0  0  0
  -16.4401   15.1742  -27.7293 C   0  0  0  0  0  0  0  0  0  0  0  0
  -16.9268   13.9865  -28.2244 F   0  0  0  0  0  0  0  0  0  0  0  0
  -15.6029   15.7228  -28.6948 F   0  0  0  0  0  0  0  0  0  0  0  0
  -18.7071   15.6504  -16.9889 C   0  0  0  0  0  0  0  0  0  0  0  0
  -18.2620   14.3948  -17.3641 O   0  0  0  0  0  0  0  0  0  0  0  0
 35 36  1  0  0  0
 36  1  1  0  0  0
  1  2  2  0  0  0
  2  3  1  0  0  0
  3  4  2  0  0  0
  4  5  1  0  0  0
  5  6  2  0  0  0
  6  7  1  0  0  0
  7  8  2  0  0  0
  8  9  1  0  0  0
  9 19  1  0  0  0
 19 20  1  0  0  0
 20 21  1  0  0  0
  9 10  1  0  0  0
 10 11  2  0  0  0
 11 12  1  0  0  0
 12 13  2  0  0  0
 13 14  1  0  0  0
 14 15  1  0  0  0
 14 16  2  0  0  0
  3 22  1  0  0  0
 22 23  2  0  0  0
 22 24  1  0  0  0
 24 26  1  0  0  0
 26 27  2  0  0  0
 27 28  1  0  0  0
 28 29  2  0  0  0
 29 30  1  0  0  0
 30 31  2  0  0  0
 28 32  1  0  0  0
 32 33  1  0  0  0
 32 34  1  0  0  0
  6  1  1  0  0  0
 16  7  1  0  0  0
 31 26  1  0  0  0
 21 19  1  0  0  0
 16 10  1  0  0  0
 15 17  1  0  0  0
 15 18  1  0  0  0
 24 25  1  0  0  0
M  END
> <minimizedAffinity>
-9.70501

> <CNNscore>
0.3135364354

> <CNNaffinity>
6.7860550880

> <CNN_VS>
2.1276755333

> <CNNaffinity_variance>
0.1192799658

$$$$
[H]c1nc(N([H])[H])c2c(-c3c([H])c([H])c(C(=O)N([H])c4nc([H])c([H])c(C([H])(F)F)c4[H])c([H])c3OC([H])([H])[H])c([H])n(C3([H])C([H])([H])C3([H])[H])c2n1


 36 40  0  0  0  0  0  0  0  0999 V2000
  -18.6831   15.2891  -19.5309 C   0  0  0  0  0  0  0  0  0  0  0  0
  -19.6521   15.8290  -18.6778 C   0  0  0  0  0  0  0  0  0  0  0  0
  -20.9032   15.2517  -18.5990 C   0  0  0  0  0  0  0  0  0  0  0  0
  -21.2404   14.1421  -19.3429 C   0  0  0  0  0  0  0  0  0  0  0  0
  -20.2618   13.6392  -20.1699 C   0  0  0  0  0  0  0  0  0  0  0  0
  -19.0037   14.1871  -20.2755 C   0  0  0  0  0  0  0  0  0  0  0  0
  -18.0957   13.6042  -21.2340 C   0  0  0  0  0  0  0  0  0  0  0  0
  -17.9311   13.9630  -22.5672 C   0  0  0  0  0  0  0  0  0  0  0  0
  -17.0807   13.1448  -23.1914 N   0  0  0  0  0  0  0  0  0  0  0  0
  -16.6853   12.2505  -22.2649 C   0  0  0  0  0  0  0  0  0  0  0  0
  -15.8391   11.2156  -22.3251 N   0  0  0  0  0  0  0  0  0  0  0  0
  -15.5504   10.4288  -21.2867 C   0  0  0  0  0  0  0  0  0  0  0  0
  -16.1372   10.6871  -20.1197 N   0  0  0  0  0  0  0  0  0  0  0  0
  -17.0123   11.7074  -19.9373 C   0  0  0  0  0  0  0  0  0  0  0  0
  -17.5798   11.9585  -18.6609 N   0  0  0  0  0  0  0  0  0  0  0  0
  -17.2936   12.5033  -21.0314 C   0  0  0  0  0  0  0  0  0  0  0  0
  -17.3635   12.8824  -18.1799 H   0  0  0  0  0  0  0  0  0  0  0  0
  -18.1923   11.3210  -18.1437 H   0  0  0  0  0  0  0  0  0  0  0  0
  -16.6519   13.1690  -24.5844 C   0  0  0  0  0  0  0  0  0  0  0  0
  -17.2913   14.2378  -25.3976 C   0  0  0  0  0  0  0  0  0  0  0  0
  -17.6659   12.7880  -25.6056 C   0  0  0  0  0  0  0  0  0  0  0  0
  -21.9031   15.8006  -17.6870 C   0  0  0  0  0  0  0  0  0  0  0  0
  -22.3132   16.9755  -17.8419 O   0  0  0  0  0  0  0  0  0  0  0  0
  -22.4276   15.0283  -16.6162 N   0  0  0  0  0  0  0  0  0  0  0  0
  -22.0872   14.0406  -16.4876 H   0  0  0  0  0  0  0  0  0  0  0  0
  -23.3858   15.5660  -15.7253 C   0  0  0  0  0  0  0  0  0  0  0  0
  -23.0115   16.0430  -14.4991 C   0  0  0  0  0  0  0  0  0  0  0  0
  -23.9664   16.5858  -13.6319 C   0  0  0  0  0  0  0  0  0  0  0  0
  -25.2835   16.6351  -14.0235 C   0  0  0  0  0  0  0  0  0  0  0  0
  -25.6135   16.1424  -15.2687 C   0  0  0  0  0  0  0  0  0  0  0  0
  -24.6680   15.6218  -16.0897 N   0  0  0  0  0  0  0  0  0  0  0  0
  -23.5527   17.0918  -12.3046 C   0  0  0  0  0  0  0  0  0  0  0  0
  -22.3105   17.6822  -12.3380 F   0  0  0  0  0  0  0  0  0  0  0  0
  -23.5087   16.0681  -11.3643 F   0  0  0  0  0  0  0  0  0  0  0  0
  -17.0411   16.9563  -20.3479 C   0  0  0  0  0  0  0  0  0  0  0  0
  -17.4490   15.8599  -19.6082 O   0  0  0  0  0  0  0  0  0  0  0  0
 35 36  1  0  0  0
 36  1  1  0  0  0
  1  2  2  0  0  0
  2  3  1  0  0  0
  3  4  2  0  0  0
  4  5  1  0  0  0
  5  6  2  0  0  0
  6  7  1  0  0  0
  7  8  2  0  0  0
  8  9  1  0  0  0
  9 19  1  0  0  0
 19 20  1  0  0  0
 20 21  1  0  0  0
  9 10  1  0  0  0
 10 11  2  0  0  0
 11 12  1  0  0  0
 12 13  2  0  0  0
 13 14  1  0  0  0
 14 15  1  0  0  0
 14 16  2  0  0  0
  3 22  1  0  0  0
 22 23  2  0  0  0
 22 24  1  0  0  0
 24 26  1  0  0  0
 26 27  2  0  0  0
 27 28  1  0  0  0
 28 29  2  0  0  0
 29 30  1  0  0  0
 30 31  2  0  0  0
 28 32  1  0  0  0
 32 33  1  0  0  0
 32 34  1  0  0  0
  6  1  1  0  0  0
 16  7  1  0  0  0
 31 26  1  0  0  0
 21 19  1  0  0  0
 16 10  1  0  0  0
 15 17  1  0  0  0
 15 18  1  0  0  0
 24 25  1  0  0  0
M  END
> <minimizedAffinity>
-7.52552

> <CNNscore>
0.2999740243

> <CNNaffinity>
6.7009439468

> <CNN_VS>
2.0101091862

> <CNNaffinity_variance>
0.4971017241

$$$$
[H]c1nc(N([H])[H])c2c(-c3c([H])c([H])c(C(=O)N([H])c4nc([H])c([H])c(C([H])(F)F)c4[H])c([H])c3OC([H])([H])[H])c([H])n(C3([H])C([H])([H])C3([H])[H])c2n1


 36 40  0  0  0  0  0  0  0  0999 V2000
  -18.0213   16.1100  -19.3933 C   0  0  0  0  0  0  0  0  0  0  0  0
  -18.7073   16.9561  -18.5148 C   0  0  0  0  0  0  0  0  0  0  0  0
  -19.9944   16.6490  -18.1227 C   0  0  0  0  0  0  0  0  0  0  0  0
  -20.6416   15.5188  -18.5721 C   0  0  0  0  0  0  0  0  0  0  0  0
  -19.9353   14.7110  -19.4340 C   0  0  0  0  0  0  0  0  0  0  0  0
  -18.6513   14.9840  -19.8476 C   0  0  0  0  0  0  0  0  0  0  0  0
  -18.0516   14.0909  -20.8097 C   0  0  0  0  0  0  0  0  0  0  0  0
  -17.9448   14.2783  -22.1833 C   0  0  0  0  0  0  0  0  0  0  0  0
  -17.4275   13.2040  -22.7838 N   0  0  0  0  0  0  0  0  0  0  0  0
  -17.1921   12.3127  -21.8016 C   0  0  0  0  0  0  0  0  0  0  0  0
  -16.6751   11.0785  -21.8194 N   0  0  0  0  0  0  0  0  0  0  0  0
  -16.4996   10.3293  -20.7292 C   0  0  0  0  0  0  0  0  0  0  0  0
  -16.8584   10.8379  -19.5521 N   0  0  0  0  0  0  0  0  0  0  0  0
  -17.3933   12.0764  -19.4092 C   0  0  0  0  0  0  0  0  0  0  0  0
  -17.7235   12.5814  -18.1247 N   0  0  0  0  0  0  0  0  0  0  0  0
  -17.5655   12.8275  -20.5562 C   0  0  0  0  0  0  0  0  0  0  0  0
  -17.2092   13.4416  -17.7677 H   0  0  0  0  0  0  0  0  0  0  0  0
  -18.4257   12.1887  -17.4909 H   0  0  0  0  0  0  0  0  0  0  0  0
  -17.1671   12.9919  -24.2022 C   0  0  0  0  0  0  0  0  0  0  0  0
  -16.0237   13.7808  -24.7339 C   0  0  0  0  0  0  0  0  0  0  0  0
  -17.4432   14.1359  -25.1138 C   0  0  0  0  0  0  0  0  0  0  0  0
  -20.6976   17.5193  -17.1839 C   0  0  0  0  0  0  0  0  0  0  0  0
  -21.9497   17.4905  -17.1217 O   0  0  0  0  0  0  0  0  0  0  0  0
  -19.9903   18.4082  -16.3308 N   0  0  0  0  0  0  0  0  0  0  0  0
  -18.9391   18.4303  -16.3791 H   0  0  0  0  0  0  0  0  0  0  0  0
  -20.6734   19.2604  -15.4320 C   0  0  0  0  0  0  0  0  0  0  0  0
  -20.6994   18.9880  -14.0917 C   0  0  0  0  0  0  0  0  0  0  0  0
  -21.3663   19.8462  -13.2102 C   0  0  0  0  0  0  0  0  0  0  0  0
  -21.9951   20.9651  -13.7034 C   0  0  0  0  0  0  0  0  0  0  0  0
  -21.9421   21.1986  -15.0617 C   0  0  0  0  0  0  0  0  0  0  0  0
  -21.2885   20.3505  -15.8938 N   0  0  0  0  0  0  0  0  0  0  0  0
  -21.3954   19.5386  -11.7633 C   0  0  0  0  0  0  0  0  0  0  0  0
  -20.4738   18.5770  -11.4184 F   0  0  0  0  0  0  0  0  0  0  0  0
  -22.6487   19.0835  -11.3680 F   0  0  0  0  0  0  0  0  0  0  0  0
  -16.2889   17.5351  -20.4477 C   0  0  0  0  0  0  0  0  0  0  0  0
  -16.7513   16.4144  -19.7799 O   0  0  0  0  0  0  0  0  0  0  0  0
 35 36  1  0  0  0
 36  1  1  0  0  0
  1  2  2  0  0  0
  2  3  1  0  0  0
  3  4  2  0  0  0
  4  5  1  0  0  0
  5  6  2  0  0  0
  6  7  1  0  0  0
  7  8  2  0  0  0
  8  9  1  0  0  0
  9 19  1  0  0  0
 19 20  1  0  0  0
 20 21  1  0  0  0
  9 10  1  0  0  0
 10 11  2  0  0  0
 11 12  1  0  0  0
 12 13  2  0  0  0
 13 14  1  0  0  0
 14 15  1  0  0  0
 14 16  2  0  0  0
  3 22  1  0  0  0
 22 23  2  0  0  0
 22 24  1  0  0  0
 24 26  1  0  0  0
 26 27  2  0  0  0
 27 28  1  0  0  0
 28 29  2  0  0  0
 29 30  1  0  0  0
 30 31  2  0  0  0
 28 32  1  0  0  0
 32 33  1  0  0  0
 32 34  1  0  0  0
  6  1  1  0  0  0
 16  7  1  0  0  0
 31 26  1  0  0  0
 21 19  1  0  0  0
 16 10  1  0  0  0
 15 17  1  0  0  0
 15 18  1  0  0  0
 24 25  1  0  0  0
M  END
> <minimizedAffinity>
-7.19890

> <CNNscore>
0.1820513308

> <CNNaffinity>
6.6067247391

> <CNN_VS>
1.2027630806

> <CNNaffinity_variance>
0.3357103467

$$$$
[H]c1nc(N([H])[H])c2c(-c3c([H])c([H])c(C(=O)N([H])c4nc([H])c([H])c(C([H])(F)F)c4[H])c([H])c3OC([H])([H])[H])c([H])n(C3([H])C([H])([H])C3([H])[H])c2n1


 36 40  0  0  0  0  0  0  0  0999 V2000
  -18.4990   13.6662  -18.1195 C   0  0  0  0  0  0  0  0  0  0  0  0
  -17.9996   14.1474  -19.3350 C   0  0  0  0  0  0  0  0  0  0  0  0
  -18.2220   13.4437  -20.5012 C   0  0  0  0  0  0  0  0  0  0  0  0
  -18.9314   12.2626  -20.5139 C   0  0  0  0  0  0  0  0  0  0  0  0
  -19.4072   11.8213  -19.3001 C   0  0  0  0  0  0  0  0  0  0  0  0
  -19.2056   12.4949  -18.1170 C   0  0  0  0  0  0  0  0  0  0  0  0
  -19.6973   11.8849  -16.9049 C   0  0  0  0  0  0  0  0  0  0  0  0
  -20.5264   12.4588  -15.9474 C   0  0  0  0  0  0  0  0  0  0  0  0
  -20.6981   11.6474  -14.9011 N   0  0  0  0  0  0  0  0  0  0  0  0
  -19.9829   10.5393  -15.1751 C   0  0  0  0  0  0  0  0  0  0  0  0
  -19.7987    9.4027  -14.4931 N   0  0  0  0  0  0  0  0  0  0  0  0
  -19.0535    8.3854  -14.9292 C   0  0  0  0  0  0  0  0  0  0  0  0
  -18.4572    8.5051  -16.1138 N   0  0  0  0  0  0  0  0  0  0  0  0
  -18.5698    9.6087  -16.8946 C   0  0  0  0  0  0  0  0  0  0  0  0
  -17.9413    9.6664  -18.1658 N   0  0  0  0  0  0  0  0  0  0  0  0
  -19.3458   10.6467  -16.4153 C   0  0  0  0  0  0  0  0  0  0  0  0
  -18.5519    9.7530  -19.0327 H   0  0  0  0  0  0  0  0  0  0  0  0
  -16.9317    9.6314  -18.3350 H   0  0  0  0  0  0  0  0  0  0  0  0
  -21.4761   11.8771  -13.6901 C   0  0  0  0  0  0  0  0  0  0  0  0
  -22.9388   11.6666  -13.8595 C   0  0  0  0  0  0  0  0  0  0  0  0
  -22.3794   13.0604  -13.6869 C   0  0  0  0  0  0  0  0  0  0  0  0
  -17.7235   13.9627  -21.7720 C   0  0  0  0  0  0  0  0  0  0  0  0
  -17.5437   15.1951  -21.9171 O   0  0  0  0  0  0  0  0  0  0  0  0
  -17.4350   13.0962  -22.8602 N   0  0  0  0  0  0  0  0  0  0  0  0
  -17.5816   12.0610  -22.7383 H   0  0  0  0  0  0  0  0  0  0  0  0
  -16.9654   13.6017  -24.0951 C   0  0  0  0  0  0  0  0  0  0  0  0
  -15.6724   14.0268  -24.2313 C   0  0  0  0  0  0  0  0  0  0  0  0
  -15.2151   14.5116  -25.4618 C   0  0  0  0  0  0  0  0  0  0  0  0
  -16.0771   14.5569  -26.5321 C   0  0  0  0  0  0  0  0  0  0  0  0
  -17.3714   14.1175  -26.3473 C   0  0  0  0  0  0  0  0  0  0  0  0
  -17.7885   13.6521  -25.1438 N   0  0  0  0  0  0  0  0  0  0  0  0
  -13.8171   14.9765  -25.5968 C   0  0  0  0  0  0  0  0  0  0  0  0
  -13.1842   15.0789  -24.3795 F   0  0  0  0  0  0  0  0  0  0  0  0
  -13.7555   16.2226  -26.2111 F   0  0  0  0  0  0  0  0  0  0  0  0
  -18.4083   15.7189  -16.7333 C   0  0  0  0  0  0  0  0  0  0  0  0
  -18.2784   14.3613  -16.9693 O   0  0  0  0  0  0  0  0  0  0  0  0
 35 36  1  0  0  0
 36  1  1  0  0  0
  1  2  2  0  0  0
  2  3  1  0  0  0
  3  4  2  0  0  0
  4  5  1  0  0  0
  5  6  2  0  0  0
  6  7  1  0  0  0
  7  8  2  0  0  0
  8  9  1  0  0  0
  9 19  1  0  0  0
 19 20  1  0  0  0
 20 21  1  0  0  0
  9 10  1  0  0  0
 10 11  2  0  0  0
 11 12  1  0  0  0
 12 13  2  0  0  0
 13 14  1  0  0  0
 14 15  1  0  0  0
 14 16  2  0  0  0
  3 22  1  0  0  0
 22 23  2  0  0  0
 22 24  1  0  0  0
 24 26  1  0  0  0
 26 27  2  0  0  0
 27 28  1  0  0  0
 28 29  2  0  0  0
 29 30  1  0  0  0
 30 31  2  0  0  0
 28 32  1  0  0  0
 32 33  1  0  0  0
 32 34  1  0  0  0
  6  1  1  0  0  0
 16  7  1  0  0  0
 31 26  1  0  0  0
 21 19  1  0  0  0
 16 10  1  0  0  0
 15 17  1  0  0  0
 15 18  1  0  0  0
 24 25  1  0  0  0
M  END
> <minimizedAffinity>
-8.17226

> <CNNscore>
0.1123935655

> <CNNaffinity>
6.4389829636

> <CNN_VS>
0.7237002254

> <CNNaffinity_variance>
0.1203463301

$$$$
[H]c1nc(N([H])[H])c2c(-c3c([H])c([H])c(C(=O)N([H])c4nc([H])c([H])c(C([H])(F)F)c4[H])c([H])c3OC([H])([H])[H])c([H])n(C3([H])C([H])([H])C3([H])[H])c2n1


 36 40  0  0  0  0  0  0  0  0999 V2000
  -18.5806   14.3835  -18.4351 C   0  0  0  0  0  0  0  0  0  0  0  0
  -18.9024   13.6385  -17.2950 C   0  0  0  0  0  0  0  0  0  0  0  0
  -19.4427   12.3751  -17.4243 C   0  0  0  0  0  0  0  0  0  0  0  0
  -19.6814   11.8088  -18.6574 C   0  0  0  0  0  0  0  0  0  0  0  0
  -19.3518   12.5710  -19.7551 C   0  0  0  0  0  0  0  0  0  0  0  0
  -18.8119   13.8338  -19.6662 C   0  0  0  0  0  0  0  0  0  0  0  0
  -18.5792   14.5526  -20.8959 C   0  0  0  0  0  0  0  0  0  0  0  0
  -19.1492   15.7581  -21.2898 C   0  0  0  0  0  0  0  0  0  0  0  0
  -18.7912   16.0838  -22.5340 N   0  0  0  0  0  0  0  0  0  0  0  0
  -17.9829   15.0917  -22.9546 C   0  0  0  0  0  0  0  0  0  0  0  0
  -17.3303   14.8980  -24.1068 N   0  0  0  0  0  0  0  0  0  0  0  0
  -16.5488   13.8444  -24.3514 C   0  0  0  0  0  0  0  0  0  0  0  0
  -16.4073   12.9304  -23.3936 N   0  0  0  0  0  0  0  0  0  0  0  0
  -17.0188   13.0183  -22.1859 C   0  0  0  0  0  0  0  0  0  0  0  0
  -16.8024   12.0321  -21.1885 N   0  0  0  0  0  0  0  0  0  0  0  0
  -17.8238   14.1190  -21.9627 C   0  0  0  0  0  0  0  0  0  0  0  0
  -16.3365   12.3227  -20.2772 H   0  0  0  0  0  0  0  0  0  0  0  0
  -17.0565   11.0426  -21.2618 H   0  0  0  0  0  0  0  0  0  0  0  0
  -19.1799   17.2507  -23.3164 C   0  0  0  0  0  0  0  0  0  0  0  0
  -18.4790   18.5035  -22.9267 C   0  0  0  0  0  0  0  0  0  0  0  0
  -19.9436   18.3120  -22.6046 C   0  0  0  0  0  0  0  0  0  0  0  0
  -19.7515   11.5891  -16.2327 C   0  0  0  0  0  0  0  0  0  0  0  0
  -19.7132   10.3367  -16.2822 O   0  0  0  0  0  0  0  0  0  0  0  0
  -20.0991   12.2152  -15.0059 N   0  0  0  0  0  0  0  0  0  0  0  0
  -20.1276   13.2665  -14.9620 H   0  0  0  0  0  0  0  0  0  0  0  0
  -20.4115   11.4523  -13.8564 C   0  0  0  0  0  0  0  0  0  0  0  0
  -19.4347   11.0899  -12.9699 C   0  0  0  0  0  0  0  0  0  0  0  0
  -19.7580   10.3473  -11.8287 C   0  0  0  0  0  0  0  0  0  0  0  0
  -21.0658    9.9853  -11.6069 C   0  0  0  0  0  0  0  0  0  0  0  0
  -22.0161   10.3733  -12.5281 C   0  0  0  0  0  0  0  0  0  0  0  0
  -21.6755   11.0931  -13.6258 N   0  0  0  0  0  0  0  0  0  0  0  0
  -18.6932    9.9534  -10.8801 C   0  0  0  0  0  0  0  0  0  0  0  0
  -18.3732    8.6194  -10.9834 F   0  0  0  0  0  0  0  0  0  0  0  0
  -19.0728   10.1961   -9.5644 F   0  0  0  0  0  0  0  0  0  0  0  0
  -18.5725   16.7398  -17.6663 C   0  0  0  0  0  0  0  0  0  0  0  0
  -18.0480   15.6304  -18.3063 O   0  0  0  0  0  0  0  0  0  0  0  0
 35 36  1  0  0  0
 36  1  1  0  0  0
  1  2  2  0  0  0
  2  3  1  0  0  0
  3  4  2  0  0  0
  4  5  1  0  0  0
  5  6  2  0  0  0
  6  7  1  0  0  0
  7  8  2  0  0  0
  8  9  1  0  0  0
  9 19  1  0  0  0
 19 20  1  0  0  0
 20 21  1  0  0  0
  9 10  1  0  0  0
 10 11  2  0  0  0
 11 12  1  0  0  0
 12 13  2  0  0  0
 13 14  1  0  0  0
 14 15  1  0  0  0
 14 16  2  0  0  0
  3 22  1  0  0  0
 22 23  2  0  0  0
 22 24  1  0  0  0
 24 26  1  0  0  0
 26 27  2  0  0  0
 27 28  1  0  0  0
 28 29  2  0  0  0
 29 30  1  0  0  0
 30 31  2  0  0  0
 28 32  1  0  0  0
 32 33  1  0  0  0
 32 34  1  0  0  0
  6  1  1  0  0  0
 16  7  1  0  0  0
 31 26  1  0  0  0
 21 19  1  0  0  0
 16 10  1  0  0  0
 15 17  1  0  0  0
 15 18  1  0  0  0
 24 25  1  0  0  0
M  END
> <minimizedAffinity>
-7.23269

> <CNNscore>
0.0966011360

> <CNNaffinity>
6.3806538582

> <CNN_VS>
0.6163784266

> <CNNaffinity_variance>
0.5540782213

$$$$
[H]c1nc(N([H])[H])c2c(-c3c([H])c([H])c(C(=O)N([H])c4nc([H])c([H])c(C([H])(F)F)c4[H])c([H])c3OC([H])([H])[H])c([H])n(C3([H])C([H])([H])C3([H])[H])c2n1


 36 40  0  0  0  0  0  0  0  0999 V2000
  -17.7653   12.0084  -19.4319 C   0  0  0  0  0  0  0  0  0  0  0  0
  -18.3591   11.6093  -18.2293 C   0  0  0  0  0  0  0  0  0  0  0  0
  -19.5817   12.1293  -17.8557 C   0  0  0  0  0  0  0  0  0  0  0  0
  -20.2526   13.0440  -18.6376 C   0  0  0  0  0  0  0  0  0  0  0  0
  -19.6379   13.4121  -19.8128 C   0  0  0  0  0  0  0  0  0  0  0  0
  -18.4201   12.9159  -20.2187 C   0  0  0  0  0  0  0  0  0  0  0  0
  -17.8544   13.4398  -21.4387 C   0  0  0  0  0  0  0  0  0  0  0  0
  -17.6797   12.7692  -22.6442 C   0  0  0  0  0  0  0  0  0  0  0  0
  -17.0290   13.5239  -23.5327 N   0  0  0  0  0  0  0  0  0  0  0  0
  -16.7799   14.6917  -22.9092 C   0  0  0  0  0  0  0  0  0  0  0  0
  -16.1708   15.8111  -23.3178 N   0  0  0  0  0  0  0  0  0  0  0  0
  -16.0209   16.8970  -22.5569 C   0  0  0  0  0  0  0  0  0  0  0  0
  -16.5061   16.8682  -21.3172 N   0  0  0  0  0  0  0  0  0  0  0  0
  -17.1420   15.7909  -20.7926 C   0  0  0  0  0  0  0  0  0  0  0  0
  -17.6717   15.8297  -19.4765 N   0  0  0  0  0  0  0  0  0  0  0  0
  -17.2798   14.6804  -21.6033 C   0  0  0  0  0  0  0  0  0  0  0  0
  -18.7233   15.7324  -19.3474 H   0  0  0  0  0  0  0  0  0  0  0  0
  -17.1273   15.9458  -18.6168 H   0  0  0  0  0  0  0  0  0  0  0  0
  -16.6379   13.1900  -24.8966 C   0  0  0  0  0  0  0  0  0  0  0  0
  -17.3225   13.9999  -25.9397 C   0  0  0  0  0  0  0  0  0  0  0  0
  -17.6697   12.5407  -25.7509 C   0  0  0  0  0  0  0  0  0  0  0  0
  -20.2119   11.6897  -16.6136 C   0  0  0  0  0  0  0  0  0  0  0  0
  -19.6567   10.8167  -15.9052 O   0  0  0  0  0  0  0  0  0  0  0  0
  -21.4527   12.2321  -16.1841 N   0  0  0  0  0  0  0  0  0  0  0  0
  -21.9178   12.9680  -16.7758 H   0  0  0  0  0  0  0  0  0  0  0  0
  -22.0687   11.7954  -14.9880 C   0  0  0  0  0  0  0  0  0  0  0  0
  -22.8141   10.6487  -14.9626 C   0  0  0  0  0  0  0  0  0  0  0  0
  -23.4069   10.2189  -13.7700 C   0  0  0  0  0  0  0  0  0  0  0  0
  -23.2334   10.9596  -12.6246 C   0  0  0  0  0  0  0  0  0  0  0  0
  -22.4737   12.1083  -12.6986 C   0  0  0  0  0  0  0  0  0  0  0  0
  -21.9101   12.5020  -13.8675 N   0  0  0  0  0  0  0  0  0  0  0  0
  -24.2178    8.9816  -13.7547 C   0  0  0  0  0  0  0  0  0  0  0  0
  -24.7259    8.7093  -12.5055 F   0  0  0  0  0  0  0  0  0  0  0  0
  -23.4683    7.8806  -14.1550 F   0  0  0  0  0  0  0  0  0  0  0  0
  -16.2497   10.2148  -20.2253 C   0  0  0  0  0  0  0  0  0  0  0  0
  -16.5585   11.4950  -19.7992 O   0  0  0  0  0  0  0  0  0  0  0  0
 35 36  1  0  0  0
 36  1  1  0  0  0
  1  2  2  0  0  0
  2  3  1  0  0  0
  3  4  2  0  0  0
  4  5  1  0  0  0
  5  6  2  0  0  0
  6  7  1  0  0  0
  7  8  2  0  0  0
  8  9  1  0  0  0
  9 19  1  0  0  0
 19 20  1  0  0  0
 20 21  1  0  0  0
  9 10  1  0  0  0
 10 11  2  0  0  0
 11 12  1  0  0  0
 12 13  2  0  0  0
 13 14  1  0  0  0
 14 15  1  0  0  0
 14 16  2  0  0  0
  3 22  1  0  0  0
 22 23  2  0  0  0
 22 24  1  0  0  0
 24 26  1  0  0  0
 26 27  2  0  0  0
 27 28  1  0  0  0
 28 29  2  0  0  0
 29 30  1  0  0  0
 30 31  2  0  0  0
 28 32  1  0  0  0
 32 33  1  0  0  0
 32 34  1  0  0  0
  6  1  1  0  0  0
 16  7  1  0  0  0
 31 26  1  0  0  0
 21 19  1  0  0  0
 16 10  1  0  0  0
 15 17  1  0  0  0
 15 18  1  0  0  0
 24 25  1  0  0  0
M  END
> <minimizedAffinity>
-8.15190

> <CNNscore>
0.0956775844

> <CNNaffinity>
5.9222369194

> <CNN_VS>
0.5666252971

> <CNNaffinity_variance>
0.1999361068

$$$$
[H]c1nc(N([H])[H])c2c(-c3c([H])c([H])c(C(=O)N([H])c4nc([H])c([H])c(C([H])(F)F)c4[H])c([H])c3OC([H])([H])[H])c([H])n(C3([H])C([H])([H])C3([H])[H])c2n1


 36 40  0  0  0  0  0  0  0  0999 V2000
  -17.5781   11.9176  -19.4678 C   0  0  0  0  0  0  0  0  0  0  0  0
  -18.1266   11.4813  -18.2565 C   0  0  0  0  0  0  0  0  0  0  0  0
  -19.3508   11.9624  -17.8387 C   0  0  0  0  0  0  0  0  0  0  0  0
  -20.0671   12.8734  -18.5838 C   0  0  0  0  0  0  0  0  0  0  0  0
  -19.4962   13.2787  -19.7688 C   0  0  0  0  0  0  0  0  0  0  0  0
  -18.2783   12.8218  -20.2184 C   0  0  0  0  0  0  0  0  0  0  0  0
  -17.7616   13.3824  -21.4438 C   0  0  0  0  0  0  0  0  0  0  0  0
  -17.5860   12.7332  -22.6608 C   0  0  0  0  0  0  0  0  0  0  0  0
  -16.9866   13.5242  -23.5539 N   0  0  0  0  0  0  0  0  0  0  0  0
  -16.7721   14.6942  -22.9218 C   0  0  0  0  0  0  0  0  0  0  0  0
  -16.2187   15.8424  -23.3297 N   0  0  0  0  0  0  0  0  0  0  0  0
  -16.0969   16.9249  -22.5591 C   0  0  0  0  0  0  0  0  0  0  0  0
  -16.5532   16.8622  -21.3098 N   0  0  0  0  0  0  0  0  0  0  0  0
  -17.1325   15.7536  -20.7847 C   0  0  0  0  0  0  0  0  0  0  0  0
  -17.6343   15.7556  -19.4571 N   0  0  0  0  0  0  0  0  0  0  0  0
  -17.2423   14.6476  -21.6057 C   0  0  0  0  0  0  0  0  0  0  0  0
  -18.6779   15.6134  -19.3066 H   0  0  0  0  0  0  0  0  0  0  0  0
  -17.0764   15.8845  -18.6079 H   0  0  0  0  0  0  0  0  0  0  0  0
  -16.6121   13.2221  -24.9298 C   0  0  0  0  0  0  0  0  0  0  0  0
  -17.3507   14.0161  -25.9480 C   0  0  0  0  0  0  0  0  0  0  0  0
  -17.6357   12.5421  -25.7702 C   0  0  0  0  0  0  0  0  0  0  0  0
  -19.9334   11.4841  -16.5878 C   0  0  0  0  0  0  0  0  0  0  0  0
  -20.6406   10.4486  -16.5827 O   0  0  0  0  0  0  0  0  0  0  0  0
  -19.7174   12.1713  -15.3633 N   0  0  0  0  0  0  0  0  0  0  0  0
  -19.1206   13.0384  -15.3656 H   0  0  0  0  0  0  0  0  0  0  0  0
  -20.2938   11.7147  -14.1550 C   0  0  0  0  0  0  0  0  0  0  0  0
  -19.5796   10.9307  -13.2910 C   0  0  0  0  0  0  0  0  0  0  0  0
  -20.1556   10.4968  -12.0917 C   0  0  0  0  0  0  0  0  0  0  0  0
  -21.4454   10.8653  -11.7900 C   0  0  0  0  0  0  0  0  0  0  0  0
  -22.1263   11.6566  -12.6914 C   0  0  0  0  0  0  0  0  0  0  0  0
  -21.5441   12.0634  -13.8467 N   0  0  0  0  0  0  0  0  0  0  0  0
  -19.3776    9.6425  -11.1676 C   0  0  0  0  0  0  0  0  0  0  0  0
  -18.7351   10.3774  -10.1981 F   0  0  0  0  0  0  0  0  0  0  0  0
  -18.4134    8.9076  -11.8490 F   0  0  0  0  0  0  0  0  0  0  0  0
  -16.0479   10.1897  -20.3710 C   0  0  0  0  0  0  0  0  0  0  0  0
  -16.3697   11.4426  -19.8788 O   0  0  0  0  0  0  0  0  0  0  0  0
 35 36  1  0  0  0
 36  1  1  0  0  0
  1  2  2  0  0  0
  2  3  1  0  0  0
  3  4  2  0  0  0
  4  5  1  0  0  0
  5  6  2  0  0  0
  6  7  1  0  0  0
  7  8  2  0  0  0
  8  9  1  0  0  0
  9 19  1  0  0  0
 19 20  1  0  0  0
 20 21  1  0  0  0
  9 10  1  0  0  0
 10 11  2  0  0  0
 11 12  1  0  0  0
 12 13  2  0  0  0
 13 14  1  0  0  0
 14 15  1  0  0  0
 14 16  2  0  0  0
  3 22  1  0  0  0
 22 23  2  0  0  0
 22 24  1  0  0  0
 24 26  1  0  0  0
 26 27  2  0  0  0
 27 28  1  0  0  0
 28 29  2  0  0  0
 29 30  1  0  0  0
 30 31  2  0  0  0
 28 32  1  0  0  0
 32 33  1  0  0  0
 32 34  1  0  0  0
  6  1  1  0  0  0
 16  7  1  0  0  0
 31 26  1  0  0  0
 21 19  1  0  0  0
 16 10  1  0  0  0
 15 17  1  0  0  0
 15 18  1  0  0  0
 24 25  1  0  0  0
M  END
> <minimizedAffinity>
-8.82738

> <CNNscore>
0.0869236663

> <CNNaffinity>
5.9423942566

> <CNN_VS>
0.5165346861

> <CNNaffinity_variance>
0.2045963556

$$$$
[H]c1nc(N([H])[H])c2c(-c3c([H])c([H])c(C(=O)N([H])c4nc([H])c([H])c(C([H])(F)F)c4[H])c([H])c3OC([H])([H])[H])c([H])n(C3([H])C([H])([H])C3([H])[H])c2n1


 36 40  0  0  0  0  0  0  0  0999 V2000
  -17.1600   11.6087  -19.5405 C   0  0  0  0  0  0  0  0  0  0  0  0
  -17.5761   10.6472  -18.6128 C   0  0  0  0  0  0  0  0  0  0  0  0
  -18.7528   10.8247  -17.9137 C   0  0  0  0  0  0  0  0  0  0  0  0
  -19.5485   11.9341  -18.0986 C   0  0  0  0  0  0  0  0  0  0  0  0
  -19.1071   12.8573  -19.0191 C   0  0  0  0  0  0  0  0  0  0  0  0
  -17.9402   12.7154  -19.7349 C   0  0  0  0  0  0  0  0  0  0  0  0
  -17.5579   13.7925  -20.6162 C   0  0  0  0  0  0  0  0  0  0  0  0
  -17.2973   15.1139  -20.2705 C   0  0  0  0  0  0  0  0  0  0  0  0
  -17.0740   15.8659  -21.3507 N   0  0  0  0  0  0  0  0  0  0  0  0
  -17.1853   15.0353  -22.4053 C   0  0  0  0  0  0  0  0  0  0  0  0
  -17.0532   15.2386  -23.7214 N   0  0  0  0  0  0  0  0  0  0  0  0
  -17.1881   14.2801  -24.6398 C   0  0  0  0  0  0  0  0  0  0  0  0
  -17.4699   13.0466  -24.2249 N   0  0  0  0  0  0  0  0  0  0  0  0
  -17.6272   12.7197  -22.9178 C   0  0  0  0  0  0  0  0  0  0  0  0
  -17.8909   11.3801  -22.5305 N   0  0  0  0  0  0  0  0  0  0  0  0
  -17.4843   13.7339  -21.9901 C   0  0  0  0  0  0  0  0  0  0  0  0
  -17.1754   10.8738  -21.9275 H   0  0  0  0  0  0  0  0  0  0  0  0
  -18.7233   10.8386  -22.7815 H   0  0  0  0  0  0  0  0  0  0  0  0
  -16.7808   17.2921  -21.4214 C   0  0  0  0  0  0  0  0  0  0  0  0
  -15.8645   17.7767  -20.3546 C   0  0  0  0  0  0  0  0  0  0  0  0
  -17.3305   18.1451  -20.3321 C   0  0  0  0  0  0  0  0  0  0  0  0
  -19.1985    9.8061  -16.9666 C   0  0  0  0  0  0  0  0  0  0  0  0
  -18.8928    8.6040  -17.1508 O   0  0  0  0  0  0  0  0  0  0  0  0
  -19.9795   10.1473  -15.8301 N   0  0  0  0  0  0  0  0  0  0  0  0
  -20.2333   11.1565  -15.6721 H   0  0  0  0  0  0  0  0  0  0  0  0
  -20.4223    9.1579  -14.9212 C   0  0  0  0  0  0  0  0  0  0  0  0
  -19.6956    8.8609  -13.8010 C   0  0  0  0  0  0  0  0  0  0  0  0
  -20.1509    7.8902  -12.9016 C   0  0  0  0  0  0  0  0  0  0  0  0
  -21.3347    7.2380  -13.1543 C   0  0  0  0  0  0  0  0  0  0  0  0
  -22.0329    7.5709  -14.2962 C   0  0  0  0  0  0  0  0  0  0  0  0
  -21.5689    8.5158  -15.1511 N   0  0  0  0  0  0  0  0  0  0  0  0
  -19.3538    7.5705  -11.6970 C   0  0  0  0  0  0  0  0  0  0  0  0
  -19.7666    8.2854  -10.5964 F   0  0  0  0  0  0  0  0  0  0  0  0
  -18.0047    7.8433  -11.8961 F   0  0  0  0  0  0  0  0  0  0  0  0
  -15.4985   10.2826  -20.8150 C   0  0  0  0  0  0  0  0  0  0  0  0
  -15.9984   11.4328  -20.2295 O   0  0  0  0  0  0  0  0  0  0  0  0
 35 36  1  0  0  0
 36  1  1  0  0  0
  1  2  2  0  0  0
  2  3  1  0  0  0
  3  4  2  0  0  0
  4  5  1  0  0  0
  5  6  2  0  0  0
  6  7  1  0  0  0
  7  8  2  0  0  0
  8  9  1  0  0  0
  9 19  1  0  0  0
 19 20  1  0  0  0
 20 21  1  0  0  0
  9 10  1  0  0  0
 10 11  2  0  0  0
 11 12  1  0  0  0
 12 13  2  0  0  0
 13 14  1  0  0  0
 14 15  1  0  0  0
 14 16  2  0  0  0
  3 22  1  0  0  0
 22 23  2  0  0  0
 22 24  1  0  0  0
 24 26  1  0  0  0
 26 27  2  0  0  0
 27 28  1  0  0  0
 28 29  2  0  0  0
 29 30  1  0  0  0
 30 31  2  0  0  0
 28 32  1  0  0  0
 32 33  1  0  0  0
 32 34  1  0  0  0
  6  1  1  0  0  0
 16  7  1  0  0  0
 31 26  1  0  0  0
 21 19  1  0  0  0
 16 10  1  0  0  0
 15 17  1  0  0  0
 15 18  1  0  0  0
 24 25  1  0  0  0
M  END
> <minimizedAffinity>
-7.48385

> <CNNscore>
0.0750438124

> <CNNaffinity>
6.1709051132

> <CNN_VS>
0.4630882442

> <CNNaffinity_variance>
0.1345841587

$$$$
