[H]c1nc2c(nc([H])c(=O)n2[H])c(Oc2c([H])c([H])c(N([H])C(=O)N([H])c3c([H])c(C(C([H])([H])[H])(C([H])([H])[H])C([H])([H])[H])nn3-c3c([H])c([H])c(C([H])([H])[H])c([H])c3[H])c3c([H])c([H])c([H])c([H])c23)c1[H]


 45 50  0  0  0  0  0  0  0  0999 V2000
  -19.3171   10.5625  -17.2892 C   0  0  0  0  0  0  0  0  0  0  0  0
  -18.9448    9.2571  -17.0679 C   0  0  0  0  0  0  0  0  0  0  0  0
  -19.3806    8.5689  -15.9286 C   0  0  0  0  0  0  0  0  0  0  0  0
  -20.1901    9.1586  -14.9892 C   0  0  0  0  0  0  0  0  0  0  0  0
  -20.5621   10.4566  -15.2096 C   0  0  0  0  0  0  0  0  0  0  0  0
  -21.3975   11.0742  -14.3170 C   0  0  0  0  0  0  0  0  0  0  0  0
  -21.8154   12.3839  -14.5271 C   0  0  0  0  0  0  0  0  0  0  0  0
  -21.3970   13.0803  -15.6371 C   0  0  0  0  0  0  0  0  0  0  0  0
  -20.5499   12.4669  -16.5557 C   0  0  0  0  0  0  0  0  0  0  0  0
  -20.1481   11.1755  -16.3325 C   0  0  0  0  0  0  0  0  0  0  0  0
  -17.0197   11.8663  -20.0453 N   0  0  0  0  0  0  0  0  0  0  0  0
  -17.5718   11.1841  -18.9878 C   0  0  0  0  0  0  0  0  0  0  0  0
  -16.7535   10.3023  -18.4652 O   0  0  0  0  0  0  0  0  0  0  0  0
  -18.8423   11.3153  -18.4113 N   0  0  0  0  0  0  0  0  0  0  0  0
  -15.9324   11.5583  -20.2616 H   0  0  0  0  0  0  0  0  0  0  0  0
  -19.5181   12.0415  -18.7606 H   0  0  0  0  0  0  0  0  0  0  0  0
  -18.2320   13.7760  -21.0803 N   0  0  0  0  0  0  0  0  0  0  0  0
  -18.1814   14.3063  -22.3226 N   0  0  0  0  0  0  0  0  0  0  0  0
  -17.3942   13.6197  -23.1109 C   0  0  0  0  0  0  0  0  0  0  0  0
  -16.8936   12.5883  -22.3735 C   0  0  0  0  0  0  0  0  0  0  0  0
  -17.4624   12.7246  -21.0472 C   0  0  0  0  0  0  0  0  0  0  0  0
  -21.7215   16.3809  -17.3621 C   0  0  0  0  0  0  0  0  0  0  0  0
  -20.8127   15.6895  -18.3272 C   0  0  0  0  0  0  0  0  0  0  0  0
  -19.4323   15.9045  -18.3020 C   0  0  0  0  0  0  0  0  0  0  0  0
  -18.6214   15.2531  -19.2003 C   0  0  0  0  0  0  0  0  0  0  0  0
  -19.1286   14.3662  -20.1565 C   0  0  0  0  0  0  0  0  0  0  0  0
  -20.4930   14.1806  -20.1479 C   0  0  0  0  0  0  0  0  0  0  0  0
  -21.3247   14.8207  -19.2605 C   0  0  0  0  0  0  0  0  0  0  0  0
  -17.0676   13.8787  -24.5705 C   0  0  0  0  0  0  0  0  0  0  0  0
  -17.6501   12.7689  -25.4186 C   0  0  0  0  0  0  0  0  0  0  0  0
  -15.5743   13.8610  -24.7053 C   0  0  0  0  0  0  0  0  0  0  0  0
  -17.6742   15.2138  -24.9145 C   0  0  0  0  0  0  0  0  0  0  0  0
  -20.5580    8.4160  -13.9183 O   0  0  0  0  0  0  0  0  0  0  0  0
  -19.8322    7.6642  -13.0513 C   0  0  0  0  0  0  0  0  0  0  0  0
  -19.7047    6.3031  -13.1293 C   0  0  0  0  0  0  0  0  0  0  0  0
  -18.9633    5.5623  -12.2419 C   0  0  0  0  0  0  0  0  0  0  0  0
  -18.3205    6.1619  -11.2396 N   0  0  0  0  0  0  0  0  0  0  0  0
  -18.4093    7.5044  -11.1123 C   0  0  0  0  0  0  0  0  0  0  0  0
  -17.7351    8.0614  -10.0739 N   0  0  0  0  0  0  0  0  0  0  0  0
  -17.8027    9.3993   -9.9175 C   0  0  0  0  0  0  0  0  0  0  0  0
  -17.1691    9.8958   -8.9499 O   0  0  0  0  0  0  0  0  0  0  0  0
  -18.5381   10.1664  -10.7929 C   0  0  0  0  0  0  0  0  0  0  0  0
  -19.2130    9.5912  -11.8362 N   0  0  0  0  0  0  0  0  0  0  0  0
  -19.1455    8.2698  -11.9882 C   0  0  0  0  0  0  0  0  0  0  0  0
  -17.1762    7.4811   -9.4107 H   0  0  0  0  0  0  0  0  0  0  0  0
 22 23  1  0  0  0
 23 24  2  0  0  0
 24 25  1  0  0  0
 25 26  2  0  0  0
 26 27  1  0  0  0
 27 28  2  0  0  0
 26 17  1  0  0  0
 17 18  1  0  0  0
 18 19  2  0  0  0
 19 20  1  0  0  0
 20 21  2  0  0  0
 21 11  1  0  0  0
 11 12  1  0  0  0
 12 13  2  0  0  0
 12 14  1  0  0  0
 14  1  1  0  0  0
  1  2  2  0  0  0
  2  3  1  0  0  0
  3  4  2  0  0  0
  4 33  1  0  0  0
 33 34  1  0  0  0
 34 35  2  0  0  0
 35 36  1  0  0  0
 36 37  2  0  0  0
 37 38  1  0  0  0
 38 39  1  0  0  0
 39 40  1  0  0  0
 40 41  2  0  0  0
 40 42  1  0  0  0
 42 43  2  0  0  0
 43 44  1  0  0  0
  4  5  1  0  0  0
  5  6  2  0  0  0
  6  7  1  0  0  0
  7  8  2  0  0  0
  8  9  1  0  0  0
  9 10  2  0  0  0
 19 29  1  0  0  0
 29 30  1  0  0  0
 29 31  1  0  0  0
 29 32  1  0  0  0
 28 23  1  0  0  0
 21 17  1  0  0  0
 10  1  1  0  0  0
 44 34  1  0  0  0
 10  5  1  0  0  0
 44 38  2  0  0  0
 11 15  1  0  0  0
 14 16  1  0  0  0
 39 45  1  0  0  0
M  END
> <minimizedAffinity>
-10.33328

> <CNNscore>
0.1809388697

> <CNNaffinity>
7.4300966263

> <CNN_VS>
1.3443932533

> <CNNaffinity_variance>
0.2024844438

$$$$
[H]c1nc2c(nc([H])c(=O)n2[H])c(Oc2c([H])c([H])c(N([H])C(=O)N([H])c3c([H])c(C(C([H])([H])[H])(C([H])([H])[H])C([H])([H])[H])nn3-c3c([H])c([H])c(C([H])([H])[H])c([H])c3[H])c3c([H])c([H])c([H])c([H])c23)c1[H]


 45 50  0  0  0  0  0  0  0  0999 V2000
  -19.2460   10.5804  -17.4384 C   0  0  0  0  0  0  0  0  0  0  0  0
  -18.8551    9.2755  -17.2487 C   0  0  0  0  0  0  0  0  0  0  0  0
  -19.2798    8.5542  -16.1257 C   0  0  0  0  0  0  0  0  0  0  0  0
  -20.0963    9.1099  -15.1718 C   0  0  0  0  0  0  0  0  0  0  0  0
  -20.4868   10.4074  -15.3608 C   0  0  0  0  0  0  0  0  0  0  0  0
  -21.3297   10.9917  -14.4529 C   0  0  0  0  0  0  0  0  0  0  0  0
  -21.7662   12.2999  -14.6313 C   0  0  0  0  0  0  0  0  0  0  0  0
  -21.3591   13.0284  -15.7247 C   0  0  0  0  0  0  0  0  0  0  0  0
  -20.5046   12.4492  -16.6585 C   0  0  0  0  0  0  0  0  0  0  0  0
  -20.0844   11.1586  -16.4666 C   0  0  0  0  0  0  0  0  0  0  0  0
  -16.9576   12.0109  -20.1385 N   0  0  0  0  0  0  0  0  0  0  0  0
  -17.4993   11.2933  -19.0993 C   0  0  0  0  0  0  0  0  0  0  0  0
  -16.6553   10.4376  -18.5743 O   0  0  0  0  0  0  0  0  0  0  0  0
  -18.7832   11.3664  -18.5427 N   0  0  0  0  0  0  0  0  0  0  0  0
  -15.8555   11.7491  -20.3404 H   0  0  0  0  0  0  0  0  0  0  0  0
  -19.4817   12.0699  -18.8940 H   0  0  0  0  0  0  0  0  0  0  0  0
  -18.2112   13.8979  -21.1658 N   0  0  0  0  0  0  0  0  0  0  0  0
  -18.1700   14.4362  -22.4050 N   0  0  0  0  0  0  0  0  0  0  0  0
  -17.3654   13.7723  -23.1952 C   0  0  0  0  0  0  0  0  0  0  0  0
  -16.8429   12.7486  -22.4623 C   0  0  0  0  0  0  0  0  0  0  0  0
  -17.4176   12.8644  -21.1367 C   0  0  0  0  0  0  0  0  0  0  0  0
  -21.7672   16.4004  -17.4403 C   0  0  0  0  0  0  0  0  0  0  0  0
  -20.8409   15.7356  -18.4074 C   0  0  0  0  0  0  0  0  0  0  0  0
  -19.4648   15.9758  -18.3728 C   0  0  0  0  0  0  0  0  0  0  0  0
  -18.6375   15.3486  -19.2732 C   0  0  0  0  0  0  0  0  0  0  0  0
  -19.1233   14.4622  -20.2409 C   0  0  0  0  0  0  0  0  0  0  0  0
  -20.4840   14.2514  -20.2414 C   0  0  0  0  0  0  0  0  0  0  0  0
  -21.3319   14.8671  -19.3520 C   0  0  0  0  0  0  0  0  0  0  0  0
  -17.0416   14.0470  -24.6526 C   0  0  0  0  0  0  0  0  0  0  0  0
  -15.5425   13.9888  -24.8520 C   0  0  0  0  0  0  0  0  0  0  0  0
  -17.5200   15.4336  -24.9641 C   0  0  0  0  0  0  0  0  0  0  0  0
  -17.7477   12.9861  -25.4553 C   0  0  0  0  0  0  0  0  0  0  0  0
  -20.4524    8.3368  -14.1186 O   0  0  0  0  0  0  0  0  0  0  0  0
  -20.0617    8.3506  -12.8183 C   0  0  0  0  0  0  0  0  0  0  0  0
  -18.7565    8.3579  -12.4044 C   0  0  0  0  0  0  0  0  0  0  0  0
  -18.3837    8.3737  -11.0828 C   0  0  0  0  0  0  0  0  0  0  0  0
  -19.3100    8.3823  -10.1241 N   0  0  0  0  0  0  0  0  0  0  0  0
  -20.6158    8.3762  -10.4726 C   0  0  0  0  0  0  0  0  0  0  0  0
  -21.5153    8.3852   -9.4557 N   0  0  0  0  0  0  0  0  0  0  0  0
  -22.8272    8.3790   -9.7685 C   0  0  0  0  0  0  0  0  0  0  0  0
  -23.6444    8.3894   -8.8112 O   0  0  0  0  0  0  0  0  0  0  0  0
  -23.2291    8.3639  -11.0852 C   0  0  0  0  0  0  0  0  0  0  0  0
  -22.3107    8.3553  -12.1007 N   0  0  0  0  0  0  0  0  0  0  0  0
  -21.0159    8.3605  -11.7896 C   0  0  0  0  0  0  0  0  0  0  0  0
  -21.2118    8.3981   -8.4574 H   0  0  0  0  0  0  0  0  0  0  0  0
 22 23  1  0  0  0
 23 24  2  0  0  0
 24 25  1  0  0  0
 25 26  2  0  0  0
 26 27  1  0  0  0
 27 28  2  0  0  0
 26 17  1  0  0  0
 17 18  1  0  0  0
 18 19  2  0  0  0
 19 20  1  0  0  0
 20 21  2  0  0  0
 21 11  1  0  0  0
 11 12  1  0  0  0
 12 13  2  0  0  0
 12 14  1  0  0  0
 14  1  1  0  0  0
  1  2  2  0  0  0
  2  3  1  0  0  0
  3  4  2  0  0  0
  4 33  1  0  0  0
 33 34  1  0  0  0
 34 35  2  0  0  0
 35 36  1  0  0  0
 36 37  2  0  0  0
 37 38  1  0  0  0
 38 39  1  0  0  0
 39 40  1  0  0  0
 40 41  2  0  0  0
 40 42  1  0  0  0
 42 43  2  0  0  0
 43 44  1  0  0  0
  4  5  1  0  0  0
  5  6  2  0  0  0
  6  7  1  0  0  0
  7  8  2  0  0  0
  8  9  1  0  0  0
  9 10  2  0  0  0
 19 29  1  0  0  0
 29 30  1  0  0  0
 29 31  1  0  0  0
 29 32  1  0  0  0
 28 23  1  0  0  0
 21 17  1  0  0  0
 10  1  1  0  0  0
 44 34  1  0  0  0
 10  5  1  0  0  0
 44 38  2  0  0  0
 11 15  1  0  0  0
 14 16  1  0  0  0
 39 45  1  0  0  0
M  END
> <minimizedAffinity>
-9.51570

> <CNNscore>
0.1753906608

> <CNNaffinity>
7.3722219467

> <CNN_VS>
1.2930189371

> <CNNaffinity_variance>
0.2902028859

$$$$
[H]c1nc2c(nc([H])c(=O)n2[H])c(Oc2c([H])c([H])c(N([H])C(=O)N([H])c3c([H])c(C(C([H])([H])[H])(C([H])([H])[H])C([H])([H])[H])nn3-c3c([H])c([H])c(C([H])([H])[H])c([H])c3[H])c3c([H])c([H])c([H])c([H])c23)c1[H]


 45 50  0  0  0  0  0  0  0  0999 V2000
  -19.1461   10.6991  -17.4732 C   0  0  0  0  0  0  0  0  0  0  0  0
  -18.7370    9.4090  -17.2286 C   0  0  0  0  0  0  0  0  0  0  0  0
  -19.1505    8.7306  -16.0751 C   0  0  0  0  0  0  0  0  0  0  0  0
  -19.9735    9.3154  -15.1444 C   0  0  0  0  0  0  0  0  0  0  0  0
  -20.3821   10.5981  -15.3880 C   0  0  0  0  0  0  0  0  0  0  0  0
  -21.2319   11.2091  -14.5045 C   0  0  0  0  0  0  0  0  0  0  0  0
  -21.6865   12.5025  -14.7379 C   0  0  0  0  0  0  0  0  0  0  0  0
  -21.2906   13.1891  -15.8621 C   0  0  0  0  0  0  0  0  0  0  0  0
  -20.4293   12.5822  -16.7717 C   0  0  0  0  0  0  0  0  0  0  0  0
  -19.9912   11.3068  -16.5256 C   0  0  0  0  0  0  0  0  0  0  0  0
  -16.9169   11.9647  -20.3022 N   0  0  0  0  0  0  0  0  0  0  0  0
  -17.4458   11.2921  -19.2269 C   0  0  0  0  0  0  0  0  0  0  0  0
  -16.6252   10.3982  -18.7291 O   0  0  0  0  0  0  0  0  0  0  0  0
  -18.6953   11.4435  -18.6108 N   0  0  0  0  0  0  0  0  0  0  0  0
  -15.8418   11.6397  -20.5523 H   0  0  0  0  0  0  0  0  0  0  0  0
  -19.3706   12.1798  -18.9396 H   0  0  0  0  0  0  0  0  0  0  0  0
  -18.1255   13.8963  -21.3002 N   0  0  0  0  0  0  0  0  0  0  0  0
  -18.1092   14.4211  -22.5457 N   0  0  0  0  0  0  0  0  0  0  0  0
  -17.3663   13.7151  -23.3594 C   0  0  0  0  0  0  0  0  0  0  0  0
  -16.8610   12.6758  -22.6365 C   0  0  0  0  0  0  0  0  0  0  0  0
  -17.3777   12.8289  -21.2908 C   0  0  0  0  0  0  0  0  0  0  0  0
  -21.4039   16.5774  -17.4466 C   0  0  0  0  0  0  0  0  0  0  0  0
  -20.5514   15.8661  -18.4478 C   0  0  0  0  0  0  0  0  0  0  0  0
  -19.1572   15.9453  -18.3973 C   0  0  0  0  0  0  0  0  0  0  0  0
  -18.3994   15.2788  -19.3300 C   0  0  0  0  0  0  0  0  0  0  0  0
  -18.9750   14.5087  -20.3467 C   0  0  0  0  0  0  0  0  0  0  0  0
  -20.3508   14.4548  -20.3615 C   0  0  0  0  0  0  0  0  0  0  0  0
  -21.1303   15.1130  -19.4405 C   0  0  0  0  0  0  0  0  0  0  0  0
  -17.0879   13.9621  -24.8311 C   0  0  0  0  0  0  0  0  0  0  0  0
  -15.5941   14.0740  -25.0463 C   0  0  0  0  0  0  0  0  0  0  0  0
  -17.7308   15.2668  -25.1956 C   0  0  0  0  0  0  0  0  0  0  0  0
  -17.6680   12.7905  -25.5790 C   0  0  0  0  0  0  0  0  0  0  0  0
  -20.3179    8.5832  -14.0586 O   0  0  0  0  0  0  0  0  0  0  0  0
  -19.6372    8.2811  -12.9232 C   0  0  0  0  0  0  0  0  0  0  0  0
  -19.2202    9.2061  -12.0038 C   0  0  0  0  0  0  0  0  0  0  0  0
  -18.5341    8.8778  -10.8604 C   0  0  0  0  0  0  0  0  0  0  0  0
  -18.2398    7.6047  -10.5963 N   0  0  0  0  0  0  0  0  0  0  0  0
  -18.6265    6.6469  -11.4678 C   0  0  0  0  0  0  0  0  0  0  0  0
  -18.2999    5.3684  -11.1487 N   0  0  0  0  0  0  0  0  0  0  0  0
  -18.6705    4.3877  -11.9972 C   0  0  0  0  0  0  0  0  0  0  0  0
  -18.3596    3.2095  -11.6820 O   0  0  0  0  0  0  0  0  0  0  0  0
  -19.3598    4.6884  -13.1505 C   0  0  0  0  0  0  0  0  0  0  0  0
  -19.6829    5.9825  -13.4596 N   0  0  0  0  0  0  0  0  0  0  0  0
  -19.3152    6.9494  -12.6208 C   0  0  0  0  0  0  0  0  0  0  0  0
  -17.7788    5.1392  -10.2742 H   0  0  0  0  0  0  0  0  0  0  0  0
 22 23  1  0  0  0
 23 24  2  0  0  0
 24 25  1  0  0  0
 25 26  2  0  0  0
 26 27  1  0  0  0
 27 28  2  0  0  0
 26 17  1  0  0  0
 17 18  1  0  0  0
 18 19  2  0  0  0
 19 20  1  0  0  0
 20 21  2  0  0  0
 21 11  1  0  0  0
 11 12  1  0  0  0
 12 13  2  0  0  0
 12 14  1  0  0  0
 14  1  1  0  0  0
  1  2  2  0  0  0
  2  3  1  0  0  0
  3  4  2  0  0  0
  4 33  1  0  0  0
 33 34  1  0  0  0
 34 35  2  0  0  0
 35 36  1  0  0  0
 36 37  2  0  0  0
 37 38  1  0  0  0
 38 39  1  0  0  0
 39 40  1  0  0  0
 40 41  2  0  0  0
 40 42  1  0  0  0
 42 43  2  0  0  0
 43 44  1  0  0  0
  4  5  1  0  0  0
  5  6  2  0  0  0
  6  7  1  0  0  0
  7  8  2  0  0  0
  8  9  1  0  0  0
  9 10  2  0  0  0
 19 29  1  0  0  0
 29 30  1  0  0  0
 29 31  1  0  0  0
 29 32  1  0  0  0
 28 23  1  0  0  0
 21 17  1  0  0  0
 10  1  1  0  0  0
 44 34  1  0  0  0
 10  5  1  0  0  0
 44 38  2  0  0  0
 11 15  1  0  0  0
 14 16  1  0  0  0
 39 45  1  0  0  0
M  END
> <minimizedAffinity>
-9.75591

> <CNNscore>
0.1387632042

> <CNNaffinity>
7.3752646446

> <CNN_VS>
1.0234153271

> <CNNaffinity_variance>
0.1735199988

$$$$
[H]c1nc2c(nc([H])c(=O)n2[H])c(Oc2c([H])c([H])c(N([H])C(=O)N([H])c3c([H])c(C(C([H])([H])[H])(C([H])([H])[H])C([H])([H])[H])nn3-c3c([H])c([H])c(C([H])([H])[H])c([H])c3[H])c3c([H])c([H])c([H])c([H])c23)c1[H]


 45 50  0  0  0  0  0  0  0  0999 V2000
  -19.4927   11.5982  -17.5755 C   0  0  0  0  0  0  0  0  0  0  0  0
  -19.1997   10.3323  -17.1246 C   0  0  0  0  0  0  0  0  0  0  0  0
  -19.7365    9.8557  -15.9220 C   0  0  0  0  0  0  0  0  0  0  0  0
  -20.5703   10.6214  -15.1449 C   0  0  0  0  0  0  0  0  0  0  0  0
  -20.8635   11.8802  -15.5936 C   0  0  0  0  0  0  0  0  0  0  0  0
  -21.7190   12.6668  -14.8688 C   0  0  0  0  0  0  0  0  0  0  0  0
  -22.0579   13.9405  -15.3124 C   0  0  0  0  0  0  0  0  0  0  0  0
  -21.5398   14.4306  -16.4886 C   0  0  0  0  0  0  0  0  0  0  0  0
  -20.6710   13.6435  -17.2389 C   0  0  0  0  0  0  0  0  0  0  0  0
  -20.3480   12.3905  -16.7865 C   0  0  0  0  0  0  0  0  0  0  0  0
  -17.1652   12.0632  -20.5655 N   0  0  0  0  0  0  0  0  0  0  0  0
  -17.8008   11.6108  -19.4343 C   0  0  0  0  0  0  0  0  0  0  0  0
  -17.2447   10.5347  -18.9312 O   0  0  0  0  0  0  0  0  0  0  0  0
  -18.9148   12.1398  -18.7688 N   0  0  0  0  0  0  0  0  0  0  0  0
  -16.2463   11.4314  -20.8490 H   0  0  0  0  0  0  0  0  0  0  0  0
  -19.3674   13.0287  -19.1022 H   0  0  0  0  0  0  0  0  0  0  0  0
  -17.8792   14.2068  -21.6061 N   0  0  0  0  0  0  0  0  0  0  0  0
  -17.7534   14.6809  -22.8656 N   0  0  0  0  0  0  0  0  0  0  0  0
  -17.2176   13.7948  -23.6658 C   0  0  0  0  0  0  0  0  0  0  0  0
  -16.9713   12.6815  -22.9188 C   0  0  0  0  0  0  0  0  0  0  0  0
  -17.4152   12.9893  -21.5736 C   0  0  0  0  0  0  0  0  0  0  0  0
  -20.3357   17.6899  -17.7824 C   0  0  0  0  0  0  0  0  0  0  0  0
  -19.7013   16.7706  -18.7763 C   0  0  0  0  0  0  0  0  0  0  0  0
  -18.3525   16.4189  -18.6782 C   0  0  0  0  0  0  0  0  0  0  0  0
  -17.7972   15.5700  -19.6054 C   0  0  0  0  0  0  0  0  0  0  0  0
  -18.5390   15.0318  -20.6628 C   0  0  0  0  0  0  0  0  0  0  0  0
  -19.8640   15.4015  -20.7238 C   0  0  0  0  0  0  0  0  0  0  0  0
  -20.4420   16.2492  -19.8093 C   0  0  0  0  0  0  0  0  0  0  0  0
  -16.9090   13.9299  -25.1458 C   0  0  0  0  0  0  0  0  0  0  0  0
  -15.4093   13.9148  -25.3480 C   0  0  0  0  0  0  0  0  0  0  0  0
  -17.4470   15.2551  -25.5964 C   0  0  0  0  0  0  0  0  0  0  0  0
  -17.5708   12.7623  -25.8295 C   0  0  0  0  0  0  0  0  0  0  0  0
  -21.0381   10.0774  -13.9965 O   0  0  0  0  0  0  0  0  0  0  0  0
  -21.9152    9.0657  -13.7710 C   0  0  0  0  0  0  0  0  0  0  0  0
  -21.6307    7.7401  -13.9629 C   0  0  0  0  0  0  0  0  0  0  0  0
  -22.5332    6.7324  -13.7265 C   0  0  0  0  0  0  0  0  0  0  0  0
  -23.7591    7.0185  -13.2875 N   0  0  0  0  0  0  0  0  0  0  0  0
  -24.0971    8.3103  -13.0792 C   0  0  0  0  0  0  0  0  0  0  0  0
  -25.3579    8.5432  -12.6325 N   0  0  0  0  0  0  0  0  0  0  0  0
  -25.7282    9.8216  -12.4145 C   0  0  0  0  0  0  0  0  0  0  0  0
  -26.9004   10.0155  -11.9988 O   0  0  0  0  0  0  0  0  0  0  0  0
  -24.8434   10.8514  -12.6426 C   0  0  0  0  0  0  0  0  0  0  0  0
  -23.5746   10.6018  -13.0928 N   0  0  0  0  0  0  0  0  0  0  0  0
  -23.2114    9.3388  -13.3083 C   0  0  0  0  0  0  0  0  0  0  0  0
  -26.0288    7.7632  -12.4579 H   0  0  0  0  0  0  0  0  0  0  0  0
 22 23  1  0  0  0
 23 24  2  0  0  0
 24 25  1  0  0  0
 25 26  2  0  0  0
 26 27  1  0  0  0
 27 28  2  0  0  0
 26 17  1  0  0  0
 17 18  1  0  0  0
 18 19  2  0  0  0
 19 20  1  0  0  0
 20 21  2  0  0  0
 21 11  1  0  0  0
 11 12  1  0  0  0
 12 13  2  0  0  0
 12 14  1  0  0  0
 14  1  1  0  0  0
  1  2  2  0  0  0
  2  3  1  0  0  0
  3  4  2  0  0  0
  4 33  1  0  0  0
 33 34  1  0  0  0
 34 35  2  0  0  0
 35 36  1  0  0  0
 36 37  2  0  0  0
 37 38  1  0  0  0
 38 39  1  0  0  0
 39 40  1  0  0  0
 40 41  2  0  0  0
 40 42  1  0  0  0
 42 43  2  0  0  0
 43 44  1  0  0  0
  4  5  1  0  0  0
  5  6  2  0  0  0
  6  7  1  0  0  0
  7  8  2  0  0  0
  8  9  1  0  0  0
  9 10  2  0  0  0
 19 29  1  0  0  0
 29 30  1  0  0  0
 29 31  1  0  0  0
 29 32  1  0  0  0
 28 23  1  0  0  0
 21 17  1  0  0  0
 10  1  1  0  0  0
 44 34  1  0  0  0
 10  5  1  0  0  0
 44 38  2  0  0  0
 11 15  1  0  0  0
 14 16  1  0  0  0
 39 45  1  0  0  0
M  END
> <minimizedAffinity>
-8.78257

> <CNNscore>
0.1325325072

> <CNNaffinity>
7.1243567467

> <CNN_VS>
0.9442088604

> <CNNaffinity_variance>
0.5613713264

$$$$
[H]c1nc2c(nc([H])c(=O)n2[H])c(Oc2c([H])c([H])c(N([H])C(=O)N([H])c3c([H])c(C(C([H])([H])[H])(C([H])([H])[H])C([H])([H])[H])nn3-c3c([H])c([H])c(C([H])([H])[H])c([H])c3[H])c3c([H])c([H])c([H])c([H])c23)c1[H]


 45 50  0  0  0  0  0  0  0  0999 V2000
  -18.9735   10.5372  -17.6303 C   0  0  0  0  0  0  0  0  0  0  0  0
  -18.5067    9.2525  -17.4777 C   0  0  0  0  0  0  0  0  0  0  0  0
  -18.8775    8.4800  -16.3698 C   0  0  0  0  0  0  0  0  0  0  0  0
  -19.7142    8.9639  -15.3944 C   0  0  0  0  0  0  0  0  0  0  0  0
  -20.1801   10.2412  -15.5463 C   0  0  0  0  0  0  0  0  0  0  0  0
  -21.0452   10.7532  -14.6160 C   0  0  0  0  0  0  0  0  0  0  0  0
  -21.5575   12.0384  -14.7567 C   0  0  0  0  0  0  0  0  0  0  0  0
  -21.2043   12.8163  -15.8347 C   0  0  0  0  0  0  0  0  0  0  0  0
  -20.3283   12.3106  -16.7909 C   0  0  0  0  0  0  0  0  0  0  0  0
  -19.8331   11.0418  -16.6362 C   0  0  0  0  0  0  0  0  0  0  0  0
  -16.7725   12.2521  -20.2358 N   0  0  0  0  0  0  0  0  0  0  0  0
  -17.2620   11.4707  -19.2168 C   0  0  0  0  0  0  0  0  0  0  0  0
  -16.3380   10.7331  -18.6491 O   0  0  0  0  0  0  0  0  0  0  0  0
  -18.5682   11.3760  -18.7181 N   0  0  0  0  0  0  0  0  0  0  0  0
  -15.6377   12.1362  -20.3868 H   0  0  0  0  0  0  0  0  0  0  0  0
  -19.3359   11.9820  -19.1048 H   0  0  0  0  0  0  0  0  0  0  0  0
  -18.1204   14.0444  -21.3121 N   0  0  0  0  0  0  0  0  0  0  0  0
  -18.1409   14.5166  -22.5785 N   0  0  0  0  0  0  0  0  0  0  0  0
  -17.3456   13.8349  -23.3629 C   0  0  0  0  0  0  0  0  0  0  0  0
  -16.7653   12.8674  -22.5977 C   0  0  0  0  0  0  0  0  0  0  0  0
  -17.2947   13.0373  -21.2591 C   0  0  0  0  0  0  0  0  0  0  0  0
  -21.8342   16.1802  -17.5131 C   0  0  0  0  0  0  0  0  0  0  0  0
  -20.8648   15.6336  -18.5115 C   0  0  0  0  0  0  0  0  0  0  0  0
  -21.2314   14.6118  -19.3913 C   0  0  0  0  0  0  0  0  0  0  0  0
  -20.3195   14.1307  -20.2999 C   0  0  0  0  0  0  0  0  0  0  0  0
  -19.0152   14.6307  -20.3841 C   0  0  0  0  0  0  0  0  0  0  0  0
  -18.6936   15.6372  -19.5013 C   0  0  0  0  0  0  0  0  0  0  0  0
  -19.5875   16.1345  -18.5832 C   0  0  0  0  0  0  0  0  0  0  0  0
  -17.0836   14.0405  -24.8438 C   0  0  0  0  0  0  0  0  0  0  0  0
  -15.5907   14.1014  -25.0845 C   0  0  0  0  0  0  0  0  0  0  0  0
  -17.6921   15.3561  -25.2279 C   0  0  0  0  0  0  0  0  0  0  0  0
  -17.7111   12.8710  -25.5559 C   0  0  0  0  0  0  0  0  0  0  0  0
  -20.0143    8.1454  -14.3582 O   0  0  0  0  0  0  0  0  0  0  0  0
  -20.9587    7.1800  -14.2172 C   0  0  0  0  0  0  0  0  0  0  0  0
  -21.1910    6.1878  -15.1318 C   0  0  0  0  0  0  0  0  0  0  0  0
  -22.1511    5.2197  -14.9678 C   0  0  0  0  0  0  0  0  0  0  0  0
  -22.9165    5.2115  -13.8763 N   0  0  0  0  0  0  0  0  0  0  0  0
  -22.7324    6.1664  -12.9379 C   0  0  0  0  0  0  0  0  0  0  0  0
  -23.5397    6.1097  -11.8479 N   0  0  0  0  0  0  0  0  0  0  0  0
  -23.3828    7.0482  -10.8921 C   0  0  0  0  0  0  0  0  0  0  0  0
  -24.1399    6.9766   -9.8891 O   0  0  0  0  0  0  0  0  0  0  0  0
  -22.4277    8.0300  -11.0304 C   0  0  0  0  0  0  0  0  0  0  0  0
  -21.6200    8.0749  -12.1351 N   0  0  0  0  0  0  0  0  0  0  0  0
  -21.7773    7.1478  -13.0781 C   0  0  0  0  0  0  0  0  0  0  0  0
  -24.2630    5.3651  -11.7414 H   0  0  0  0  0  0  0  0  0  0  0  0
 22 23  1  0  0  0
 23 24  2  0  0  0
 24 25  1  0  0  0
 25 26  2  0  0  0
 26 27  1  0  0  0
 27 28  2  0  0  0
 26 17  1  0  0  0
 17 18  1  0  0  0
 18 19  2  0  0  0
 19 20  1  0  0  0
 20 21  2  0  0  0
 21 11  1  0  0  0
 11 12  1  0  0  0
 12 13  2  0  0  0
 12 14  1  0  0  0
 14  1  1  0  0  0
  1  2  2  0  0  0
  2  3  1  0  0  0
  3  4  2  0  0  0
  4 33  1  0  0  0
 33 34  1  0  0  0
 34 35  2  0  0  0
 35 36  1  0  0  0
 36 37  2  0  0  0
 37 38  1  0  0  0
 38 39  1  0  0  0
 39 40  1  0  0  0
 40 41  2  0  0  0
 40 42  1  0  0  0
 42 43  2  0  0  0
 43 44  1  0  0  0
  4  5  1  0  0  0
  5  6  2  0  0  0
  6  7  1  0  0  0
  7  8  2  0  0  0
  8  9  1  0  0  0
  9 10  2  0  0  0
 19 29  1  0  0  0
 29 30  1  0  0  0
 29 31  1  0  0  0
 29 32  1  0  0  0
 28 23  1  0  0  0
 21 17  1  0  0  0
 10  1  1  0  0  0
 44 34  1  0  0  0
 10  5  1  0  0  0
 44 38  2  0  0  0
 11 15  1  0  0  0
 14 16  1  0  0  0
 39 45  1  0  0  0
M  END
> <minimizedAffinity>
-9.39304

> <CNNscore>
0.1250104755

> <CNNaffinity>
7.2016401291

> <CNN_VS>
0.9002804756

> <CNNaffinity_variance>
0.1956081092

$$$$
[H]c1nc2c(nc([H])c(=O)n2[H])c(Oc2c([H])c([H])c(N([H])C(=O)N([H])c3c([H])c(C(C([H])([H])[H])(C([H])([H])[H])C([H])([H])[H])nn3-c3c([H])c([H])c(C([H])([H])[H])c([H])c3[H])c3c([H])c([H])c([H])c([H])c23)c1[H]


 45 50  0  0  0  0  0  0  0  0999 V2000
  -19.8236   12.8145  -17.9727 C   0  0  0  0  0  0  0  0  0  0  0  0
  -20.5531   12.3244  -16.9148 C   0  0  0  0  0  0  0  0  0  0  0  0
  -20.3055   11.0444  -16.4029 C   0  0  0  0  0  0  0  0  0  0  0  0
  -19.3344   10.2277  -16.9277 C   0  0  0  0  0  0  0  0  0  0  0  0
  -18.6073   10.7153  -17.9791 C   0  0  0  0  0  0  0  0  0  0  0  0
  -17.6046    9.9493  -18.5119 C   0  0  0  0  0  0  0  0  0  0  0  0
  -16.8300   10.4276  -19.5632 C   0  0  0  0  0  0  0  0  0  0  0  0
  -17.0578   11.6801  -20.0842 C   0  0  0  0  0  0  0  0  0  0  0  0
  -18.0711   12.4728  -19.5529 C   0  0  0  0  0  0  0  0  0  0  0  0
  -18.8247   11.9852  -18.5169 C   0  0  0  0  0  0  0  0  0  0  0  0
  -21.2337   15.4906  -20.3018 N   0  0  0  0  0  0  0  0  0  0  0  0
  -20.9303   14.3145  -19.6588 C   0  0  0  0  0  0  0  0  0  0  0  0
  -21.5248   13.2732  -20.1904 O   0  0  0  0  0  0  0  0  0  0  0  0
  -20.0893   14.0935  -18.5599 N   0  0  0  0  0  0  0  0  0  0  0  0
  -21.9320   15.3432  -21.2044 H   0  0  0  0  0  0  0  0  0  0  0  0
  -19.5506   14.8868  -18.1279 H   0  0  0  0  0  0  0  0  0  0  0  0
  -21.4098   17.9398  -20.6988 N   0  0  0  0  0  0  0  0  0  0  0  0
  -21.1066   19.0014  -19.9190 N   0  0  0  0  0  0  0  0  0  0  0  0
  -20.5599   18.6321  -18.7888 C   0  0  0  0  0  0  0  0  0  0  0  0
  -20.4927   17.2708  -18.8053 C   0  0  0  0  0  0  0  0  0  0  0  0
  -21.0614   16.8520  -20.0712 C   0  0  0  0  0  0  0  0  0  0  0  0
  -23.6838   19.0564  -25.8339 C   0  0  0  0  0  0  0  0  0  0  0  0
  -23.0814   18.7571  -24.4987 C   0  0  0  0  0  0  0  0  0  0  0  0
  -23.7736   18.0069  -23.5445 C   0  0  0  0  0  0  0  0  0  0  0  0
  -23.1935   17.7459  -22.3263 C   0  0  0  0  0  0  0  0  0  0  0  0
  -21.9146   18.2071  -21.9948 C   0  0  0  0  0  0  0  0  0  0  0  0
  -21.2652   18.9412  -22.9619 C   0  0  0  0  0  0  0  0  0  0  0  0
  -21.8244   19.2160  -24.1870 C   0  0  0  0  0  0  0  0  0  0  0  0
  -20.0770   19.5089  -17.6477 C   0  0  0  0  0  0  0  0  0  0  0  0
  -19.1047   20.5375  -18.1835 C   0  0  0  0  0  0  0  0  0  0  0  0
  -19.3596   18.6223  -16.6743 C   0  0  0  0  0  0  0  0  0  0  0  0
  -21.3017   20.1595  -17.0599 C   0  0  0  0  0  0  0  0  0  0  0  0
  -19.1693    9.0051  -16.3695 O   0  0  0  0  0  0  0  0  0  0  0  0
  -19.5042    8.5210  -15.1459 C   0  0  0  0  0  0  0  0  0  0  0  0
  -19.0317    9.0210  -13.9620 C   0  0  0  0  0  0  0  0  0  0  0  0
  -19.3854    8.5166  -12.7347 C   0  0  0  0  0  0  0  0  0  0  0  0
  -20.2291    7.4879  -12.6495 N   0  0  0  0  0  0  0  0  0  0  0  0
  -20.7288    6.9527  -13.7854 C   0  0  0  0  0  0  0  0  0  0  0  0
  -21.5826    5.9073  -13.6392 N   0  0  0  0  0  0  0  0  0  0  0  0
  -22.0996    5.3492  -14.7529 C   0  0  0  0  0  0  0  0  0  0  0  0
  -22.8903    4.3826  -14.5953 O   0  0  0  0  0  0  0  0  0  0  0  0
  -21.7626    5.8353  -15.9962 C   0  0  0  0  0  0  0  0  0  0  0  0
  -20.9003    6.8906  -16.1287 N   0  0  0  0  0  0  0  0  0  0  0  0
  -20.3904    7.4396  -15.0278 C   0  0  0  0  0  0  0  0  0  0  0  0
  -21.8399    5.5391  -12.6973 H   0  0  0  0  0  0  0  0  0  0  0  0
 22 23  1  0  0  0
 23 24  2  0  0  0
 24 25  1  0  0  0
 25 26  2  0  0  0
 26 27  1  0  0  0
 27 28  2  0  0  0
 26 17  1  0  0  0
 17 18  1  0  0  0
 18 19  2  0  0  0
 19 20  1  0  0  0
 20 21  2  0  0  0
 21 11  1  0  0  0
 11 12  1  0  0  0
 12 13  2  0  0  0
 12 14  1  0  0  0
 14  1  1  0  0  0
  1  2  2  0  0  0
  2  3  1  0  0  0
  3  4  2  0  0  0
  4 33  1  0  0  0
 33 34  1  0  0  0
 34 35  2  0  0  0
 35 36  1  0  0  0
 36 37  2  0  0  0
 37 38  1  0  0  0
 38 39  1  0  0  0
 39 40  1  0  0  0
 40 41  2  0  0  0
 40 42  1  0  0  0
 42 43  2  0  0  0
 43 44  1  0  0  0
  4  5  1  0  0  0
  5  6  2  0  0  0
  6  7  1  0  0  0
  7  8  2  0  0  0
  8  9  1  0  0  0
  9 10  2  0  0  0
 19 29  1  0  0  0
 29 30  1  0  0  0
 29 31  1  0  0  0
 29 32  1  0  0  0
 28 23  1  0  0  0
 21 17  1  0  0  0
 10  1  1  0  0  0
 44 34  1  0  0  0
 10  5  1  0  0  0
 44 38  2  0  0  0
 11 15  1  0  0  0
 14 16  1  0  0  0
 39 45  1  0  0  0
M  END
> <minimizedAffinity>
-9.52721

> <CNNscore>
0.0667278990

> <CNNaffinity>
6.7291741371

> <CNN_VS>
0.4490236640

> <CNNaffinity_variance>
0.2082120925

$$$$
[H]c1nc2c(nc([H])c(=O)n2[H])c(Oc2c([H])c([H])c(N([H])C(=O)N([H])c3c([H])c(C(C([H])([H])[H])(C([H])([H])[H])C([H])([H])[H])nn3-c3c([H])c([H])c(C([H])([H])[H])c([H])c3[H])c3c([H])c([H])c([H])c([H])c23)c1[H]


 45 50  0  0  0  0  0  0  0  0999 V2000
  -18.8472   11.1833  -17.6752 C   0  0  0  0  0  0  0  0  0  0  0  0
  -17.9201   10.6159  -18.5180 C   0  0  0  0  0  0  0  0  0  0  0  0
  -17.7363   11.1048  -19.8175 C   0  0  0  0  0  0  0  0  0  0  0  0
  -18.4655   12.1607  -20.3062 C   0  0  0  0  0  0  0  0  0  0  0  0
  -19.3868   12.7265  -19.4678 C   0  0  0  0  0  0  0  0  0  0  0  0
  -20.1123   13.8047  -19.9005 C   0  0  0  0  0  0  0  0  0  0  0  0
  -21.0369   14.4188  -19.0626 C   0  0  0  0  0  0  0  0  0  0  0  0
  -21.2366   13.9534  -17.7838 C   0  0  0  0  0  0  0  0  0  0  0  0
  -20.5059   12.8603  -17.3270 C   0  0  0  0  0  0  0  0  0  0  0  0
  -19.5988   12.2674  -18.1665 C   0  0  0  0  0  0  0  0  0  0  0  0
  -19.4519    8.7263  -14.8166 N   0  0  0  0  0  0  0  0  0  0  0  0
  -19.1938    9.3129  -16.0322 C   0  0  0  0  0  0  0  0  0  0  0  0
  -19.0264    8.4393  -16.9961 O   0  0  0  0  0  0  0  0  0  0  0  0
  -19.1038   10.6718  -16.3623 N   0  0  0  0  0  0  0  0  0  0  0  0
  -19.5004    7.5781  -14.8718 H   0  0  0  0  0  0  0  0  0  0  0  0
  -19.2788   11.4134  -15.6372 H   0  0  0  0  0  0  0  0  0  0  0  0
  -20.3212    9.8761  -12.7892 N   0  0  0  0  0  0  0  0  0  0  0  0
  -19.9790    9.7809  -11.4851 N   0  0  0  0  0  0  0  0  0  0  0  0
  -18.9566    8.9833  -11.3093 C   0  0  0  0  0  0  0  0  0  0  0  0
  -18.5958    8.5215  -12.5400 C   0  0  0  0  0  0  0  0  0  0  0  0
  -19.5141    9.1256  -13.4850 C   0  0  0  0  0  0  0  0  0  0  0  0
  -24.3273   13.7583  -14.0802 C   0  0  0  0  0  0  0  0  0  0  0  0
  -23.2905   12.7360  -13.7406 C   0  0  0  0  0  0  0  0  0  0  0  0
  -22.4963   12.8631  -12.5980 C   0  0  0  0  0  0  0  0  0  0  0  0
  -21.5527   11.9064  -12.3102 C   0  0  0  0  0  0  0  0  0  0  0  0
  -21.3500   10.7887  -13.1275 C   0  0  0  0  0  0  0  0  0  0  0  0
  -22.1530   10.6994  -14.2425 C   0  0  0  0  0  0  0  0  0  0  0  0
  -23.1029   11.6433  -14.5520 C   0  0  0  0  0  0  0  0  0  0  0  0
  -18.2680    8.6106  -10.0088 C   0  0  0  0  0  0  0  0  0  0  0  0
  -17.2516    7.5213  -10.2746 C   0  0  0  0  0  0  0  0  0  0  0  0
  -19.3196    8.0787   -9.0816 C   0  0  0  0  0  0  0  0  0  0  0  0
  -17.6118    9.8660   -9.4969 C   0  0  0  0  0  0  0  0  0  0  0  0
  -18.2210   12.5619  -21.5762 O   0  0  0  0  0  0  0  0  0  0  0  0
  -17.0592   12.7524  -22.2527 C   0  0  0  0  0  0  0  0  0  0  0  0
  -16.0828   11.8027  -22.3931 C   0  0  0  0  0  0  0  0  0  0  0  0
  -14.9154   12.0166  -23.0838 C   0  0  0  0  0  0  0  0  0  0  0  0
  -14.6833   13.1958  -23.6609 N   0  0  0  0  0  0  0  0  0  0  0  0
  -15.6118   14.1721  -23.5564 C   0  0  0  0  0  0  0  0  0  0  0  0
  -15.3228   15.3518  -24.1630 N   0  0  0  0  0  0  0  0  0  0  0  0
  -16.2280   16.3481  -24.0777 C   0  0  0  0  0  0  0  0  0  0  0  0
  -15.9415   17.4328  -24.6484 O   0  0  0  0  0  0  0  0  0  0  0  0
  -17.4071   16.1608  -23.3921 C   0  0  0  0  0  0  0  0  0  0  0  0
  -17.6856   14.9654  -22.7853 N   0  0  0  0  0  0  0  0  0  0  0  0
  -16.7900   13.9834  -22.8699 C   0  0  0  0  0  0  0  0  0  0  0  0
  -14.4301   15.4944  -24.6841 H   0  0  0  0  0  0  0  0  0  0  0  0
 22 23  1  0  0  0
 23 24  2  0  0  0
 24 25  1  0  0  0
 25 26  2  0  0  0
 26 27  1  0  0  0
 27 28  2  0  0  0
 26 17  1  0  0  0
 17 18  1  0  0  0
 18 19  2  0  0  0
 19 20  1  0  0  0
 20 21  2  0  0  0
 21 11  1  0  0  0
 11 12  1  0  0  0
 12 13  2  0  0  0
 12 14  1  0  0  0
 14  1  1  0  0  0
  1  2  2  0  0  0
  2  3  1  0  0  0
  3  4  2  0  0  0
  4 33  1  0  0  0
 33 34  1  0  0  0
 34 35  2  0  0  0
 35 36  1  0  0  0
 36 37  2  0  0  0
 37 38  1  0  0  0
 38 39  1  0  0  0
 39 40  1  0  0  0
 40 41  2  0  0  0
 40 42  1  0  0  0
 42 43  2  0  0  0
 43 44  1  0  0  0
  4  5  1  0  0  0
  5  6  2  0  0  0
  6  7  1  0  0  0
  7  8  2  0  0  0
  8  9  1  0  0  0
  9 10  2  0  0  0
 19 29  1  0  0  0
 29 30  1  0  0  0
 29 31  1  0  0  0
 29 32  1  0  0  0
 28 23  1  0  0  0
 21 17  1  0  0  0
 10  1  1  0  0  0
 44 34  1  0  0  0
 10  5  1  0  0  0
 44 38  2  0  0  0
 11 15  1  0  0  0
 14 16  1  0  0  0
 39 45  1  0  0  0
M  END
> <minimizedAffinity>
-9.46669

> <CNNscore>
0.0620158501

> <CNNaffinity>
6.9160895348

> <CNN_VS>
0.4289071858

> <CNNaffinity_variance>
0.1284184009

$$$$
[H]c1nc2c(nc([H])c(=O)n2[H])c(Oc2c([H])c([H])c(N([H])C(=O)N([H])c3c([H])c(C(C([H])([H])[H])(C([H])([H])[H])C([H])([H])[H])nn3-c3c([H])c([H])c(C([H])([H])[H])c([H])c3[H])c3c([H])c([H])c([H])c([H])c23)c1[H]


 45 50  0  0  0  0  0  0  0  0999 V2000
  -19.1006   12.2228  -18.5642 C   0  0  0  0  0  0  0  0  0  0  0  0
  -18.0276   11.6532  -19.2091 C   0  0  0  0  0  0  0  0  0  0  0  0
  -17.5975   12.1353  -20.4518 C   0  0  0  0  0  0  0  0  0  0  0  0
  -18.2204   13.1866  -21.0780 C   0  0  0  0  0  0  0  0  0  0  0  0
  -19.2869   13.7547  -20.4363 C   0  0  0  0  0  0  0  0  0  0  0  0
  -19.9170   14.8285  -21.0071 C   0  0  0  0  0  0  0  0  0  0  0  0
  -20.9867   15.4448  -20.3667 C   0  0  0  0  0  0  0  0  0  0  0  0
  -21.4284   14.9860  -19.1476 C   0  0  0  0  0  0  0  0  0  0  0  0
  -20.7978   13.8974  -18.5521 C   0  0  0  0  0  0  0  0  0  0  0  0
  -19.7450   13.3023  -19.1975 C   0  0  0  0  0  0  0  0  0  0  0  0
  -19.8236   11.9012  -14.8295 N   0  0  0  0  0  0  0  0  0  0  0  0
  -19.4007   12.3136  -16.0703 C   0  0  0  0  0  0  0  0  0  0  0  0
  -18.6986   13.4207  -16.0292 O   0  0  0  0  0  0  0  0  0  0  0  0
  -19.6046   11.7180  -17.3222 N   0  0  0  0  0  0  0  0  0  0  0  0
  -19.4621   12.5874  -13.9795 H   0  0  0  0  0  0  0  0  0  0  0  0
  -20.1180   10.8038  -17.4048 H   0  0  0  0  0  0  0  0  0  0  0  0
  -20.7244   10.1860  -13.2693 N   0  0  0  0  0  0  0  0  0  0  0  0
  -21.9354    9.5910  -13.1888 N   0  0  0  0  0  0  0  0  0  0  0  0
  -22.7223    9.9592  -14.1674 C   0  0  0  0  0  0  0  0  0  0  0  0
  -22.0172   10.8363  -14.9366 C   0  0  0  0  0  0  0  0  0  0  0  0
  -20.7134   10.9627  -14.3159 C   0  0  0  0  0  0  0  0  0  0  0  0
  -16.9015    8.7096   -9.2702 C   0  0  0  0  0  0  0  0  0  0  0  0
  -17.8902    9.0961  -10.3230 C   0  0  0  0  0  0  0  0  0  0  0  0
  -18.5565   10.3234  -10.2741 C   0  0  0  0  0  0  0  0  0  0  0  0
  -19.4585   10.6523  -11.2573 C   0  0  0  0  0  0  0  0  0  0  0  0
  -19.7429    9.7950  -12.3261 C   0  0  0  0  0  0  0  0  0  0  0  0
  -19.0652    8.5965  -12.3389 C   0  0  0  0  0  0  0  0  0  0  0  0
  -18.1592    8.2445  -11.3671 C   0  0  0  0  0  0  0  0  0  0  0  0
  -24.1510    9.5242  -14.4390 C   0  0  0  0  0  0  0  0  0  0  0  0
  -24.6144    8.6059  -13.3289 C   0  0  0  0  0  0  0  0  0  0  0  0
  -24.1495    8.7630  -15.7309 C   0  0  0  0  0  0  0  0  0  0  0  0
  -24.9777   10.7819  -14.4973 C   0  0  0  0  0  0  0  0  0  0  0  0
  -17.7364   13.5814  -22.2795 O   0  0  0  0  0  0  0  0  0  0  0  0
  -17.0606   14.6974  -22.6557 C   0  0  0  0  0  0  0  0  0  0  0  0
  -16.6425   15.6746  -21.7925 C   0  0  0  0  0  0  0  0  0  0  0  0
  -15.9583   16.7951  -22.1950 C   0  0  0  0  0  0  0  0  0  0  0  0
  -15.6675   16.9776  -23.4832 N   0  0  0  0  0  0  0  0  0  0  0  0
  -16.0546   16.0456  -24.3821 C   0  0  0  0  0  0  0  0  0  0  0  0
  -15.7323   16.2830  -25.6794 N   0  0  0  0  0  0  0  0  0  0  0  0
  -16.1040   15.3730  -26.6027 C   0  0  0  0  0  0  0  0  0  0  0  0
  -15.7939   15.6112  -27.7992 O   0  0  0  0  0  0  0  0  0  0  0  0
  -16.7904   14.2402  -26.2271 C   0  0  0  0  0  0  0  0  0  0  0  0
  -17.1086   14.0134  -24.9148 N   0  0  0  0  0  0  0  0  0  0  0  0
  -16.7413   14.9138  -24.0048 C   0  0  0  0  0  0  0  0  0  0  0  0
  -15.2108   17.1406  -25.9650 H   0  0  0  0  0  0  0  0  0  0  0  0
 22 23  1  0  0  0
 23 24  2  0  0  0
 24 25  1  0  0  0
 25 26  2  0  0  0
 26 27  1  0  0  0
 27 28  2  0  0  0
 26 17  1  0  0  0
 17 18  1  0  0  0
 18 19  2  0  0  0
 19 20  1  0  0  0
 20 21  2  0  0  0
 21 11  1  0  0  0
 11 12  1  0  0  0
 12 13  2  0  0  0
 12 14  1  0  0  0
 14  1  1  0  0  0
  1  2  2  0  0  0
  2  3  1  0  0  0
  3  4  2  0  0  0
  4 33  1  0  0  0
 33 34  1  0  0  0
 34 35  2  0  0  0
 35 36  1  0  0  0
 36 37  2  0  0  0
 37 38  1  0  0  0
 38 39  1  0  0  0
 39 40  1  0  0  0
 40 41  2  0  0  0
 40 42  1  0  0  0
 42 43  2  0  0  0
 43 44  1  0  0  0
  4  5  1  0  0  0
  5  6  2  0  0  0
  6  7  1  0  0  0
  7  8  2  0  0  0
  8  9  1  0  0  0
  9 10  2  0  0  0
 19 29  1  0  0  0
 29 30  1  0  0  0
 29 31  1  0  0  0
 29 32  1  0  0  0
 28 23  1  0  0  0
 21 17  1  0  0  0
 10  1  1  0  0  0
 44 34  1  0  0  0
 10  5  1  0  0  0
 44 38  2  0  0  0
 11 15  1  0  0  0
 14 16  1  0  0  0
 39 45  1  0  0  0
M  END
> <minimizedAffinity>
-9.99749

> <CNNscore>
0.0551078990

> <CNNaffinity>
6.8322157860

> <CNN_VS>
0.3765090704

> <CNNaffinity_variance>
0.0799648613

$$$$
[H]c1nc2c(nc([H])c(=O)n2[H])c(Oc2c([H])c([H])c(N([H])C(=O)N([H])c3c([H])c(C(C([H])([H])[H])(C([H])([H])[H])C([H])([H])[H])nn3-c3c([H])c([H])c(C([H])([H])[H])c([H])c3[H])c3c([H])c([H])c([H])c([H])c23)c1[H]


 45 50  0  0  0  0  0  0  0  0999 V2000
  -19.7091   11.8189  -17.3796 C   0  0  0  0  0  0  0  0  0  0  0  0
  -19.4412   10.5515  -16.9174 C   0  0  0  0  0  0  0  0  0  0  0  0
  -20.0095   10.0865  -15.7247 C   0  0  0  0  0  0  0  0  0  0  0  0
  -20.8504   10.8656  -14.9688 C   0  0  0  0  0  0  0  0  0  0  0  0
  -21.1186   12.1259  -15.4288 C   0  0  0  0  0  0  0  0  0  0  0  0
  -21.9798   12.9259  -14.7257 C   0  0  0  0  0  0  0  0  0  0  0  0
  -22.2936   14.2017  -15.1816 C   0  0  0  0  0  0  0  0  0  0  0  0
  -21.7445   14.6805  -16.3483 C   0  0  0  0  0  0  0  0  0  0  0  0
  -20.8693   13.8797  -17.0766 C   0  0  0  0  0  0  0  0  0  0  0  0
  -20.5714   12.6248  -16.6123 C   0  0  0  0  0  0  0  0  0  0  0  0
  -17.2642   12.2947  -20.2727 N   0  0  0  0  0  0  0  0  0  0  0  0
  -17.9327   11.8497  -19.1575 C   0  0  0  0  0  0  0  0  0  0  0  0
  -17.3546   10.8163  -18.5934 O   0  0  0  0  0  0  0  0  0  0  0  0
  -19.0992   12.3483  -18.5623 N   0  0  0  0  0  0  0  0  0  0  0  0
  -16.3060   11.6966  -20.4920 H   0  0  0  0  0  0  0  0  0  0  0  0
  -19.5739   13.2049  -18.9459 H   0  0  0  0  0  0  0  0  0  0  0  0
  -17.9346   14.4043  -21.4075 N   0  0  0  0  0  0  0  0  0  0  0  0
  -17.8190   14.8108  -22.6914 N   0  0  0  0  0  0  0  0  0  0  0  0
  -17.3252   13.8698  -23.4551 C   0  0  0  0  0  0  0  0  0  0  0  0
  -17.0976   12.7882  -22.6572 C   0  0  0  0  0  0  0  0  0  0  0  0
  -17.5061   13.1764  -21.3217 C   0  0  0  0  0  0  0  0  0  0  0  0
  -20.6432   17.8645  -17.7363 C   0  0  0  0  0  0  0  0  0  0  0  0
  -19.9288   16.9709  -18.6989 C   0  0  0  0  0  0  0  0  0  0  0  0
  -20.5829   16.4370  -19.8123 C   0  0  0  0  0  0  0  0  0  0  0  0
  -19.8998   15.6202  -20.6811 C   0  0  0  0  0  0  0  0  0  0  0  0
  -18.5514   15.2952  -20.4955 C   0  0  0  0  0  0  0  0  0  0  0  0
  -17.9428   15.8419  -19.3880 C   0  0  0  0  0  0  0  0  0  0  0  0
  -18.6046   16.6606  -18.5044 C   0  0  0  0  0  0  0  0  0  0  0  0
  -17.0413   13.9213  -24.9454 C   0  0  0  0  0  0  0  0  0  0  0  0
  -15.5449   13.9033  -25.1709 C   0  0  0  0  0  0  0  0  0  0  0  0
  -17.5955   15.2151  -25.4625 C   0  0  0  0  0  0  0  0  0  0  0  0
  -17.7060   12.7123  -25.5498 C   0  0  0  0  0  0  0  0  0  0  0  0
  -21.3493   10.3322  -13.8285 O   0  0  0  0  0  0  0  0  0  0  0  0
  -21.0120   10.5145  -12.5260 C   0  0  0  0  0  0  0  0  0  0  0  0
  -21.5448   11.4839  -11.7189 C   0  0  0  0  0  0  0  0  0  0  0  0
  -21.1900   11.6492  -10.4026 C   0  0  0  0  0  0  0  0  0  0  0  0
  -20.2840   10.8455   -9.8455 N   0  0  0  0  0  0  0  0  0  0  0  0
  -19.7237    9.8693  -10.5936 C   0  0  0  0  0  0  0  0  0  0  0  0
  -18.8075    9.0811   -9.9752 N   0  0  0  0  0  0  0  0  0  0  0  0
  -18.2285    8.0972  -10.6932 C   0  0  0  0  0  0  0  0  0  0  0  0
  -17.3833    7.3769  -10.1007 O   0  0  0  0  0  0  0  0  0  0  0  0
  -18.5658    7.9085  -12.0146 C   0  0  0  0  0  0  0  0  0  0  0  0
  -19.4920    8.7109  -12.6255 N   0  0  0  0  0  0  0  0  0  0  0  0
  -20.0618    9.6824  -11.9149 C   0  0  0  0  0  0  0  0  0  0  0  0
  -18.5521    9.2224   -8.9733 H   0  0  0  0  0  0  0  0  0  0  0  0
 22 23  1  0  0  0
 23 24  2  0  0  0
 24 25  1  0  0  0
 25 26  2  0  0  0
 26 27  1  0  0  0
 27 28  2  0  0  0
 26 17  1  0  0  0
 17 18  1  0  0  0
 18 19  2  0  0  0
 19 20  1  0  0  0
 20 21  2  0  0  0
 21 11  1  0  0  0
 11 12  1  0  0  0
 12 13  2  0  0  0
 12 14  1  0  0  0
 14  1  1  0  0  0
  1  2  2  0  0  0
  2  3  1  0  0  0
  3  4  2  0  0  0
  4 33  1  0  0  0
 33 34  1  0  0  0
 34 35  2  0  0  0
 35 36  1  0  0  0
 36 37  2  0  0  0
 37 38  1  0  0  0
 38 39  1  0  0  0
 39 40  1  0  0  0
 40 41  2  0  0  0
 40 42  1  0  0  0
 42 43  2  0  0  0
 43 44  1  0  0  0
  4  5  1  0  0  0
  5  6  2  0  0  0
  6  7  1  0  0  0
  7  8  2  0  0  0
  8  9  1  0  0  0
  9 10  2  0  0  0
 19 29  1  0  0  0
 29 30  1  0  0  0
 29 31  1  0  0  0
 29 32  1  0  0  0
 28 23  1  0  0  0
 21 17  1  0  0  0
 10  1  1  0  0  0
 44 34  1  0  0  0
 10  5  1  0  0  0
 44 38  2  0  0  0
 11 15  1  0  0  0
 14 16  1  0  0  0
 39 45  1  0  0  0
M  END
> <minimizedAffinity>
-9.51478

> <CNNscore>
0.0547472090

> <CNNaffinity>
7.0041084290

> <CNN_VS>
0.3834553957

> <CNNaffinity_variance>
0.2851888239

$$$$
[H]c1nc(N([H])c2c([H])c([H])c(N3C([H])([H])C([H])([H])N(C([H])([H])[H])C([H])([H])C3([H])[H])c([H])c2[H])nc([H])c1N([H])C(=O)c1c([H])c(N([H])C(=O)c2c([H])c([H])c([H])c(C(F)(F)F)c2[H])c([H])c([H])c1C([H])([H])[H]


 46 50  0  0  0  0  0  0  0  0999 V2000
  -16.7449   13.3749  -21.0830 N   0  0  0  0  0  0  0  0  0  0  0  0
  -17.0092   13.5599  -22.4160 C   0  0  0  0  0  0  0  0  0  0  0  0
  -17.4331   12.6107  -23.1189 O   0  0  0  0  0  0  0  0  0  0  0  0
  -16.2125   14.1746  -20.5899 H   0  0  0  0  0  0  0  0  0  0  0  0
  -16.8335   14.8654  -23.0870 C   0  0  0  0  0  0  0  0  0  0  0  0
  -17.6997   15.9474  -22.7778 C   0  0  0  0  0  0  0  0  0  0  0  0
  -17.5810   17.1465  -23.3539 C   0  0  0  0  0  0  0  0  0  0  0  0
  -16.5556   17.3391  -24.3133 C   0  0  0  0  0  0  0  0  0  0  0  0
  -15.7279   16.3074  -24.6081 C   0  0  0  0  0  0  0  0  0  0  0  0
  -15.8302   15.0384  -24.0086 C   0  0  0  0  0  0  0  0  0  0  0  0
  -14.7699   14.0526  -24.3555 C   0  0  0  0  0  0  0  0  0  0  0  0
  -18.3302   18.3485  -23.0387 N   0  0  0  0  0  0  0  0  0  0  0  0
  -19.7210   18.2959  -23.3096 C   0  0  0  0  0  0  0  0  0  0  0  0
  -20.1030   17.1541  -23.8637 O   0  0  0  0  0  0  0  0  0  0  0  0
  -17.8506   19.1388  -22.6466 H   0  0  0  0  0  0  0  0  0  0  0  0
  -20.7657   19.2364  -23.0886 C   0  0  0  0  0  0  0  0  0  0  0  0
  -20.8971   19.9844  -21.9625 C   0  0  0  0  0  0  0  0  0  0  0  0
  -21.9779   20.8315  -21.7890 C   0  0  0  0  0  0  0  0  0  0  0  0
  -22.9666   20.9624  -22.7320 C   0  0  0  0  0  0  0  0  0  0  0  0
  -22.8646   20.2223  -23.8868 C   0  0  0  0  0  0  0  0  0  0  0  0
  -21.7890   19.3898  -24.0451 C   0  0  0  0  0  0  0  0  0  0  0  0
  -23.9006   20.3158  -24.9314 C   0  0  0  0  0  0  0  0  0  0  0  0
  -24.8105   21.3008  -24.5786 F   0  0  0  0  0  0  0  0  0  0  0  0
  -23.3676   20.5191  -26.2011 F   0  0  0  0  0  0  0  0  0  0  0  0
  -24.6178   19.1261  -24.9904 F   0  0  0  0  0  0  0  0  0  0  0  0
  -17.7932   10.1779  -18.5629 C   0  0  0  0  0  0  0  0  0  0  0  0
  -17.0829    9.9560  -19.6561 N   0  0  0  0  0  0  0  0  0  0  0  0
  -16.6685   10.9442  -20.5151 C   0  0  0  0  0  0  0  0  0  0  0  0
  -16.9779   12.2324  -20.2729 C   0  0  0  0  0  0  0  0  0  0  0  0
  -17.7391   12.4826  -19.0959 C   0  0  0  0  0  0  0  0  0  0  0  0
  -18.0988   11.4922  -18.3260 N   0  0  0  0  0  0  0  0  0  0  0  0
  -18.2677    9.1936  -17.6957 N   0  0  0  0  0  0  0  0  0  0  0  0
  -17.8716    8.1974  -17.8605 H   0  0  0  0  0  0  0  0  0  0  0  0
  -20.9368    9.4279  -14.4027 C   0  0  0  0  0  0  0  0  0  0  0  0
  -20.9789   10.3407  -15.4373 C   0  0  0  0  0  0  0  0  0  0  0  0
  -20.1228   10.2858  -16.5184 C   0  0  0  0  0  0  0  0  0  0  0  0
  -19.1689    9.3012  -16.6230 C   0  0  0  0  0  0  0  0  0  0  0  0
  -19.1132    8.3598  -15.5720 C   0  0  0  0  0  0  0  0  0  0  0  0
  -19.9637    8.4157  -14.4995 C   0  0  0  0  0  0  0  0  0  0  0  0
  -22.3686   12.3464  -11.6106 C   0  0  0  0  0  0  0  0  0  0  0  0
  -22.6686   10.9774  -11.2225 N   0  0  0  0  0  0  0  0  0  0  0  0
  -21.5192   10.1725  -11.0507 C   0  0  0  0  0  0  0  0  0  0  0  0
  -21.4770    8.9626  -11.9635 C   0  0  0  0  0  0  0  0  0  0  0  0
  -21.8154    9.4563  -13.2944 N   0  0  0  0  0  0  0  0  0  0  0  0
  -23.1885    9.9952  -13.4016 C   0  0  0  0  0  0  0  0  0  0  0  0
  -23.6934   10.4067  -12.0491 C   0  0  0  0  0  0  0  0  0  0  0  0
 40 41  1  0  0  0
 41 42  1  0  0  0
 42 43  1  0  0  0
 43 44  1  0  0  0
 44 45  1  0  0  0
 45 46  1  0  0  0
 44 34  1  0  0  0
 34 35  2  0  0  0
 35 36  1  0  0  0
 36 37  2  0  0  0
 37 32  1  0  0  0
 32 26  1  0  0  0
 26 27  2  0  0  0
 27 28  1  0  0  0
 28 29  2  0  0  0
 29  1  1  0  0  0
  1  2  1  0  0  0
  2  3  2  0  0  0
  2  5  1  0  0  0
  5  6  2  0  0  0
  6  7  1  0  0  0
  7 12  1  0  0  0
 12 13  1  0  0  0
 13 14  2  0  0  0
 13 16  1  0  0  0
 16 17  2  0  0  0
 17 18  1  0  0  0
 18 19  2  0  0  0
 19 20  1  0  0  0
 20 21  2  0  0  0
 20 22  1  0  0  0
 22 23  1  0  0  0
 22 24  1  0  0  0
 22 25  1  0  0  0
  7  8  2  0  0  0
  8  9  1  0  0  0
  9 10  2  0  0  0
 10 11  1  0  0  0
 29 30  1  0  0  0
 30 31  2  0  0  0
 37 38  1  0  0  0
 38 39  2  0  0  0
 46 41  1  0  0  0
 39 34  1  0  0  0
 31 26  1  0  0  0
 10  5  1  0  0  0
 21 16  1  0  0  0
 32 33  1  0  0  0
  1  4  1  0  0  0
 12 15  1  0  0  0
M  END
> <minimizedAffinity>
-8.93139

> <CNNscore>
0.5888147354

> <CNNaffinity>
7.2318906784

> <CNN_VS>
4.2582435608

> <CNNaffinity_variance>
0.0602921024

$$$$
[H]c1nc(N([H])c2c([H])c([H])c(N3C([H])([H])C([H])([H])N(C([H])([H])[H])C([H])([H])C3([H])[H])c([H])c2[H])nc([H])c1N([H])C(=O)c1c([H])c(N([H])C(=O)c2c([H])c([H])c([H])c(C(F)(F)F)c2[H])c([H])c([H])c1C([H])([H])[H]


 46 50  0  0  0  0  0  0  0  0999 V2000
  -16.6697   13.4806  -21.4164 N   0  0  0  0  0  0  0  0  0  0  0  0
  -17.1394   13.7267  -22.6813 C   0  0  0  0  0  0  0  0  0  0  0  0
  -17.7743   12.8440  -23.3078 O   0  0  0  0  0  0  0  0  0  0  0  0
  -15.9802   14.2093  -21.0167 H   0  0  0  0  0  0  0  0  0  0  0  0
  -16.9475   15.0253  -23.3612 C   0  0  0  0  0  0  0  0  0  0  0  0
  -17.7426   16.1441  -22.9971 C   0  0  0  0  0  0  0  0  0  0  0  0
  -17.6064   17.3387  -23.5789 C   0  0  0  0  0  0  0  0  0  0  0  0
  -16.6360   17.4882  -24.6011 C   0  0  0  0  0  0  0  0  0  0  0  0
  -15.8762   16.4211  -24.9484 C   0  0  0  0  0  0  0  0  0  0  0  0
  -15.9977   15.1560  -24.3444 C   0  0  0  0  0  0  0  0  0  0  0  0
  -15.0071   14.1246  -24.7584 C   0  0  0  0  0  0  0  0  0  0  0  0
  -18.2790   18.5721  -23.2161 N   0  0  0  0  0  0  0  0  0  0  0  0
  -19.6925   18.5584  -23.3274 C   0  0  0  0  0  0  0  0  0  0  0  0
  -20.1686   17.4161  -23.8020 O   0  0  0  0  0  0  0  0  0  0  0  0
  -17.7348   19.3559  -22.9032 H   0  0  0  0  0  0  0  0  0  0  0  0
  -20.6770   19.5379  -23.0175 C   0  0  0  0  0  0  0  0  0  0  0  0
  -21.3398   20.2774  -23.9442 C   0  0  0  0  0  0  0  0  0  0  0  0
  -22.2375   21.2606  -23.5656 C   0  0  0  0  0  0  0  0  0  0  0  0
  -22.5056   21.5419  -22.2492 C   0  0  0  0  0  0  0  0  0  0  0  0
  -21.8549   20.8105  -21.2833 C   0  0  0  0  0  0  0  0  0  0  0  0
  -20.9708   19.8401  -21.6729 C   0  0  0  0  0  0  0  0  0  0  0  0
  -22.0970   21.0738  -19.8530 C   0  0  0  0  0  0  0  0  0  0  0  0
  -23.3387   21.6735  -19.7078 F   0  0  0  0  0  0  0  0  0  0  0  0
  -21.9659   19.9330  -19.0663 F   0  0  0  0  0  0  0  0  0  0  0  0
  -21.1643   21.9894  -19.3789 F   0  0  0  0  0  0  0  0  0  0  0  0
  -17.6208   10.3219  -18.8109 C   0  0  0  0  0  0  0  0  0  0  0  0
  -17.0210   10.0742  -19.9631 N   0  0  0  0  0  0  0  0  0  0  0  0
  -16.6442   11.0470  -20.8563 C   0  0  0  0  0  0  0  0  0  0  0  0
  -16.8768   12.3462  -20.5881 C   0  0  0  0  0  0  0  0  0  0  0  0
  -17.5185   12.6241  -19.3478 C   0  0  0  0  0  0  0  0  0  0  0  0
  -17.8489   11.6470  -18.5483 N   0  0  0  0  0  0  0  0  0  0  0  0
  -18.0564    9.3554  -17.9041 N   0  0  0  0  0  0  0  0  0  0  0  0
  -17.5729    8.3880  -17.9866 H   0  0  0  0  0  0  0  0  0  0  0  0
  -20.9077    9.5505  -14.7649 C   0  0  0  0  0  0  0  0  0  0  0  0
  -20.8545   10.5085  -15.7574 C   0  0  0  0  0  0  0  0  0  0  0  0
  -19.9376   10.4672  -16.7882 C   0  0  0  0  0  0  0  0  0  0  0  0
  -19.0158    9.4515  -16.8820 C   0  0  0  0  0  0  0  0  0  0  0  0
  -19.0575    8.4638  -15.8736 C   0  0  0  0  0  0  0  0  0  0  0  0
  -19.9681    8.5063  -14.8510 C   0  0  0  0  0  0  0  0  0  0  0  0
  -22.4109   12.4038  -11.9429 C   0  0  0  0  0  0  0  0  0  0  0  0
  -22.7765   11.0315  -11.6299 N   0  0  0  0  0  0  0  0  0  0  0  0
  -21.6653   10.1820  -11.4247 C   0  0  0  0  0  0  0  0  0  0  0  0
  -21.6069    9.0082  -12.3827 C   0  0  0  0  0  0  0  0  0  0  0  0
  -21.8496    9.5651  -13.7095 N   0  0  0  0  0  0  0  0  0  0  0  0
  -23.1961   10.1541  -13.8744 C   0  0  0  0  0  0  0  0  0  0  0  0
  -23.7677   10.5289  -12.5377 C   0  0  0  0  0  0  0  0  0  0  0  0
 40 41  1  0  0  0
 41 42  1  0  0  0
 42 43  1  0  0  0
 43 44  1  0  0  0
 44 45  1  0  0  0
 45 46  1  0  0  0
 44 34  1  0  0  0
 34 35  2  0  0  0
 35 36  1  0  0  0
 36 37  2  0  0  0
 37 32  1  0  0  0
 32 26  1  0  0  0
 26 27  2  0  0  0
 27 28  1  0  0  0
 28 29  2  0  0  0
 29  1  1  0  0  0
  1  2  1  0  0  0
  2  3  2  0  0  0
  2  5  1  0  0  0
  5  6  2  0  0  0
  6  7  1  0  0  0
  7 12  1  0  0  0
 12 13  1  0  0  0
 13 14  2  0  0  0
 13 16  1  0  0  0
 16 17  2  0  0  0
 17 18  1  0  0  0
 18 19  2  0  0  0
 19 20  1  0  0  0
 20 21  2  0  0  0
 20 22  1  0  0  0
 22 23  1  0  0  0
 22 24  1  0  0  0
 22 25  1  0  0  0
  7  8  2  0  0  0
  8  9  1  0  0  0
  9 10  2  0  0  0
 10 11  1  0  0  0
 29 30  1  0  0  0
 30 31  2  0  0  0
 37 38  1  0  0  0
 38 39  2  0  0  0
 46 41  1  0  0  0
 39 34  1  0  0  0
 31 26  1  0  0  0
 10  5  1  0  0  0
 21 16  1  0  0  0
 32 33  1  0  0  0
  1  4  1  0  0  0
 12 15  1  0  0  0
M  END
> <minimizedAffinity>
-8.00119

> <CNNscore>
0.4995848536

> <CNNaffinity>
7.2628622055

> <CNN_VS>
3.6284160614

> <CNNaffinity_variance>
0.0458197556

$$$$
[H]c1nc(N([H])c2c([H])c([H])c(N3C([H])([H])C([H])([H])N(C([H])([H])[H])C([H])([H])C3([H])[H])c([H])c2[H])nc([H])c1N([H])C(=O)c1c([H])c(N([H])C(=O)c2c([H])c([H])c([H])c(C(F)(F)F)c2[H])c([H])c([H])c1C([H])([H])[H]


 46 50  0  0  0  0  0  0  0  0999 V2000
  -17.2450   13.0795  -20.2338 N   0  0  0  0  0  0  0  0  0  0  0  0
  -17.3242   13.2409  -21.5935 C   0  0  0  0  0  0  0  0  0  0  0  0
  -17.7935   12.3290  -22.3167 O   0  0  0  0  0  0  0  0  0  0  0  0
  -16.6658   13.8194  -19.7016 H   0  0  0  0  0  0  0  0  0  0  0  0
  -16.8894   14.4796  -22.2730 C   0  0  0  0  0  0  0  0  0  0  0  0
  -17.5482   15.7085  -22.0038 C   0  0  0  0  0  0  0  0  0  0  0  0
  -17.1920   16.8549  -22.5893 C   0  0  0  0  0  0  0  0  0  0  0  0
  -16.1209   16.8379  -23.5175 C   0  0  0  0  0  0  0  0  0  0  0  0
  -15.4911   15.6657  -23.7742 C   0  0  0  0  0  0  0  0  0  0  0  0
  -15.8449   14.4480  -23.1641 C   0  0  0  0  0  0  0  0  0  0  0  0
  -14.9765   13.2770  -23.4659 C   0  0  0  0  0  0  0  0  0  0  0  0
  -17.7137   18.1801  -22.3116 N   0  0  0  0  0  0  0  0  0  0  0  0
  -18.8287   18.5786  -23.0915 C   0  0  0  0  0  0  0  0  0  0  0  0
  -19.1831   17.6772  -23.9963 O   0  0  0  0  0  0  0  0  0  0  0  0
  -17.2835   18.7385  -21.5965 H   0  0  0  0  0  0  0  0  0  0  0  0
  -19.6278   19.7558  -23.0702 C   0  0  0  0  0  0  0  0  0  0  0  0
  -20.8218   19.8825  -23.7053 C   0  0  0  0  0  0  0  0  0  0  0  0
  -21.5129   21.0817  -23.6960 C   0  0  0  0  0  0  0  0  0  0  0  0
  -21.0376   22.1976  -23.0536 C   0  0  0  0  0  0  0  0  0  0  0  0
  -19.8327   22.1051  -22.3970 C   0  0  0  0  0  0  0  0  0  0  0  0
  -19.1611   20.9119  -22.4135 C   0  0  0  0  0  0  0  0  0  0  0  0
  -19.2688   23.2732  -21.6963 C   0  0  0  0  0  0  0  0  0  0  0  0
  -18.8846   24.2202  -22.6335 F   0  0  0  0  0  0  0  0  0  0  0  0
  -20.1345   23.7968  -20.7404 F   0  0  0  0  0  0  0  0  0  0  0  0
  -18.1118   22.9027  -21.0201 F   0  0  0  0  0  0  0  0  0  0  0  0
  -18.2770    9.8100  -17.8015 C   0  0  0  0  0  0  0  0  0  0  0  0
  -19.0175   10.9057  -17.7901 N   0  0  0  0  0  0  0  0  0  0  0  0
  -18.7731   12.0047  -18.5765 C   0  0  0  0  0  0  0  0  0  0  0  0
  -17.7292   12.0159  -19.4274 C   0  0  0  0  0  0  0  0  0  0  0  0
  -16.9278   10.8393  -19.4505 C   0  0  0  0  0  0  0  0  0  0  0  0
  -17.2204    9.8326  -18.6733 N   0  0  0  0  0  0  0  0  0  0  0  0
  -18.4714    8.6965  -16.9840 N   0  0  0  0  0  0  0  0  0  0  0  0
  -17.8326    7.8459  -17.1959 H   0  0  0  0  0  0  0  0  0  0  0  0
  -21.0819    8.2188  -13.6703 C   0  0  0  0  0  0  0  0  0  0  0  0
  -21.3801    7.6920  -14.9109 C   0  0  0  0  0  0  0  0  0  0  0  0
  -20.5482    7.8333  -16.0031 C   0  0  0  0  0  0  0  0  0  0  0  0
  -19.3586    8.5161  -15.9094 C   0  0  0  0  0  0  0  0  0  0  0  0
  -19.0395    9.0612  -14.6464 C   0  0  0  0  0  0  0  0  0  0  0  0
  -19.8664    8.9202  -13.5633 C   0  0  0  0  0  0  0  0  0  0  0  0
  -25.2513    8.6116  -12.7619 C   0  0  0  0  0  0  0  0  0  0  0  0
  -24.4077    8.5156  -11.5813 N   0  0  0  0  0  0  0  0  0  0  0  0
  -23.4467    9.5480  -11.4863 C   0  0  0  0  0  0  0  0  0  0  0  0
  -22.0146    9.0507  -11.4577 C   0  0  0  0  0  0  0  0  0  0  0  0
  -21.9121    8.0712  -12.5345 N   0  0  0  0  0  0  0  0  0  0  0  0
  -22.7589    6.8747  -12.3380 C   0  0  0  0  0  0  0  0  0  0  0  0
  -23.8937    7.1874  -11.4061 C   0  0  0  0  0  0  0  0  0  0  0  0
 40 41  1  0  0  0
 41 42  1  0  0  0
 42 43  1  0  0  0
 43 44  1  0  0  0
 44 45  1  0  0  0
 45 46  1  0  0  0
 44 34  1  0  0  0
 34 35  2  0  0  0
 35 36  1  0  0  0
 36 37  2  0  0  0
 37 32  1  0  0  0
 32 26  1  0  0  0
 26 27  2  0  0  0
 27 28  1  0  0  0
 28 29  2  0  0  0
 29  1  1  0  0  0
  1  2  1  0  0  0
  2  3  2  0  0  0
  2  5  1  0  0  0
  5  6  2  0  0  0
  6  7  1  0  0  0
  7 12  1  0  0  0
 12 13  1  0  0  0
 13 14  2  0  0  0
 13 16  1  0  0  0
 16 17  2  0  0  0
 17 18  1  0  0  0
 18 19  2  0  0  0
 19 20  1  0  0  0
 20 21  2  0  0  0
 20 22  1  0  0  0
 22 23  1  0  0  0
 22 24  1  0  0  0
 22 25  1  0  0  0
  7  8  2  0  0  0
  8  9  1  0  0  0
  9 10  2  0  0  0
 10 11  1  0  0  0
 29 30  1  0  0  0
 30 31  2  0  0  0
 37 38  1  0  0  0
 38 39  2  0  0  0
 46 41  1  0  0  0
 39 34  1  0  0  0
 31 26  1  0  0  0
 10  5  1  0  0  0
 21 16  1  0  0  0
 32 33  1  0  0  0
  1  4  1  0  0  0
 12 15  1  0  0  0
M  END
> <minimizedAffinity>
-8.29863

> <CNNscore>
0.3078197837

> <CNNaffinity>
6.7024345398

> <CNN_VS>
2.0631420612

> <CNNaffinity_variance>
0.0066227941

$$$$
[H]c1nc(N([H])c2c([H])c([H])c(N3C([H])([H])C([H])([H])N(C([H])([H])[H])C([H])([H])C3([H])[H])c([H])c2[H])nc([H])c1N([H])C(=O)c1c([H])c(N([H])C(=O)c2c([H])c([H])c([H])c(C(F)(F)F)c2[H])c([H])c([H])c1C([H])([H])[H]


 46 50  0  0  0  0  0  0  0  0999 V2000
  -17.4464   13.5668  -20.7944 N   0  0  0  0  0  0  0  0  0  0  0  0
  -17.3756   13.5761  -22.1641 C   0  0  0  0  0  0  0  0  0  0  0  0
  -17.5725   12.5241  -22.8192 O   0  0  0  0  0  0  0  0  0  0  0  0
  -17.0861   14.4538  -20.2951 H   0  0  0  0  0  0  0  0  0  0  0  0
  -17.0886   14.8037  -22.9362 C   0  0  0  0  0  0  0  0  0  0  0  0
  -18.0654   15.8300  -23.0312 C   0  0  0  0  0  0  0  0  0  0  0  0
  -17.8542   16.9584  -23.7139 C   0  0  0  0  0  0  0  0  0  0  0  0
  -16.6104   17.1300  -24.3716 C   0  0  0  0  0  0  0  0  0  0  0  0
  -15.6773   16.1514  -24.2806 C   0  0  0  0  0  0  0  0  0  0  0  0
  -15.8757   14.9583  -23.5614 C   0  0  0  0  0  0  0  0  0  0  0  0
  -14.7077   14.0405  -23.4624 C   0  0  0  0  0  0  0  0  0  0  0  0
  -18.7274   18.1149  -23.7876 N   0  0  0  0  0  0  0  0  0  0  0  0
  -18.5511   19.0853  -22.7691 C   0  0  0  0  0  0  0  0  0  0  0  0
  -17.6359   18.7432  -21.8735 O   0  0  0  0  0  0  0  0  0  0  0  0
  -19.3926   18.1825  -24.5368 H   0  0  0  0  0  0  0  0  0  0  0  0
  -19.1695   20.3472  -22.5452 C   0  0  0  0  0  0  0  0  0  0  0  0
  -18.9758   21.1092  -21.4376 C   0  0  0  0  0  0  0  0  0  0  0  0
  -19.6638   22.2966  -21.2574 C   0  0  0  0  0  0  0  0  0  0  0  0
  -20.5700   22.7662  -22.1750 C   0  0  0  0  0  0  0  0  0  0  0  0
  -20.7893   22.0220  -23.3106 C   0  0  0  0  0  0  0  0  0  0  0  0
  -20.1003   20.8502  -23.4758 C   0  0  0  0  0  0  0  0  0  0  0  0
  -21.7571   22.4725  -24.3273 C   0  0  0  0  0  0  0  0  0  0  0  0
  -21.1202   23.3351  -25.2064 F   0  0  0  0  0  0  0  0  0  0  0  0
  -22.3801   21.4147  -24.9832 F   0  0  0  0  0  0  0  0  0  0  0  0
  -22.7673   23.2105  -23.7206 F   0  0  0  0  0  0  0  0  0  0  0  0
  -18.1714   10.3891  -18.1397 C   0  0  0  0  0  0  0  0  0  0  0  0
  -19.0563   11.3637  -18.2659 N   0  0  0  0  0  0  0  0  0  0  0  0
  -18.9160   12.4196  -19.1328 C   0  0  0  0  0  0  0  0  0  0  0  0
  -17.8300   12.5128  -19.9238 C   0  0  0  0  0  0  0  0  0  0  0  0
  -16.8728   11.4662  -19.7987 C   0  0  0  0  0  0  0  0  0  0  0  0
  -17.0730   10.4937  -18.9517 N   0  0  0  0  0  0  0  0  0  0  0  0
  -18.2623    9.3288  -17.2378 N   0  0  0  0  0  0  0  0  0  0  0  0
  -17.4737    8.5876  -17.3093 H   0  0  0  0  0  0  0  0  0  0  0  0
  -21.1421    8.4800  -14.2362 C   0  0  0  0  0  0  0  0  0  0  0  0
  -20.5354    9.7164  -14.3309 C   0  0  0  0  0  0  0  0  0  0  0  0
  -19.5970   10.0169  -15.2973 C   0  0  0  0  0  0  0  0  0  0  0  0
  -19.2131    9.0849  -16.2323 C   0  0  0  0  0  0  0  0  0  0  0  0
  -19.8249    7.8150  -16.1483 C   0  0  0  0  0  0  0  0  0  0  0  0
  -20.7561    7.5182  -15.1883 C   0  0  0  0  0  0  0  0  0  0  0  0
  -21.3443    8.2135   -9.9639 C   0  0  0  0  0  0  0  0  0  0  0  0
  -22.4873    7.6167  -10.6363 N   0  0  0  0  0  0  0  0  0  0  0  0
  -22.1426    6.5591  -11.5088 C   0  0  0  0  0  0  0  0  0  0  0  0
  -22.5475    6.7980  -12.9503 C   0  0  0  0  0  0  0  0  0  0  0  0
  -22.1178    8.1567  -13.2643 N   0  0  0  0  0  0  0  0  0  0  0  0
  -22.8061    9.2000  -12.4735 C   0  0  0  0  0  0  0  0  0  0  0  0
  -23.3484    8.6159  -11.2013 C   0  0  0  0  0  0  0  0  0  0  0  0
 40 41  1  0  0  0
 41 42  1  0  0  0
 42 43  1  0  0  0
 43 44  1  0  0  0
 44 45  1  0  0  0
 45 46  1  0  0  0
 44 34  1  0  0  0
 34 35  2  0  0  0
 35 36  1  0  0  0
 36 37  2  0  0  0
 37 32  1  0  0  0
 32 26  1  0  0  0
 26 27  2  0  0  0
 27 28  1  0  0  0
 28 29  2  0  0  0
 29  1  1  0  0  0
  1  2  1  0  0  0
  2  3  2  0  0  0
  2  5  1  0  0  0
  5  6  2  0  0  0
  6  7  1  0  0  0
  7 12  1  0  0  0
 12 13  1  0  0  0
 13 14  2  0  0  0
 13 16  1  0  0  0
 16 17  2  0  0  0
 17 18  1  0  0  0
 18 19  2  0  0  0
 19 20  1  0  0  0
 20 21  2  0  0  0
 20 22  1  0  0  0
 22 23  1  0  0  0
 22 24  1  0  0  0
 22 25  1  0  0  0
  7  8  2  0  0  0
  8  9  1  0  0  0
  9 10  2  0  0  0
 10 11  1  0  0  0
 29 30  1  0  0  0
 30 31  2  0  0  0
 37 38  1  0  0  0
 38 39  2  0  0  0
 46 41  1  0  0  0
 39 34  1  0  0  0
 31 26  1  0  0  0
 10  5  1  0  0  0
 21 16  1  0  0  0
 32 33  1  0  0  0
  1  4  1  0  0  0
 12 15  1  0  0  0
M  END
> <minimizedAffinity>
-8.16206

> <CNNscore>
0.2826396823

> <CNNaffinity>
6.6357102394

> <CNN_VS>
1.8755149841

> <CNNaffinity_variance>
0.0259605758

$$$$
[H]c1nc(N([H])c2c([H])c([H])c(N3C([H])([H])C([H])([H])N(C([H])([H])[H])C([H])([H])C3([H])[H])c([H])c2[H])nc([H])c1N([H])C(=O)c1c([H])c(N([H])C(=O)c2c([H])c([H])c([H])c(C(F)(F)F)c2[H])c([H])c([H])c1C([H])([H])[H]


 46 50  0  0  0  0  0  0  0  0999 V2000
  -17.2807   13.6401  -20.4590 N   0  0  0  0  0  0  0  0  0  0  0  0
  -17.2207   13.5846  -21.8281 C   0  0  0  0  0  0  0  0  0  0  0  0
  -17.4681   12.5136  -22.4335 O   0  0  0  0  0  0  0  0  0  0  0  0
  -16.8785   14.5324  -20.0028 H   0  0  0  0  0  0  0  0  0  0  0  0
  -16.8876   14.7625  -22.6570 C   0  0  0  0  0  0  0  0  0  0  0  0
  -17.6400   15.9599  -22.5280 C   0  0  0  0  0  0  0  0  0  0  0  0
  -17.3777   17.0516  -23.2513 C   0  0  0  0  0  0  0  0  0  0  0  0
  -16.3124   17.0062  -24.1853 C   0  0  0  0  0  0  0  0  0  0  0  0
  -15.5933   15.8641  -24.3082 C   0  0  0  0  0  0  0  0  0  0  0  0
  -15.8476   14.7050  -23.5520 C   0  0  0  0  0  0  0  0  0  0  0  0
  -14.8909   13.5772  -23.7231 C   0  0  0  0  0  0  0  0  0  0  0  0
  -18.0010   18.3561  -23.1273 N   0  0  0  0  0  0  0  0  0  0  0  0
  -19.3960   18.3981  -23.3776 C   0  0  0  0  0  0  0  0  0  0  0  0
  -19.8978   17.2261  -23.7399 O   0  0  0  0  0  0  0  0  0  0  0  0
  -17.4393   19.1474  -22.8694 H   0  0  0  0  0  0  0  0  0  0  0  0
  -20.3405   19.4597  -23.3030 C   0  0  0  0  0  0  0  0  0  0  0  0
  -20.1878   20.5679  -22.5326 C   0  0  0  0  0  0  0  0  0  0  0  0
  -21.1804   21.5297  -22.4587 C   0  0  0  0  0  0  0  0  0  0  0  0
  -22.3611   21.4203  -23.1500 C   0  0  0  0  0  0  0  0  0  0  0  0
  -22.5490   20.3125  -23.9430 C   0  0  0  0  0  0  0  0  0  0  0  0
  -21.5576   19.3702  -24.0074 C   0  0  0  0  0  0  0  0  0  0  0  0
  -23.8005   20.1373  -24.7024 C   0  0  0  0  0  0  0  0  0  0  0  0
  -24.3251   18.8839  -24.4259 F   0  0  0  0  0  0  0  0  0  0  0  0
  -24.7184   21.1574  -24.4695 F   0  0  0  0  0  0  0  0  0  0  0  0
  -23.5294   20.1540  -26.0660 F   0  0  0  0  0  0  0  0  0  0  0  0
  -18.9232   10.8143  -17.8156 C   0  0  0  0  0  0  0  0  0  0  0  0
  -17.7907   10.5532  -18.4466 N   0  0  0  0  0  0  0  0  0  0  0  0
  -17.1676   11.4314  -19.2990 C   0  0  0  0  0  0  0  0  0  0  0  0
  -17.7020   12.6441  -19.5390 C   0  0  0  0  0  0  0  0  0  0  0  0
  -18.9194   12.9369  -18.8612 C   0  0  0  0  0  0  0  0  0  0  0  0
  -19.4549   12.0520  -18.0655 N   0  0  0  0  0  0  0  0  0  0  0  0
  -19.6040    9.9284  -16.9803 N   0  0  0  0  0  0  0  0  0  0  0  0
  -20.2544    9.2209  -17.4831 H   0  0  0  0  0  0  0  0  0  0  0  0
  -19.5170    9.6444  -12.7453 C   0  0  0  0  0  0  0  0  0  0  0  0
  -19.1064    8.6015  -13.5512 C   0  0  0  0  0  0  0  0  0  0  0  0
  -19.1248    8.6694  -14.9295 C   0  0  0  0  0  0  0  0  0  0  0  0
  -19.5588    9.7991  -15.5818 C   0  0  0  0  0  0  0  0  0  0  0  0
  -19.9824   10.8748  -14.7710 C   0  0  0  0  0  0  0  0  0  0  0  0
  -19.9636   10.8058  -13.4029 C   0  0  0  0  0  0  0  0  0  0  0  0
  -16.8027    8.3360   -9.6982 C   0  0  0  0  0  0  0  0  0  0  0  0
  -18.1411    8.6134   -9.2017 N   0  0  0  0  0  0  0  0  0  0  0  0
  -19.1442    7.8191   -9.8027 C   0  0  0  0  0  0  0  0  0  0  0  0
  -20.2094    8.6211  -10.5247 C   0  0  0  0  0  0  0  0  0  0  0  0
  -19.4905    9.6016  -11.3317 N   0  0  0  0  0  0  0  0  0  0  0  0
  -18.7180   10.5805  -10.5364 C   0  0  0  0  0  0  0  0  0  0  0  0
  -18.4136   10.0221   -9.1765 C   0  0  0  0  0  0  0  0  0  0  0  0
 40 41  1  0  0  0
 41 42  1  0  0  0
 42 43  1  0  0  0
 43 44  1  0  0  0
 44 45  1  0  0  0
 45 46  1  0  0  0
 44 34  1  0  0  0
 34 35  2  0  0  0
 35 36  1  0  0  0
 36 37  2  0  0  0
 37 32  1  0  0  0
 32 26  1  0  0  0
 26 27  2  0  0  0
 27 28  1  0  0  0
 28 29  2  0  0  0
 29  1  1  0  0  0
  1  2  1  0  0  0
  2  3  2  0  0  0
  2  5  1  0  0  0
  5  6  2  0  0  0
  6  7  1  0  0  0
  7 12  1  0  0  0
 12 13  1  0  0  0
 13 14  2  0  0  0
 13 16  1  0  0  0
 16 17  2  0  0  0
 17 18  1  0  0  0
 18 19  2  0  0  0
 19 20  1  0  0  0
 20 21  2  0  0  0
 20 22  1  0  0  0
 22 23  1  0  0  0
 22 24  1  0  0  0
 22 25  1  0  0  0
  7  8  2  0  0  0
  8  9  1  0  0  0
  9 10  2  0  0  0
 10 11  1  0  0  0
 29 30  1  0  0  0
 30 31  2  0  0  0
 37 38  1  0  0  0
 38 39  2  0  0  0
 46 41  1  0  0  0
 39 34  1  0  0  0
 31 26  1  0  0  0
 10  5  1  0  0  0
 21 16  1  0  0  0
 32 33  1  0  0  0
  1  4  1  0  0  0
 12 15  1  0  0  0
M  END
> <minimizedAffinity>
-9.51914

> <CNNscore>
0.2595883310

> <CNNaffinity>
6.7499380112

> <CNN_VS>
1.7522051334

> <CNNaffinity_variance>
0.0252104364

$$$$
[H]c1nc(N([H])c2c([H])c([H])c(N3C([H])([H])C([H])([H])N(C([H])([H])[H])C([H])([H])C3([H])[H])c([H])c2[H])nc([H])c1N([H])C(=O)c1c([H])c(N([H])C(=O)c2c([H])c([H])c([H])c(C(F)(F)F)c2[H])c([H])c([H])c1C([H])([H])[H]


 46 50  0  0  0  0  0  0  0  0999 V2000
  -17.1991   13.5953  -20.4369 N   0  0  0  0  0  0  0  0  0  0  0  0
  -17.2323   13.5855  -21.8080 C   0  0  0  0  0  0  0  0  0  0  0  0
  -17.5957   12.5574  -22.4290 O   0  0  0  0  0  0  0  0  0  0  0  0
  -16.7043   14.4398  -19.9808 H   0  0  0  0  0  0  0  0  0  0  0  0
  -16.8688   14.7664  -22.6198 C   0  0  0  0  0  0  0  0  0  0  0  0
  -17.5934   15.9792  -22.4770 C   0  0  0  0  0  0  0  0  0  0  0  0
  -17.3030   17.0742  -23.1845 C   0  0  0  0  0  0  0  0  0  0  0  0
  -16.2358   17.0163  -24.1156 C   0  0  0  0  0  0  0  0  0  0  0  0
  -15.5431   15.8595  -24.2517 C   0  0  0  0  0  0  0  0  0  0  0  0
  -15.8272   14.6966  -23.5120 C   0  0  0  0  0  0  0  0  0  0  0  0
  -14.8965   13.5491  -23.6953 C   0  0  0  0  0  0  0  0  0  0  0  0
  -17.8960   18.3911  -23.0448 N   0  0  0  0  0  0  0  0  0  0  0  0
  -19.2686   18.4876  -23.3870 C   0  0  0  0  0  0  0  0  0  0  0  0
  -19.7774   17.3484  -23.8345 O   0  0  0  0  0  0  0  0  0  0  0  0
  -17.3312   19.1527  -22.7144 H   0  0  0  0  0  0  0  0  0  0  0  0
  -20.1855   19.5742  -23.3292 C   0  0  0  0  0  0  0  0  0  0  0  0
  -21.4382   19.4924  -22.8108 C   0  0  0  0  0  0  0  0  0  0  0  0
  -22.2999   20.5749  -22.8490 C   0  0  0  0  0  0  0  0  0  0  0  0
  -21.9433   21.7774  -23.4063 C   0  0  0  0  0  0  0  0  0  0  0  0
  -20.6808   21.8976  -23.9383 C   0  0  0  0  0  0  0  0  0  0  0  0
  -19.8388   20.8187  -23.8919 C   0  0  0  0  0  0  0  0  0  0  0  0
  -20.2450   23.1627  -24.5573 C   0  0  0  0  0  0  0  0  0  0  0  0
  -18.8847   23.0935  -24.8172 F   0  0  0  0  0  0  0  0  0  0  0  0
  -20.9836   23.4894  -25.6909 F   0  0  0  0  0  0  0  0  0  0  0  0
  -20.4172   24.2097  -23.6588 F   0  0  0  0  0  0  0  0  0  0  0  0
  -18.8727   10.7695  -17.8130 C   0  0  0  0  0  0  0  0  0  0  0  0
  -17.7366   10.5054  -18.4361 N   0  0  0  0  0  0  0  0  0  0  0  0
  -17.1036   11.3833  -19.2817 C   0  0  0  0  0  0  0  0  0  0  0  0
  -17.6313   12.5987  -19.5226 C   0  0  0  0  0  0  0  0  0  0  0  0
  -18.8526   12.8947  -18.8532 C   0  0  0  0  0  0  0  0  0  0  0  0
  -19.3976   12.0099  -18.0638 N   0  0  0  0  0  0  0  0  0  0  0  0
  -19.5633    9.8842  -16.9851 N   0  0  0  0  0  0  0  0  0  0  0  0
  -20.2114    9.1794  -17.4947 H   0  0  0  0  0  0  0  0  0  0  0  0
  -19.5065    9.5962  -12.7499 C   0  0  0  0  0  0  0  0  0  0  0  0
  -19.1670    8.5272  -13.5546 C   0  0  0  0  0  0  0  0  0  0  0  0
  -19.1773    8.5957  -14.9330 C   0  0  0  0  0  0  0  0  0  0  0  0
  -19.5305    9.7525  -15.5865 C   0  0  0  0  0  0  0  0  0  0  0  0
  -19.8808   10.8552  -14.7768 C   0  0  0  0  0  0  0  0  0  0  0  0
  -19.8702   10.7855  -13.4087 C   0  0  0  0  0  0  0  0  0  0  0  0
  -16.6224    8.8173   -9.6776 C   0  0  0  0  0  0  0  0  0  0  0  0
  -17.9941    8.8303   -9.1947 N   0  0  0  0  0  0  0  0  0  0  0  0
  -18.8201    7.8614   -9.8090 C   0  0  0  0  0  0  0  0  0  0  0  0
  -20.0120    8.4478  -10.5401 C   0  0  0  0  0  0  0  0  0  0  0  0
  -19.4866    9.5521  -11.3362 N   0  0  0  0  0  0  0  0  0  0  0  0
  -18.9242   10.6569  -10.5296 C   0  0  0  0  0  0  0  0  0  0  0  0
  -18.5320   10.1604   -9.1682 C   0  0  0  0  0  0  0  0  0  0  0  0
 40 41  1  0  0  0
 41 42  1  0  0  0
 42 43  1  0  0  0
 43 44  1  0  0  0
 44 45  1  0  0  0
 45 46  1  0  0  0
 44 34  1  0  0  0
 34 35  2  0  0  0
 35 36  1  0  0  0
 36 37  2  0  0  0
 37 32  1  0  0  0
 32 26  1  0  0  0
 26 27  2  0  0  0
 27 28  1  0  0  0
 28 29  2  0  0  0
 29  1  1  0  0  0
  1  2  1  0  0  0
  2  3  2  0  0  0
  2  5  1  0  0  0
  5  6  2  0  0  0
  6  7  1  0  0  0
  7 12  1  0  0  0
 12 13  1  0  0  0
 13 14  2  0  0  0
 13 16  1  0  0  0
 16 17  2  0  0  0
 17 18  1  0  0  0
 18 19  2  0  0  0
 19 20  1  0  0  0
 20 21  2  0  0  0
 20 22  1  0  0  0
 22 23  1  0  0  0
 22 24  1  0  0  0
 22 25  1  0  0  0
  7  8  2  0  0  0
  8  9  1  0  0  0
  9 10  2  0  0  0
 10 11  1  0  0  0
 29 30  1  0  0  0
 30 31  2  0  0  0
 37 38  1  0  0  0
 38 39  2  0  0  0
 46 41  1  0  0  0
 39 34  1  0  0  0
 31 26  1  0  0  0
 10  5  1  0  0  0
 21 16  1  0  0  0
 32 33  1  0  0  0
  1  4  1  0  0  0
 12 15  1  0  0  0
M  END
> <minimizedAffinity>
-9.03473

> <CNNscore>
0.1963923872

> <CNNaffinity>
6.6127395630

> <CNN_VS>
1.2986917496

> <CNNaffinity_variance>
0.0191310514

$$$$
[H]c1nc(N([H])c2c([H])c([H])c(N3C([H])([H])C([H])([H])N(C([H])([H])[H])C([H])([H])C3([H])[H])c([H])c2[H])nc([H])c1N([H])C(=O)c1c([H])c(N([H])C(=O)c2c([H])c([H])c([H])c(C(F)(F)F)c2[H])c([H])c([H])c1C([H])([H])[H]


 46 50  0  0  0  0  0  0  0  0999 V2000
  -17.8266   12.7801  -19.8772 N   0  0  0  0  0  0  0  0  0  0  0  0
  -17.7254   12.8200  -21.2444 C   0  0  0  0  0  0  0  0  0  0  0  0
  -17.9264   11.7873  -21.9283 O   0  0  0  0  0  0  0  0  0  0  0  0
  -17.4618   13.6486  -19.3494 H   0  0  0  0  0  0  0  0  0  0  0  0
  -17.4000   14.0598  -21.9809 C   0  0  0  0  0  0  0  0  0  0  0  0
  -18.1537   15.2417  -21.7541 C   0  0  0  0  0  0  0  0  0  0  0  0
  -17.8982   16.3872  -22.3916 C   0  0  0  0  0  0  0  0  0  0  0  0
  -16.8390   16.4173  -23.3330 C   0  0  0  0  0  0  0  0  0  0  0  0
  -16.1185   15.2900  -23.5493 C   0  0  0  0  0  0  0  0  0  0  0  0
  -16.3657   14.0749  -22.8842 C   0  0  0  0  0  0  0  0  0  0  0  0
  -15.4080   12.9661  -23.1490 C   0  0  0  0  0  0  0  0  0  0  0  0
  -18.5231   17.6765  -22.1621 N   0  0  0  0  0  0  0  0  0  0  0  0
  -18.3094   18.2449  -20.8809 C   0  0  0  0  0  0  0  0  0  0  0  0
  -17.6038   17.4654  -20.0740 O   0  0  0  0  0  0  0  0  0  0  0  0
  -19.0562   18.1030  -22.8984 H   0  0  0  0  0  0  0  0  0  0  0  0
  -18.7073   19.4899  -20.3182 C   0  0  0  0  0  0  0  0  0  0  0  0
  -18.9237   19.6973  -18.9934 C   0  0  0  0  0  0  0  0  0  0  0  0
  -19.3745   20.9193  -18.5254 C   0  0  0  0  0  0  0  0  0  0  0  0
  -19.6263   21.9780  -19.3619 C   0  0  0  0  0  0  0  0  0  0  0  0
  -19.4152   21.8050  -20.7098 C   0  0  0  0  0  0  0  0  0  0  0  0
  -18.9676   20.5911  -21.1580 C   0  0  0  0  0  0  0  0  0  0  0  0
  -19.6762   22.9042  -21.6570 C   0  0  0  0  0  0  0  0  0  0  0  0
  -18.5529   23.7137  -21.7304 F   0  0  0  0  0  0  0  0  0  0  0  0
  -20.0835   22.4508  -22.9083 F   0  0  0  0  0  0  0  0  0  0  0  0
  -20.7038   23.7068  -21.1743 F   0  0  0  0  0  0  0  0  0  0  0  0
  -18.6653    9.5285  -17.3484 C   0  0  0  0  0  0  0  0  0  0  0  0
  -19.4740   10.5745  -17.3751 N   0  0  0  0  0  0  0  0  0  0  0  0
  -19.2946   11.6620  -18.1945 C   0  0  0  0  0  0  0  0  0  0  0  0
  -18.2477   11.7133  -19.0402 C   0  0  0  0  0  0  0  0  0  0  0  0
  -17.3730   10.5901  -19.0223 C   0  0  0  0  0  0  0  0  0  0  0  0
  -17.6063    9.5914  -18.2153 N   0  0  0  0  0  0  0  0  0  0  0  0
  -18.7941    8.4309  -16.4972 N   0  0  0  0  0  0  0  0  0  0  0  0
  -18.4318    7.4887  -16.8941 H   0  0  0  0  0  0  0  0  0  0  0  0
  -20.3716    8.1181  -12.5682 C   0  0  0  0  0  0  0  0  0  0  0  0
  -19.7057    9.2495  -12.9949 C   0  0  0  0  0  0  0  0  0  0  0  0
  -19.1843    9.3755  -14.2666 C   0  0  0  0  0  0  0  0  0  0  0  0
  -19.3050    8.3641  -15.1899 C   0  0  0  0  0  0  0  0  0  0  0  0
  -19.9837    7.1998  -14.7682 C   0  0  0  0  0  0  0  0  0  0  0  0
  -20.5006    7.0762  -13.5055 C   0  0  0  0  0  0  0  0  0  0  0  0
  -19.0745    8.6569   -8.5196 C   0  0  0  0  0  0  0  0  0  0  0  0
  -20.3318    7.9352   -8.6339 N   0  0  0  0  0  0  0  0  0  0  0  0
  -20.2310    6.7355   -9.3748 C   0  0  0  0  0  0  0  0  0  0  0  0
  -21.1225    6.6961  -10.6006 C   0  0  0  0  0  0  0  0  0  0  0  0
  -20.9278    7.9752  -11.2755 N   0  0  0  0  0  0  0  0  0  0  0  0
  -21.3773    9.1427  -10.4867 C   0  0  0  0  0  0  0  0  0  0  0  0
  -21.4054    8.8036   -9.0245 C   0  0  0  0  0  0  0  0  0  0  0  0
 40 41  1  0  0  0
 41 42  1  0  0  0
 42 43  1  0  0  0
 43 44  1  0  0  0
 44 45  1  0  0  0
 45 46  1  0  0  0
 44 34  1  0  0  0
 34 35  2  0  0  0
 35 36  1  0  0  0
 36 37  2  0  0  0
 37 32  1  0  0  0
 32 26  1  0  0  0
 26 27  2  0  0  0
 27 28  1  0  0  0
 28 29  2  0  0  0
 29  1  1  0  0  0
  1  2  1  0  0  0
  2  3  2  0  0  0
  2  5  1  0  0  0
  5  6  2  0  0  0
  6  7  1  0  0  0
  7 12  1  0  0  0
 12 13  1  0  0  0
 13 14  2  0  0  0
 13 16  1  0  0  0
 16 17  2  0  0  0
 17 18  1  0  0  0
 18 19  2  0  0  0
 19 20  1  0  0  0
 20 21  2  0  0  0
 20 22  1  0  0  0
 22 23  1  0  0  0
 22 24  1  0  0  0
 22 25  1  0  0  0
  7  8  2  0  0  0
  8  9  1  0  0  0
  9 10  2  0  0  0
 10 11  1  0  0  0
 29 30  1  0  0  0
 30 31  2  0  0  0
 37 38  1  0  0  0
 38 39  2  0  0  0
 46 41  1  0  0  0
 39 34  1  0  0  0
 31 26  1  0  0  0
 10  5  1  0  0  0
 21 16  1  0  0  0
 32 33  1  0  0  0
  1  4  1  0  0  0
 12 15  1  0  0  0
M  END
> <minimizedAffinity>
-8.03789

> <CNNscore>
0.1798181534

> <CNNaffinity>
6.4960451126

> <CNN_VS>
1.1681067944

> <CNNaffinity_variance>
0.0472468399

$$$$
[H]c1nc(N([H])c2c([H])c([H])c(N3C([H])([H])C([H])([H])N(C([H])([H])[H])C([H])([H])C3([H])[H])c([H])c2[H])nc([H])c1N([H])C(=O)c1c([H])c(N([H])C(=O)c2c([H])c([H])c([H])c(C(F)(F)F)c2[H])c([H])c([H])c1C([H])([H])[H]


 46 50  0  0  0  0  0  0  0  0999 V2000
  -17.1376   12.5415  -20.1725 N   0  0  0  0  0  0  0  0  0  0  0  0
  -17.3793   12.4630  -21.5203 C   0  0  0  0  0  0  0  0  0  0  0  0
  -18.1429   11.5796  -21.9799 O   0  0  0  0  0  0  0  0  0  0  0  0
  -16.3350   13.1987  -19.8723 H   0  0  0  0  0  0  0  0  0  0  0  0
  -16.7835   13.4061  -22.4903 C   0  0  0  0  0  0  0  0  0  0  0  0
  -17.3591   14.6902  -22.6808 C   0  0  0  0  0  0  0  0  0  0  0  0
  -16.8576   15.5788  -23.5425 C   0  0  0  0  0  0  0  0  0  0  0  0
  -15.7126   15.2197  -24.2971 C   0  0  0  0  0  0  0  0  0  0  0  0
  -15.1621   13.9949  -24.1151 C   0  0  0  0  0  0  0  0  0  0  0  0
  -15.6695   13.0461  -23.2082 C   0  0  0  0  0  0  0  0  0  0  0  0
  -14.8781   11.7960  -23.0428 C   0  0  0  0  0  0  0  0  0  0  0  0
  -17.2899   16.9499  -23.7389 N   0  0  0  0  0  0  0  0  0  0  0  0
  -18.6487   17.2166  -23.4342 C   0  0  0  0  0  0  0  0  0  0  0  0
  -19.3229   16.1377  -23.0627 O   0  0  0  0  0  0  0  0  0  0  0  0
  -16.6290   17.6327  -24.0634 H   0  0  0  0  0  0  0  0  0  0  0  0
  -19.4044   18.4223  -23.4500 C   0  0  0  0  0  0  0  0  0  0  0  0
  -18.8676   19.6641  -23.3292 C   0  0  0  0  0  0  0  0  0  0  0  0
  -19.6721   20.7896  -23.2859 C   0  0  0  0  0  0  0  0  0  0  0  0
  -21.0407   20.7168  -23.3609 C   0  0  0  0  0  0  0  0  0  0  0  0
  -21.6189   19.4753  -23.4870 C   0  0  0  0  0  0  0  0  0  0  0  0
  -20.8103   18.3711  -23.5300 C   0  0  0  0  0  0  0  0  0  0  0  0
  -23.0845   19.3349  -23.5640 C   0  0  0  0  0  0  0  0  0  0  0  0
  -23.6586   20.5968  -23.5882 F   0  0  0  0  0  0  0  0  0  0  0  0
  -23.4939   18.5475  -24.6362 F   0  0  0  0  0  0  0  0  0  0  0  0
  -23.5584   18.7133  -22.4142 F   0  0  0  0  0  0  0  0  0  0  0  0
  -19.2242   10.5664  -17.1039 C   0  0  0  0  0  0  0  0  0  0  0  0
  -18.2656    9.9394  -17.7650 N   0  0  0  0  0  0  0  0  0  0  0  0
  -17.5120   10.5190  -18.7561 C   0  0  0  0  0  0  0  0  0  0  0  0
  -17.7229   11.8007  -19.1120 C   0  0  0  0  0  0  0  0  0  0  0  0
  -18.7501   12.4861  -18.4034 C   0  0  0  0  0  0  0  0  0  0  0  0
  -19.4268   11.8701  -17.4730 N   0  0  0  0  0  0  0  0  0  0  0  0
  -20.0368    9.9936  -16.1254 N   0  0  0  0  0  0  0  0  0  0  0  0
  -20.5308    9.0713  -16.4116 H   0  0  0  0  0  0  0  0  0  0  0  0
  -20.7287   11.2244  -12.1217 C   0  0  0  0  0  0  0  0  0  0  0  0
  -21.5138   11.6729  -13.1648 C   0  0  0  0  0  0  0  0  0  0  0  0
  -21.3094   11.2874  -14.4741 C   0  0  0  0  0  0  0  0  0  0  0  0
  -20.2972   10.4207  -14.8123 C   0  0  0  0  0  0  0  0  0  0  0  0
  -19.4850    9.9532  -13.7560 C   0  0  0  0  0  0  0  0  0  0  0  0
  -19.6891   10.3368  -12.4568 C   0  0  0  0  0  0  0  0  0  0  0  0
  -22.3321    9.4159   -8.5830 C   0  0  0  0  0  0  0  0  0  0  0  0
  -22.1339   10.8514   -8.4611 N   0  0  0  0  0  0  0  0  0  0  0  0
  -22.8703   11.6069   -9.4021 C   0  0  0  0  0  0  0  0  0  0  0  0
  -22.0083   12.4632  -10.3091 C   0  0  0  0  0  0  0  0  0  0  0  0
  -20.9313   11.5938  -10.7713 N   0  0  0  0  0  0  0  0  0  0  0  0
  -20.0372   11.1227   -9.6916 C   0  0  0  0  0  0  0  0  0  0  0  0
  -20.7416   11.1862   -8.3674 C   0  0  0  0  0  0  0  0  0  0  0  0
 40 41  1  0  0  0
 41 42  1  0  0  0
 42 43  1  0  0  0
 43 44  1  0  0  0
 44 45  1  0  0  0
 45 46  1  0  0  0
 44 34  1  0  0  0
 34 35  2  0  0  0
 35 36  1  0  0  0
 36 37  2  0  0  0
 37 32  1  0  0  0
 32 26  1  0  0  0
 26 27  2  0  0  0
 27 28  1  0  0  0
 28 29  2  0  0  0
 29  1  1  0  0  0
  1  2  1  0  0  0
  2  3  2  0  0  0
  2  5  1  0  0  0
  5  6  2  0  0  0
  6  7  1  0  0  0
  7 12  1  0  0  0
 12 13  1  0  0  0
 13 14  2  0  0  0
 13 16  1  0  0  0
 16 17  2  0  0  0
 17 18  1  0  0  0
 18 19  2  0  0  0
 19 20  1  0  0  0
 20 21  2  0  0  0
 20 22  1  0  0  0
 22 23  1  0  0  0
 22 24  1  0  0  0
 22 25  1  0  0  0
  7  8  2  0  0  0
  8  9  1  0  0  0
  9 10  2  0  0  0
 10 11  1  0  0  0
 29 30  1  0  0  0
 30 31  2  0  0  0
 37 38  1  0  0  0
 38 39  2  0  0  0
 46 41  1  0  0  0
 39 34  1  0  0  0
 31 26  1  0  0  0
 10  5  1  0  0  0
 21 16  1  0  0  0
 32 33  1  0  0  0
  1  4  1  0  0  0
 12 15  1  0  0  0
M  END
> <minimizedAffinity>
-8.44843

> <CNNscore>
0.1488219649

> <CNNaffinity>
6.5737853050

> <CNN_VS>
0.9783236384

> <CNNaffinity_variance>
0.1048965678

$$$$
[H]c1nc(N([H])c2c([H])c([H])c(N3C([H])([H])C([H])([H])N(C([H])([H])[H])C([H])([H])C3([H])[H])c([H])c2[H])nc([H])c1N([H])C(=O)c1c([H])c(N([H])C(=O)c2c([H])c([H])c([H])c(C(F)(F)F)c2[H])c([H])c([H])c1C([H])([H])[H]


 46 50  0  0  0  0  0  0  0  0999 V2000
  -17.4751   12.4871  -20.1120 N   0  0  0  0  0  0  0  0  0  0  0  0
  -17.5462   12.2314  -21.4576 C   0  0  0  0  0  0  0  0  0  0  0  0
  -17.9660   11.1247  -21.8743 O   0  0  0  0  0  0  0  0  0  0  0  0
  -16.9357   13.3780  -19.8267 H   0  0  0  0  0  0  0  0  0  0  0  0
  -17.1598   13.2296  -22.4773 C   0  0  0  0  0  0  0  0  0  0  0  0
  -17.9628   14.3820  -22.6860 C   0  0  0  0  0  0  0  0  0  0  0  0
  -17.6559   15.3138  -23.5924 C   0  0  0  0  0  0  0  0  0  0  0  0
  -16.4884   15.1380  -24.3767 C   0  0  0  0  0  0  0  0  0  0  0  0
  -15.7210   14.0390  -24.1774 C   0  0  0  0  0  0  0  0  0  0  0  0
  -16.0214   13.0487  -23.2239 C   0  0  0  0  0  0  0  0  0  0  0  0
  -15.0131   11.9674  -23.0490 C   0  0  0  0  0  0  0  0  0  0  0  0
  -18.3339   16.5772  -23.8150 N   0  0  0  0  0  0  0  0  0  0  0  0
  -18.2762   17.5040  -22.7435 C   0  0  0  0  0  0  0  0  0  0  0  0
  -17.6443   17.0329  -21.6779 O   0  0  0  0  0  0  0  0  0  0  0  0
  -18.7934   16.7413  -24.6926 H   0  0  0  0  0  0  0  0  0  0  0  0
  -18.7640   18.8345  -22.6140 C   0  0  0  0  0  0  0  0  0  0  0  0
  -18.9955   19.6703  -23.6594 C   0  0  0  0  0  0  0  0  0  0  0  0
  -19.4071   20.9757  -23.4535 C   0  0  0  0  0  0  0  0  0  0  0  0
  -19.6019   21.4943  -22.1977 C   0  0  0  0  0  0  0  0  0  0  0  0
  -19.3800   20.6754  -21.1153 C   0  0  0  0  0  0  0  0  0  0  0  0
  -18.9746   19.3860  -21.3345 C   0  0  0  0  0  0  0  0  0  0  0  0
  -19.5652   21.1800  -19.7425 C   0  0  0  0  0  0  0  0  0  0  0  0
  -20.9169   21.1642  -19.4339 F   0  0  0  0  0  0  0  0  0  0  0  0
  -18.8015   20.4877  -18.8072 F   0  0  0  0  0  0  0  0  0  0  0  0
  -19.1651   22.5097  -19.6723 F   0  0  0  0  0  0  0  0  0  0  0  0
  -19.1663   10.3226  -16.9299 C   0  0  0  0  0  0  0  0  0  0  0  0
  -18.2163    9.7787  -17.6719 N   0  0  0  0  0  0  0  0  0  0  0  0
  -17.5864   10.4257  -18.7066 C   0  0  0  0  0  0  0  0  0  0  0  0
  -17.9201   11.6914  -19.0236 C   0  0  0  0  0  0  0  0  0  0  0  0
  -18.9392   12.2879  -18.2280 C   0  0  0  0  0  0  0  0  0  0  0  0
  -19.4944   11.6111  -17.2601 N   0  0  0  0  0  0  0  0  0  0  0  0
  -19.8563    9.6780  -15.9031 N   0  0  0  0  0  0  0  0  0  0  0  0
  -20.6988    9.0714  -16.2174 H   0  0  0  0  0  0  0  0  0  0  0  0
  -19.0753    9.5694  -11.7316 C   0  0  0  0  0  0  0  0  0  0  0  0
  -19.5574   10.7053  -12.3503 C   0  0  0  0  0  0  0  0  0  0  0  0
  -19.8194   10.7656  -13.7040 C   0  0  0  0  0  0  0  0  0  0  0  0
  -19.6118    9.6783  -14.5194 C   0  0  0  0  0  0  0  0  0  0  0  0
  -19.1184    8.5086  -13.9011 C   0  0  0  0  0  0  0  0  0  0  0  0
  -18.8588    8.4503  -12.5572 C   0  0  0  0  0  0  0  0  0  0  0  0
  -19.5173    6.6358   -8.6393 C   0  0  0  0  0  0  0  0  0  0  0  0
  -19.2349    7.9704   -8.1356 N   0  0  0  0  0  0  0  0  0  0  0  0
  -20.2062    8.9307   -8.5001 C   0  0  0  0  0  0  0  0  0  0  0  0
  -19.6512   10.0855   -9.3110 C   0  0  0  0  0  0  0  0  0  0  0  0
  -18.8160    9.4813  -10.3438 N   0  0  0  0  0  0  0  0  0  0  0  0
  -17.6398    8.7575   -9.8148 C   0  0  0  0  0  0  0  0  0  0  0  0
  -17.8752    8.3535   -8.3883 C   0  0  0  0  0  0  0  0  0  0  0  0
 40 41  1  0  0  0
 41 42  1  0  0  0
 42 43  1  0  0  0
 43 44  1  0  0  0
 44 45  1  0  0  0
 45 46  1  0  0  0
 44 34  1  0  0  0
 34 35  2  0  0  0
 35 36  1  0  0  0
 36 37  2  0  0  0
 37 32  1  0  0  0
 32 26  1  0  0  0
 26 27  2  0  0  0
 27 28  1  0  0  0
 28 29  2  0  0  0
 29  1  1  0  0  0
  1  2  1  0  0  0
  2  3  2  0  0  0
  2  5  1  0  0  0
  5  6  2  0  0  0
  6  7  1  0  0  0
  7 12  1  0  0  0
 12 13  1  0  0  0
 13 14  2  0  0  0
 13 16  1  0  0  0
 16 17  2  0  0  0
 17 18  1  0  0  0
 18 19  2  0  0  0
 19 20  1  0  0  0
 20 21  2  0  0  0
 20 22  1  0  0  0
 22 23  1  0  0  0
 22 24  1  0  0  0
 22 25  1  0  0  0
  7  8  2  0  0  0
  8  9  1  0  0  0
  9 10  2  0  0  0
 10 11  1  0  0  0
 29 30  1  0  0  0
 30 31  2  0  0  0
 37 38  1  0  0  0
 38 39  2  0  0  0
 46 41  1  0  0  0
 39 34  1  0  0  0
 31 26  1  0  0  0
 10  5  1  0  0  0
 21 16  1  0  0  0
 32 33  1  0  0  0
  1  4  1  0  0  0
 12 15  1  0  0  0
M  END
> <minimizedAffinity>
-8.64468

> <CNNscore>
0.1430390775

> <CNNaffinity>
6.4715247154

> <CNN_VS>
0.9256809354

> <CNNaffinity_variance>
0.0806844383

$$$$
[H]c1nc(N([H])[H])c([H])c(-n2c(N([H])c3c([H])c(N([H])C(=O)c4c([H])c([H])c([H])c(C(F)(F)F)c4[H])c([H])c([H])c3C([H])([H])[H])nc3c([H])c([H])c([H])c([H])c32)n1


 41 45  0  0  0  0  0  0  0  0999 V2000
  -18.9205   17.2888  -17.3598 C   0  0  0  0  0  0  0  0  0  0  0  0
  -18.8828   16.8077  -18.7862 C   0  0  0  0  0  0  0  0  0  0  0  0
  -19.0017   17.6703  -19.8256 C   0  0  0  0  0  0  0  0  0  0  0  0
  -19.0013   17.2253  -21.1280 C   0  0  0  0  0  0  0  0  0  0  0  0
  -18.8782   15.8787  -21.4296 C   0  0  0  0  0  0  0  0  0  0  0  0
  -18.7619   14.9916  -20.3928 C   0  0  0  0  0  0  0  0  0  0  0  0
  -18.7584   15.4134  -19.0596 C   0  0  0  0  0  0  0  0  0  0  0  0
  -18.8053   15.5402  -22.8455 N   0  0  0  0  0  0  0  0  0  0  0  0
  -17.7518   14.7309  -23.3057 C   0  0  0  0  0  0  0  0  0  0  0  0
  -16.9123   14.2644  -22.4445 O   0  0  0  0  0  0  0  0  0  0  0  0
  -19.5403   15.9040  -23.4512 H   0  0  0  0  0  0  0  0  0  0  0  0
  -17.4677   14.3371  -24.6583 C   0  0  0  0  0  0  0  0  0  0  0  0
  -17.8318   13.0403  -25.0927 C   0  0  0  0  0  0  0  0  0  0  0  0
  -17.5230   12.5762  -26.3423 C   0  0  0  0  0  0  0  0  0  0  0  0
  -16.8388   13.3665  -27.2252 C   0  0  0  0  0  0  0  0  0  0  0  0
  -16.4576   14.6407  -26.8582 C   0  0  0  0  0  0  0  0  0  0  0  0
  -16.7788   15.0929  -25.5953 C   0  0  0  0  0  0  0  0  0  0  0  0
  -15.7061   15.4271  -27.8710 C   0  0  0  0  0  0  0  0  0  0  0  0
  -14.8623   16.3196  -27.1949 F   0  0  0  0  0  0  0  0  0  0  0  0
  -16.4847   16.1561  -28.7162 F   0  0  0  0  0  0  0  0  0  0  0  0
  -14.9516   14.5655  -28.6723 F   0  0  0  0  0  0  0  0  0  0  0  0
  -18.5386   14.6499  -17.9269 N   0  0  0  0  0  0  0  0  0  0  0  0
  -17.5577   14.8468  -17.4529 H   0  0  0  0  0  0  0  0  0  0  0  0
  -19.3281   13.6567  -17.3376 C   0  0  0  0  0  0  0  0  0  0  0  0
  -20.3271   13.6343  -16.4514 N   0  0  0  0  0  0  0  0  0  0  0  0
  -20.6974   12.3658  -16.1254 C   0  0  0  0  0  0  0  0  0  0  0  0
  -21.6042   11.7943  -15.2697 C   0  0  0  0  0  0  0  0  0  0  0  0
  -21.6995   10.4275  -15.1377 C   0  0  0  0  0  0  0  0  0  0  0  0
  -20.8806    9.5886  -15.8724 C   0  0  0  0  0  0  0  0  0  0  0  0
  -19.9689   10.1600  -16.7358 C   0  0  0  0  0  0  0  0  0  0  0  0
  -19.8978   11.5486  -16.8401 C   0  0  0  0  0  0  0  0  0  0  0  0
  -19.0841   12.3036  -17.5645 N   0  0  0  0  0  0  0  0  0  0  0  0
  -18.0965   11.8010  -18.4464 C   0  0  0  0  0  0  0  0  0  0  0  0
  -18.3252   11.7760  -19.8046 C   0  0  0  0  0  0  0  0  0  0  0  0
  -17.3892   11.2996  -20.6831 C   0  0  0  0  0  0  0  0  0  0  0  0
  -17.6017   11.2804  -22.0952 N   0  0  0  0  0  0  0  0  0  0  0  0
  -16.2055   10.8394  -20.1898 N   0  0  0  0  0  0  0  0  0  0  0  0
  -15.9844   10.8654  -18.8542 C   0  0  0  0  0  0  0  0  0  0  0  0
  -16.9066   11.3312  -18.0269 N   0  0  0  0  0  0  0  0  0  0  0  0
  -17.0659   10.6152  -22.6871 H   0  0  0  0  0  0  0  0  0  0  0  0
  -18.3032   11.9435  -22.5060 H   0  0  0  0  0  0  0  0  0  0  0  0
  1  2  1  0  0  0
  2  3  2  0  0  0
  3  4  1  0  0  0
  4  5  2  0  0  0
  5  8  1  0  0  0
  8  9  1  0  0  0
  9 10  2  0  0  0
  9 12  1  0  0  0
 12 13  2  0  0  0
 13 14  1  0  0  0
 14 15  2  0  0  0
 15 16  1  0  0  0
 16 17  2  0  0  0
 16 18  1  0  0  0
 18 19  1  0  0  0
 18 20  1  0  0  0
 18 21  1  0  0  0
  5  6  1  0  0  0
  6  7  2  0  0  0
  7 22  1  0  0  0
 22 24  1  0  0  0
 24 25  2  0  0  0
 25 26  1  0  0  0
 26 27  2  0  0  0
 27 28  1  0  0  0
 28 29  2  0  0  0
 29 30  1  0  0  0
 30 31  2  0  0  0
 31 32  1  0  0  0
 32 33  1  0  0  0
 33 34  2  0  0  0
 34 35  1  0  0  0
 35 36  1  0  0  0
 35 37  2  0  0  0
 37 38  1  0  0  0
 38 39  2  0  0  0
  7  2  1  0  0  0
 32 24  1  0  0  0
 39 33  1  0  0  0
 17 12  1  0  0  0
 31 26  1  0  0  0
  8 11  1  0  0  0
 22 23  1  0  0  0
 36 40  1  0  0  0
 36 41  1  0  0  0
M  END
> <minimizedAffinity>
-9.53258

> <CNNscore>
0.3494637012

> <CNNaffinity>
7.2994332314

> <CNN_VS>
2.5508868694

> <CNNaffinity_variance>
0.3692701757

$$$$
[H]c1nc(N([H])[H])c([H])c(-n2c(N([H])c3c([H])c(N([H])C(=O)c4c([H])c([H])c([H])c(C(F)(F)F)c4[H])c([H])c([H])c3C([H])([H])[H])nc3c([H])c([H])c([H])c([H])c32)n1


 41 45  0  0  0  0  0  0  0  0999 V2000
  -18.7249   17.2706  -23.6499 C   0  0  0  0  0  0  0  0  0  0  0  0
  -18.7413   17.4998  -22.1617 C   0  0  0  0  0  0  0  0  0  0  0  0
  -18.7957   18.7505  -21.6405 C   0  0  0  0  0  0  0  0  0  0  0  0
  -18.7762   18.9600  -20.2804 C   0  0  0  0  0  0  0  0  0  0  0  0
  -18.7015   17.9019  -19.3891 C   0  0  0  0  0  0  0  0  0  0  0  0
  -18.6409   16.6315  -19.8968 C   0  0  0  0  0  0  0  0  0  0  0  0
  -18.6594   16.3869  -21.2735 C   0  0  0  0  0  0  0  0  0  0  0  0
  -18.7743   18.2456  -17.9744 N   0  0  0  0  0  0  0  0  0  0  0  0
  -20.0334   18.3959  -17.3672 C   0  0  0  0  0  0  0  0  0  0  0  0
  -21.0886   18.1662  -18.0727 O   0  0  0  0  0  0  0  0  0  0  0  0
  -17.8925   18.3553  -17.4744 H   0  0  0  0  0  0  0  0  0  0  0  0
  -20.3194   18.7882  -16.0146 C   0  0  0  0  0  0  0  0  0  0  0  0
  -19.3955   18.4687  -14.9911 C   0  0  0  0  0  0  0  0  0  0  0  0
  -19.6415   18.7456  -13.6740 C   0  0  0  0  0  0  0  0  0  0  0  0
  -20.8108   19.3496  -13.2998 C   0  0  0  0  0  0  0  0  0  0  0  0
  -21.7497   19.6852  -14.2535 C   0  0  0  0  0  0  0  0  0  0  0  0
  -21.4844   19.4004  -15.5768 C   0  0  0  0  0  0  0  0  0  0  0  0
  -22.9976   20.3251  -13.7611 C   0  0  0  0  0  0  0  0  0  0  0  0
  -22.7438   20.8597  -12.4901 F   0  0  0  0  0  0  0  0  0  0  0  0
  -24.0614   19.4837  -13.6494 F   0  0  0  0  0  0  0  0  0  0  0  0
  -23.3862   21.3396  -14.6406 F   0  0  0  0  0  0  0  0  0  0  0  0
  -18.7164   15.1646  -21.9192 N   0  0  0  0  0  0  0  0  0  0  0  0
  -19.2976   15.1965  -22.8608 H   0  0  0  0  0  0  0  0  0  0  0  0
  -18.2064   13.9175  -21.5427 C   0  0  0  0  0  0  0  0  0  0  0  0
  -18.3427   13.1116  -20.4864 N   0  0  0  0  0  0  0  0  0  0  0  0
  -17.5299   12.0224  -20.5619 C   0  0  0  0  0  0  0  0  0  0  0  0
  -17.2520   10.9444  -19.7608 C   0  0  0  0  0  0  0  0  0  0  0  0
  -16.3070   10.0107  -20.1214 C   0  0  0  0  0  0  0  0  0  0  0  0
  -15.6112   10.1336  -21.3109 C   0  0  0  0  0  0  0  0  0  0  0  0
  -15.8899   11.2156  -22.1201 C   0  0  0  0  0  0  0  0  0  0  0  0
  -16.8506   12.1436  -21.7202 C   0  0  0  0  0  0  0  0  0  0  0  0
  -17.2462   13.2622  -22.3111 N   0  0  0  0  0  0  0  0  0  0  0  0
  -16.7542   13.7298  -23.5541 C   0  0  0  0  0  0  0  0  0  0  0  0
  -15.4567   14.1799  -23.6632 C   0  0  0  0  0  0  0  0  0  0  0  0
  -14.9506   14.6348  -24.8514 C   0  0  0  0  0  0  0  0  0  0  0  0
  -13.6039   15.0902  -24.9877 N   0  0  0  0  0  0  0  0  0  0  0  0
  -15.7605   14.6393  -25.9469 N   0  0  0  0  0  0  0  0  0  0  0  0
  -17.0352   14.1963  -25.8357 C   0  0  0  0  0  0  0  0  0  0  0  0
  -17.4994   13.7619  -24.6749 N   0  0  0  0  0  0  0  0  0  0  0  0
  -13.3563   15.7401  -25.7598 H   0  0  0  0  0  0  0  0  0  0  0  0
  -12.8890   14.7566  -24.2961 H   0  0  0  0  0  0  0  0  0  0  0  0
  1  2  1  0  0  0
  2  3  2  0  0  0
  3  4  1  0  0  0
  4  5  2  0  0  0
  5  8  1  0  0  0
  8  9  1  0  0  0
  9 10  2  0  0  0
  9 12  1  0  0  0
 12 13  2  0  0  0
 13 14  1  0  0  0
 14 15  2  0  0  0
 15 16  1  0  0  0
 16 17  2  0  0  0
 16 18  1  0  0  0
 18 19  1  0  0  0
 18 20  1  0  0  0
 18 21  1  0  0  0
  5  6  1  0  0  0
  6  7  2  0  0  0
  7 22  1  0  0  0
 22 24  1  0  0  0
 24 25  2  0  0  0
 25 26  1  0  0  0
 26 27  2  0  0  0
 27 28  1  0  0  0
 28 29  2  0  0  0
 29 30  1  0  0  0
 30 31  2  0  0  0
 31 32  1  0  0  0
 32 33  1  0  0  0
 33 34  2  0  0  0
 34 35  1  0  0  0
 35 36  1  0  0  0
 35 37  2  0  0  0
 37 38  1  0  0  0
 38 39  2  0  0  0
  7  2  1  0  0  0
 32 24  1  0  0  0
 39 33  1  0  0  0
 17 12  1  0  0  0
 31 26  1  0  0  0
  8 11  1  0  0  0
 22 23  1  0  0  0
 36 40  1  0  0  0
 36 41  1  0  0  0
M  END
> <minimizedAffinity>
-9.06208

> <CNNscore>
0.1824566424

> <CNNaffinity>
6.5379266739

> <CNN_VS>
1.1928881407

> <CNNaffinity_variance>
0.2707988322

$$$$
[H]c1nc(N([H])[H])c([H])c(-n2c(N([H])c3c([H])c(N([H])C(=O)c4c([H])c([H])c([H])c(C(F)(F)F)c4[H])c([H])c([H])c3C([H])([H])[H])nc3c([H])c([H])c([H])c([H])c32)n1


 41 45  0  0  0  0  0  0  0  0999 V2000
  -15.6745   11.4548  -22.3360 C   0  0  0  0  0  0  0  0  0  0  0  0
  -16.5034   11.3782  -21.0811 C   0  0  0  0  0  0  0  0  0  0  0  0
  -16.3289   10.3805  -20.1795 C   0  0  0  0  0  0  0  0  0  0  0  0
  -17.1104   10.2925  -19.0500 C   0  0  0  0  0  0  0  0  0  0  0  0
  -18.1055   11.2201  -18.7879 C   0  0  0  0  0  0  0  0  0  0  0  0
  -18.3000   12.2324  -19.6896 C   0  0  0  0  0  0  0  0  0  0  0  0
  -17.5219   12.3485  -20.8456 C   0  0  0  0  0  0  0  0  0  0  0  0
  -18.8076   11.0699  -17.5194 N   0  0  0  0  0  0  0  0  0  0  0  0
  -19.1308    9.7806  -17.0609 C   0  0  0  0  0  0  0  0  0  0  0  0
  -18.7415    8.7649  -17.7543 O   0  0  0  0  0  0  0  0  0  0  0  0
  -19.0302   11.9215  -17.0049 H   0  0  0  0  0  0  0  0  0  0  0  0
  -19.8669    9.4232  -15.8795 C   0  0  0  0  0  0  0  0  0  0  0  0
  -19.1651    8.9687  -14.7376 C   0  0  0  0  0  0  0  0  0  0  0  0
  -19.8086    8.5414  -13.6082 C   0  0  0  0  0  0  0  0  0  0  0  0
  -21.1755    8.5393  -13.5486 C   0  0  0  0  0  0  0  0  0  0  0  0
  -21.9137    8.9719  -14.6310 C   0  0  0  0  0  0  0  0  0  0  0  0
  -21.2486    9.4009  -15.7607 C   0  0  0  0  0  0  0  0  0  0  0  0
  -23.3924    8.9241  -14.4886 C   0  0  0  0  0  0  0  0  0  0  0  0
  -23.8319   10.1834  -14.0565 F   0  0  0  0  0  0  0  0  0  0  0  0
  -23.8478    8.0009  -13.5984 F   0  0  0  0  0  0  0  0  0  0  0  0
  -23.9748    8.6079  -15.7192 F   0  0  0  0  0  0  0  0  0  0  0  0
  -17.5315   13.3708  -21.7778 N   0  0  0  0  0  0  0  0  0  0  0  0
  -16.8373   13.1963  -22.6223 H   0  0  0  0  0  0  0  0  0  0  0  0
  -18.2307   14.5825  -21.7851 C   0  0  0  0  0  0  0  0  0  0  0  0
  -19.0622   15.2080  -20.9476 N   0  0  0  0  0  0  0  0  0  0  0  0
  -19.5639   16.3549  -21.4818 C   0  0  0  0  0  0  0  0  0  0  0  0
  -20.4550   17.3185  -21.0836 C   0  0  0  0  0  0  0  0  0  0  0  0
  -20.7933   18.3650  -21.9113 C   0  0  0  0  0  0  0  0  0  0  0  0
  -20.2370   18.4754  -23.1732 C   0  0  0  0  0  0  0  0  0  0  0  0
  -19.3386   17.5090  -23.5761 C   0  0  0  0  0  0  0  0  0  0  0  0
  -19.0230   16.4610  -22.7123 C   0  0  0  0  0  0  0  0  0  0  0  0
  -18.2286   15.4168  -22.9012 N   0  0  0  0  0  0  0  0  0  0  0  0
  -17.4826   15.1799  -24.0814 C   0  0  0  0  0  0  0  0  0  0  0  0
  -16.3851   15.9580  -24.3780 C   0  0  0  0  0  0  0  0  0  0  0  0
  -15.6416   15.7517  -25.5092 C   0  0  0  0  0  0  0  0  0  0  0  0
  -14.4916   16.5374  -25.8255 N   0  0  0  0  0  0  0  0  0  0  0  0
  -16.0069   14.7496  -26.3567 N   0  0  0  0  0  0  0  0  0  0  0  0
  -17.0862   13.9870  -26.0619 C   0  0  0  0  0  0  0  0  0  0  0  0
  -17.7877   14.2079  -24.9615 N   0  0  0  0  0  0  0  0  0  0  0  0
  -14.1726   16.6084  -26.8118 H   0  0  0  0  0  0  0  0  0  0  0  0
  -13.9922   17.0319  -25.0465 H   0  0  0  0  0  0  0  0  0  0  0  0
  1  2  1  0  0  0
  2  3  2  0  0  0
  3  4  1  0  0  0
  4  5  2  0  0  0
  5  8  1  0  0  0
  8  9  1  0  0  0
  9 10  2  0  0  0
  9 12  1  0  0  0
 12 13  2  0  0  0
 13 14  1  0  0  0
 14 15  2  0  0  0
 15 16  1  0  0  0
 16 17  2  0  0  0
 16 18  1  0  0  0
 18 19  1  0  0  0
 18 20  1  0  0  0
 18 21  1  0  0  0
  5  6  1  0  0  0
  6  7  2  0  0  0
  7 22  1  0  0  0
 22 24  1  0  0  0
 24 25  2  0  0  0
 25 26  1  0  0  0
 26 27  2  0  0  0
 27 28  1  0  0  0
 28 29  2  0  0  0
 29 30  1  0  0  0
 30 31  2  0  0  0
 31 32  1  0  0  0
 32 33  1  0  0  0
 33 34  2  0  0  0
 34 35  1  0  0  0
 35 36  1  0  0  0
 35 37  2  0  0  0
 37 38  1  0  0  0
 38 39  2  0  0  0
  7  2  1  0  0  0
 32 24  1  0  0  0
 39 33  1  0  0  0
 17 12  1  0  0  0
 31 26  1  0  0  0
  8 11  1  0  0  0
 22 23  1  0  0  0
 36 40  1  0  0  0
 36 41  1  0  0  0
M  END
> <minimizedAffinity>
-9.54842

> <CNNscore>
0.1727733016

> <CNNaffinity>
6.7087869644

> <CNN_VS>
1.1590992212

> <CNNaffinity_variance>
0.1881031692

$$$$
[H]c1nc(N([H])[H])c([H])c(-n2c(N([H])c3c([H])c(N([H])C(=O)c4c([H])c([H])c([H])c(C(F)(F)F)c4[H])c([H])c([H])c3C([H])([H])[H])nc3c([H])c([H])c([H])c([H])c32)n1


 41 45  0  0  0  0  0  0  0  0999 V2000
  -15.5944   11.6201  -22.6623 C   0  0  0  0  0  0  0  0  0  0  0  0
  -16.4243   11.5793  -21.4064 C   0  0  0  0  0  0  0  0  0  0  0  0
  -16.1619   10.6919  -20.4153 C   0  0  0  0  0  0  0  0  0  0  0  0
  -16.9422   10.6328  -19.2831 C   0  0  0  0  0  0  0  0  0  0  0  0
  -18.0260   11.4783  -19.1097 C   0  0  0  0  0  0  0  0  0  0  0  0
  -18.3096   12.3783  -20.1023 C   0  0  0  0  0  0  0  0  0  0  0  0
  -17.5352   12.4624  -21.2635 C   0  0  0  0  0  0  0  0  0  0  0  0
  -18.7226   11.3783  -17.8332 N   0  0  0  0  0  0  0  0  0  0  0  0
  -19.0576   10.1088  -17.3304 C   0  0  0  0  0  0  0  0  0  0  0  0
  -18.6836    9.0662  -17.9916 O   0  0  0  0  0  0  0  0  0  0  0  0
  -18.9327   12.2491  -17.3462 H   0  0  0  0  0  0  0  0  0  0  0  0
  -19.7911    9.7992  -16.1339 C   0  0  0  0  0  0  0  0  0  0  0  0
  -21.0610   10.3892  -15.9284 C   0  0  0  0  0  0  0  0  0  0  0  0
  -21.7771   10.1967  -14.7784 C   0  0  0  0  0  0  0  0  0  0  0  0
  -21.2767    9.4145  -13.7735 C   0  0  0  0  0  0  0  0  0  0  0  0
  -20.0436    8.8125  -13.9171 C   0  0  0  0  0  0  0  0  0  0  0  0
  -19.3362    9.0159  -15.0836 C   0  0  0  0  0  0  0  0  0  0  0  0
  -19.5679    7.9913  -12.7732 C   0  0  0  0  0  0  0  0  0  0  0  0
  -18.3116    8.4738  -12.3800 F   0  0  0  0  0  0  0  0  0  0  0  0
  -19.4336    6.6643  -13.0437 F   0  0  0  0  0  0  0  0  0  0  0  0
  -20.4738    8.0893  -11.7133 F   0  0  0  0  0  0  0  0  0  0  0  0
  -17.6356   13.3876  -22.2873 N   0  0  0  0  0  0  0  0  0  0  0  0
  -17.2700   13.0030  -23.2588 H   0  0  0  0  0  0  0  0  0  0  0  0
  -18.0704   14.7171  -22.2662 C   0  0  0  0  0  0  0  0  0  0  0  0
  -19.0473   15.3907  -21.6532 N   0  0  0  0  0  0  0  0  0  0  0  0
  -19.1096   16.6887  -22.0577 C   0  0  0  0  0  0  0  0  0  0  0  0
  -19.9157   17.7655  -21.7897 C   0  0  0  0  0  0  0  0  0  0  0  0
  -19.7325   18.9717  -22.4270 C   0  0  0  0  0  0  0  0  0  0  0  0
  -18.7214   19.1320  -23.3576 C   0  0  0  0  0  0  0  0  0  0  0  0
  -17.9072   18.0516  -23.6279 C   0  0  0  0  0  0  0  0  0  0  0  0
  -18.1253   16.8440  -22.9660 C   0  0  0  0  0  0  0  0  0  0  0  0
  -17.5010   15.6818  -23.0950 N   0  0  0  0  0  0  0  0  0  0  0  0
  -16.4058   15.4520  -23.9630 C   0  0  0  0  0  0  0  0  0  0  0  0
  -16.5333   15.6735  -25.3166 C   0  0  0  0  0  0  0  0  0  0  0  0
  -15.4922   15.4640  -26.1810 C   0  0  0  0  0  0  0  0  0  0  0  0
  -15.6003   15.7031  -27.5849 N   0  0  0  0  0  0  0  0  0  0  0  0
  -14.3050   15.0235  -25.6785 N   0  0  0  0  0  0  0  0  0  0  0  0
  -14.1835   14.8068  -24.3474 C   0  0  0  0  0  0  0  0  0  0  0  0
  -15.2061   15.0172  -23.5338 N   0  0  0  0  0  0  0  0  0  0  0  0
  -14.9570   15.2174  -28.2405 H   0  0  0  0  0  0  0  0  0  0  0  0
  -16.3365   16.3686  -27.9252 H   0  0  0  0  0  0  0  0  0  0  0  0
  1  2  1  0  0  0
  2  3  2  0  0  0
  3  4  1  0  0  0
  4  5  2  0  0  0
  5  8  1  0  0  0
  8  9  1  0  0  0
  9 10  2  0  0  0
  9 12  1  0  0  0
 12 13  2  0  0  0
 13 14  1  0  0  0
 14 15  2  0  0  0
 15 16  1  0  0  0
 16 17  2  0  0  0
 16 18  1  0  0  0
 18 19  1  0  0  0
 18 20  1  0  0  0
 18 21  1  0  0  0
  5  6  1  0  0  0
  6  7  2  0  0  0
  7 22  1  0  0  0
 22 24  1  0  0  0
 24 25  2  0  0  0
 25 26  1  0  0  0
 26 27  2  0  0  0
 27 28  1  0  0  0
 28 29  2  0  0  0
 29 30  1  0  0  0
 30 31  2  0  0  0
 31 32  1  0  0  0
 32 33  1  0  0  0
 33 34  2  0  0  0
 34 35  1  0  0  0
 35 36  1  0  0  0
 35 37  2  0  0  0
 37 38  1  0  0  0
 38 39  2  0  0  0
  7  2  1  0  0  0
 32 24  1  0  0  0
 39 33  1  0  0  0
 17 12  1  0  0  0
 31 26  1  0  0  0
  8 11  1  0  0  0
 22 23  1  0  0  0
 36 40  1  0  0  0
 36 41  1  0  0  0
M  END
> <minimizedAffinity>
-9.79732

> <CNNscore>
0.1584219486

> <CNNaffinity>
6.5937881470

> <CNN_VS>
1.0446007252

> <CNNaffinity_variance>
0.2544887364

$$$$
[H]c1nc(N([H])[H])c([H])c(-n2c(N([H])c3c([H])c(N([H])C(=O)c4c([H])c([H])c([H])c(C(F)(F)F)c4[H])c([H])c([H])c3C([H])([H])[H])nc3c([H])c([H])c([H])c([H])c32)n1


 41 45  0  0  0  0  0  0  0  0999 V2000
  -18.0321   17.0160  -23.8335 C   0  0  0  0  0  0  0  0  0  0  0  0
  -18.2109   17.4955  -22.4173 C   0  0  0  0  0  0  0  0  0  0  0  0
  -18.0843   18.8064  -22.0945 C   0  0  0  0  0  0  0  0  0  0  0  0
  -18.2143   19.2385  -20.7942 C   0  0  0  0  0  0  0  0  0  0  0  0
  -18.4809   18.3522  -19.7633 C   0  0  0  0  0  0  0  0  0  0  0  0
  -18.6074   17.0233  -20.0692 C   0  0  0  0  0  0  0  0  0  0  0  0
  -18.4812   16.5541  -21.3804 C   0  0  0  0  0  0  0  0  0  0  0  0
  -18.6808   18.9400  -18.4446 N   0  0  0  0  0  0  0  0  0  0  0  0
  -19.9449   18.8491  -17.8357 C   0  0  0  0  0  0  0  0  0  0  0  0
  -20.8753   18.1939  -18.4431 O   0  0  0  0  0  0  0  0  0  0  0  0
  -17.8780   19.3923  -18.0081 H   0  0  0  0  0  0  0  0  0  0  0  0
  -20.3616   19.4100  -16.5798 C   0  0  0  0  0  0  0  0  0  0  0  0
  -20.7383   20.7730  -16.5214 C   0  0  0  0  0  0  0  0  0  0  0  0
  -21.0719   21.3877  -15.3454 C   0  0  0  0  0  0  0  0  0  0  0  0
  -21.0494   20.6902  -14.1685 C   0  0  0  0  0  0  0  0  0  0  0  0
  -20.6907   19.3579  -14.1631 C   0  0  0  0  0  0  0  0  0  0  0  0
  -20.3591   18.7538  -15.3579 C   0  0  0  0  0  0  0  0  0  0  0  0
  -20.6786   18.6785  -12.8412 C   0  0  0  0  0  0  0  0  0  0  0  0
  -21.6804   17.6975  -12.8437 F   0  0  0  0  0  0  0  0  0  0  0  0
  -20.9072   19.4981  -11.7791 F   0  0  0  0  0  0  0  0  0  0  0  0
  -19.4296   18.0896  -12.6250 F   0  0  0  0  0  0  0  0  0  0  0  0
  -18.6927   15.2692  -21.8478 N   0  0  0  0  0  0  0  0  0  0  0  0
  -19.2476   15.2401  -22.8052 H   0  0  0  0  0  0  0  0  0  0  0  0
  -18.3636   14.0339  -21.2795 C   0  0  0  0  0  0  0  0  0  0  0  0
  -18.6459   13.4059  -20.1350 N   0  0  0  0  0  0  0  0  0  0  0  0
  -17.9780   12.2258  -20.0174 C   0  0  0  0  0  0  0  0  0  0  0  0
  -17.8744   11.2442  -19.0651 C   0  0  0  0  0  0  0  0  0  0  0  0
  -17.0438   10.1611  -19.2425 C   0  0  0  0  0  0  0  0  0  0  0  0
  -16.2897   10.0310  -20.3951 C   0  0  0  0  0  0  0  0  0  0  0  0
  -16.3931   11.0154  -21.3560 C   0  0  0  0  0  0  0  0  0  0  0  0
  -17.2417   12.1004  -21.1399 C   0  0  0  0  0  0  0  0  0  0  0  0
  -17.4652   13.1656  -21.8966 N   0  0  0  0  0  0  0  0  0  0  0  0
  -16.8664   13.3917  -23.1599 C   0  0  0  0  0  0  0  0  0  0  0  0
  -17.3781   12.7910  -24.2891 C   0  0  0  0  0  0  0  0  0  0  0  0
  -16.8239   12.9924  -25.5250 C   0  0  0  0  0  0  0  0  0  0  0  0
  -17.3497   12.3913  -26.7090 N   0  0  0  0  0  0  0  0  0  0  0  0
  -15.7378   13.8085  -25.6282 N   0  0  0  0  0  0  0  0  0  0  0  0
  -15.2377   14.3970  -24.5161 C   0  0  0  0  0  0  0  0  0  0  0  0
  -15.7927   14.1851  -23.3333 N   0  0  0  0  0  0  0  0  0  0  0  0
  -16.7355   12.2635  -27.5373 H   0  0  0  0  0  0  0  0  0  0  0  0
  -18.3538   12.0872  -26.7138 H   0  0  0  0  0  0  0  0  0  0  0  0
  1  2  1  0  0  0
  2  3  2  0  0  0
  3  4  1  0  0  0
  4  5  2  0  0  0
  5  8  1  0  0  0
  8  9  1  0  0  0
  9 10  2  0  0  0
  9 12  1  0  0  0
 12 13  2  0  0  0
 13 14  1  0  0  0
 14 15  2  0  0  0
 15 16  1  0  0  0
 16 17  2  0  0  0
 16 18  1  0  0  0
 18 19  1  0  0  0
 18 20  1  0  0  0
 18 21  1  0  0  0
  5  6  1  0  0  0
  6  7  2  0  0  0
  7 22  1  0  0  0
 22 24  1  0  0  0
 24 25  2  0  0  0
 25 26  1  0  0  0
 26 27  2  0  0  0
 27 28  1  0  0  0
 28 29  2  0  0  0
 29 30  1  0  0  0
 30 31  2  0  0  0
 31 32  1  0  0  0
 32 33  1  0  0  0
 33 34  2  0  0  0
 34 35  1  0  0  0
 35 36  1  0  0  0
 35 37  2  0  0  0
 37 38  1  0  0  0
 38 39  2  0  0  0
  7  2  1  0  0  0
 32 24  1  0  0  0
 39 33  1  0  0  0
 17 12  1  0  0  0
 31 26  1  0  0  0
  8 11  1  0  0  0
 22 23  1  0  0  0
 36 40  1  0  0  0
 36 41  1  0  0  0
M  END
> <minimizedAffinity>
-9.45254

> <CNNscore>
0.1311529875

> <CNNaffinity>
6.5920438766

> <CNN_VS>
0.8645662665

> <CNNaffinity_variance>
0.1681998074

$$$$
[H]c1nc(N([H])[H])c([H])c(-n2c(N([H])c3c([H])c(N([H])C(=O)c4c([H])c([H])c([H])c(C(F)(F)F)c4[H])c([H])c([H])c3C([H])([H])[H])nc3c([H])c([H])c([H])c([H])c32)n1


 41 45  0  0  0  0  0  0  0  0999 V2000
  -16.1095   10.7442  -21.0570 C   0  0  0  0  0  0  0  0  0  0  0  0
  -17.0605   10.7379  -19.8895 C   0  0  0  0  0  0  0  0  0  0  0  0
  -17.0499    9.7361  -18.9757 C   0  0  0  0  0  0  0  0  0  0  0  0
  -17.9424    9.7140  -17.9282 C   0  0  0  0  0  0  0  0  0  0  0  0
  -18.8864   10.7147  -17.7644 C   0  0  0  0  0  0  0  0  0  0  0  0
  -18.9157   11.7326  -18.6802 C   0  0  0  0  0  0  0  0  0  0  0  0
  -18.0219   11.7828  -19.7543 C   0  0  0  0  0  0  0  0  0  0  0  0
  -19.7184   10.6256  -16.5708 N   0  0  0  0  0  0  0  0  0  0  0  0
  -20.0711    9.3595  -16.0715 C   0  0  0  0  0  0  0  0  0  0  0  0
  -19.5957    8.3126  -16.6564 O   0  0  0  0  0  0  0  0  0  0  0  0
  -20.0066   11.5015  -16.1358 H   0  0  0  0  0  0  0  0  0  0  0  0
  -20.9247    9.0577  -14.9555 C   0  0  0  0  0  0  0  0  0  0  0  0
  -21.4618   10.1187  -14.1881 C   0  0  0  0  0  0  0  0  0  0  0  0
  -22.2187    9.8994  -13.0695 C   0  0  0  0  0  0  0  0  0  0  0  0
  -22.4825    8.6238  -12.6508 C   0  0  0  0  0  0  0  0  0  0  0  0
  -21.9861    7.5488  -13.3591 C   0  0  0  0  0  0  0  0  0  0  0  0
  -21.2265    7.7882  -14.4853 C   0  0  0  0  0  0  0  0  0  0  0  0
  -22.3073    6.1981  -12.8285 C   0  0  0  0  0  0  0  0  0  0  0  0
  -22.7364    5.3983  -13.8972 F   0  0  0  0  0  0  0  0  0  0  0  0
  -23.2834    6.1775  -11.8805 F   0  0  0  0  0  0  0  0  0  0  0  0
  -21.1699    5.6408  -12.2374 F   0  0  0  0  0  0  0  0  0  0  0  0
  -17.8640   12.7966  -20.6824 N   0  0  0  0  0  0  0  0  0  0  0  0
  -17.6972   12.4230  -21.7110 H   0  0  0  0  0  0  0  0  0  0  0  0
  -17.8332   14.1846  -20.5101 C   0  0  0  0  0  0  0  0  0  0  0  0
  -18.2422   15.0371  -19.5667 N   0  0  0  0  0  0  0  0  0  0  0  0
  -18.0620   16.3354  -19.9334 C   0  0  0  0  0  0  0  0  0  0  0  0
  -18.3347   17.5609  -19.3814 C   0  0  0  0  0  0  0  0  0  0  0  0
  -18.0590   18.7272  -20.0585 C   0  0  0  0  0  0  0  0  0  0  0  0
  -17.4922   18.6940  -21.3201 C   0  0  0  0  0  0  0  0  0  0  0  0
  -17.2145   17.4629  -21.8774 C   0  0  0  0  0  0  0  0  0  0  0  0
  -17.5114   16.3025  -21.1637 C   0  0  0  0  0  0  0  0  0  0  0  0
  -17.3687   15.0321  -21.5140 N   0  0  0  0  0  0  0  0  0  0  0  0
  -16.8220   14.5964  -22.7456 C   0  0  0  0  0  0  0  0  0  0  0  0
  -15.5847   15.0438  -23.1539 C   0  0  0  0  0  0  0  0  0  0  0  0
  -15.0277   14.6385  -24.3373 C   0  0  0  0  0  0  0  0  0  0  0  0
  -13.7398   15.0788  -24.7699 N   0  0  0  0  0  0  0  0  0  0  0  0
  -15.7248   13.7716  -25.1238 N   0  0  0  0  0  0  0  0  0  0  0  0
  -16.9407   13.3341  -24.7192 C   0  0  0  0  0  0  0  0  0  0  0  0
  -17.4561   13.7420  -23.5704 N   0  0  0  0  0  0  0  0  0  0  0  0
  -13.5014   15.0567  -25.7810 H   0  0  0  0  0  0  0  0  0  0  0  0
  -13.0582   15.4205  -24.0492 H   0  0  0  0  0  0  0  0  0  0  0  0
  1  2  1  0  0  0
  2  3  2  0  0  0
  3  4  1  0  0  0
  4  5  2  0  0  0
  5  8  1  0  0  0
  8  9  1  0  0  0
  9 10  2  0  0  0
  9 12  1  0  0  0
 12 13  2  0  0  0
 13 14  1  0  0  0
 14 15  2  0  0  0
 15 16  1  0  0  0
 16 17  2  0  0  0
 16 18  1  0  0  0
 18 19  1  0  0  0
 18 20  1  0  0  0
 18 21  1  0  0  0
  5  6  1  0  0  0
  6  7  2  0  0  0
  7 22  1  0  0  0
 22 24  1  0  0  0
 24 25  2  0  0  0
 25 26  1  0  0  0
 26 27  2  0  0  0
 27 28  1  0  0  0
 28 29  2  0  0  0
 29 30  1  0  0  0
 30 31  2  0  0  0
 31 32  1  0  0  0
 32 33  1  0  0  0
 33 34  2  0  0  0
 34 35  1  0  0  0
 35 36  1  0  0  0
 35 37  2  0  0  0
 37 38  1  0  0  0
 38 39  2  0  0  0
  7  2  1  0  0  0
 32 24  1  0  0  0
 39 33  1  0  0  0
 17 12  1  0  0  0
 31 26  1  0  0  0
  8 11  1  0  0  0
 22 23  1  0  0  0
 36 40  1  0  0  0
 36 41  1  0  0  0
M  END
> <minimizedAffinity>
-8.71699

> <CNNscore>
0.1174436808

> <CNNaffinity>
6.6775078773

> <CNN_VS>
0.7842311263

> <CNNaffinity_variance>
0.0949501097

$$$$
[H]c1nc(N([H])[H])c([H])c(-n2c(N([H])c3c([H])c(N([H])C(=O)c4c([H])c([H])c([H])c(C(F)(F)F)c4[H])c([H])c([H])c3C([H])([H])[H])nc3c([H])c([H])c([H])c([H])c32)n1


 41 45  0  0  0  0  0  0  0  0999 V2000
  -15.6378   11.6487  -22.6514 C   0  0  0  0  0  0  0  0  0  0  0  0
  -16.4439   11.6026  -21.3804 C   0  0  0  0  0  0  0  0  0  0  0  0
  -16.1497   10.7253  -20.3891 C   0  0  0  0  0  0  0  0  0  0  0  0
  -16.9082   10.6610  -19.2425 C   0  0  0  0  0  0  0  0  0  0  0  0
  -18.0017   11.4906  -19.0541 C   0  0  0  0  0  0  0  0  0  0  0  0
  -18.3175   12.3800  -20.0465 C   0  0  0  0  0  0  0  0  0  0  0  0
  -17.5657   12.4691  -21.2222 C   0  0  0  0  0  0  0  0  0  0  0  0
  -18.6733   11.3875  -17.7645 N   0  0  0  0  0  0  0  0  0  0  0  0
  -19.0071   10.1172  -17.2627 C   0  0  0  0  0  0  0  0  0  0  0  0
  -18.6537    9.0762  -17.9376 O   0  0  0  0  0  0  0  0  0  0  0  0
  -18.8676   12.2566  -17.2682 H   0  0  0  0  0  0  0  0  0  0  0  0
  -19.7186    9.8053  -16.0537 C   0  0  0  0  0  0  0  0  0  0  0  0
  -20.1233    8.4705  -15.8134 C   0  0  0  0  0  0  0  0  0  0  0  0
  -20.8684    8.1198  -14.7207 C   0  0  0  0  0  0  0  0  0  0  0  0
  -21.2529    9.0671  -13.8115 C   0  0  0  0  0  0  0  0  0  0  0  0
  -20.8875   10.3852  -13.9924 C   0  0  0  0  0  0  0  0  0  0  0  0
  -20.1348   10.7207  -15.0985 C   0  0  0  0  0  0  0  0  0  0  0  0
  -21.3581   11.3520  -12.9663 C   0  0  0  0  0  0  0  0  0  0  0  0
  -21.5647   12.5895  -13.5923 F   0  0  0  0  0  0  0  0  0  0  0  0
  -20.4931   11.5514  -11.9347 F   0  0  0  0  0  0  0  0  0  0  0  0
  -22.5511   10.8949  -12.3994 F   0  0  0  0  0  0  0  0  0  0  0  0
  -17.6992   13.3865  -22.2492 N   0  0  0  0  0  0  0  0  0  0  0  0
  -17.3854   12.9872  -23.2329 H   0  0  0  0  0  0  0  0  0  0  0  0
  -18.1116   14.7230  -22.2211 C   0  0  0  0  0  0  0  0  0  0  0  0
  -19.0694   15.4118  -21.5949 N   0  0  0  0  0  0  0  0  0  0  0  0
  -19.1153   16.7112  -21.9971 C   0  0  0  0  0  0  0  0  0  0  0  0
  -19.9000   17.8008  -21.7176 C   0  0  0  0  0  0  0  0  0  0  0  0
  -19.7049   19.0047  -22.3557 C   0  0  0  0  0  0  0  0  0  0  0  0
  -18.7032   19.1496  -23.2989 C   0  0  0  0  0  0  0  0  0  0  0  0
  -17.9105   18.0562  -23.5808 C   0  0  0  0  0  0  0  0  0  0  0  0
  -18.1402   16.8514  -22.9176 C   0  0  0  0  0  0  0  0  0  0  0  0
  -17.5369   15.6793  -23.0559 N   0  0  0  0  0  0  0  0  0  0  0  0
  -16.4568   15.4325  -23.9380 C   0  0  0  0  0  0  0  0  0  0  0  0
  -16.6419   15.5057  -25.3011 C   0  0  0  0  0  0  0  0  0  0  0  0
  -15.6170   15.2760  -26.1796 C   0  0  0  0  0  0  0  0  0  0  0  0
  -15.7856   15.3628  -27.5952 N   0  0  0  0  0  0  0  0  0  0  0  0
  -14.3873   14.9664  -25.6815 N   0  0  0  0  0  0  0  0  0  0  0  0
  -14.2092   14.8953  -24.3411 C   0  0  0  0  0  0  0  0  0  0  0  0
  -15.2173   15.1219  -23.5140 N   0  0  0  0  0  0  0  0  0  0  0  0
  -15.1320   14.8548  -28.2232 H   0  0  0  0  0  0  0  0  0  0  0  0
  -16.5756   15.9414  -27.9717 H   0  0  0  0  0  0  0  0  0  0  0  0
  1  2  1  0  0  0
  2  3  2  0  0  0
  3  4  1  0  0  0
  4  5  2  0  0  0
  5  8  1  0  0  0
  8  9  1  0  0  0
  9 10  2  0  0  0
  9 12  1  0  0  0
 12 13  2  0  0  0
 13 14  1  0  0  0
 14 15  2  0  0  0
 15 16  1  0  0  0
 16 17  2  0  0  0
 16 18  1  0  0  0
 18 19  1  0  0  0
 18 20  1  0  0  0
 18 21  1  0  0  0
  5  6  1  0  0  0
  6  7  2  0  0  0
  7 22  1  0  0  0
 22 24  1  0  0  0
 24 25  2  0  0  0
 25 26  1  0  0  0
 26 27  2  0  0  0
 27 28  1  0  0  0
 28 29  2  0  0  0
 29 30  1  0  0  0
 30 31  2  0  0  0
 31 32  1  0  0  0
 32 33  1  0  0  0
 33 34  2  0  0  0
 34 35  1  0  0  0
 35 36  1  0  0  0
 35 37  2  0  0  0
 37 38  1  0  0  0
 38 39  2  0  0  0
  7  2  1  0  0  0
 32 24  1  0  0  0
 39 33  1  0  0  0
 17 12  1  0  0  0
 31 26  1  0  0  0
  8 11  1  0  0  0
 22 23  1  0  0  0
 36 40  1  0  0  0
 36 41  1  0  0  0
M  END
> <minimizedAffinity>
-9.59246

> <CNNscore>
0.1151639968

> <CNNaffinity>
6.5167970657

> <CNN_VS>
0.7505003810

> <CNNaffinity_variance>
0.2604547441

$$$$
[H]c1nc(N([H])[H])c([H])c(-n2c(N([H])c3c([H])c(N([H])C(=O)c4c([H])c([H])c([H])c(C(F)(F)F)c4[H])c([H])c([H])c3C([H])([H])[H])nc3c([H])c([H])c([H])c([H])c32)n1


 41 45  0  0  0  0  0  0  0  0999 V2000
  -19.4537   16.9882  -22.6689 C   0  0  0  0  0  0  0  0  0  0  0  0
  -19.7436   17.2639  -21.2172 C   0  0  0  0  0  0  0  0  0  0  0  0
  -20.6980   18.1519  -20.8440 C   0  0  0  0  0  0  0  0  0  0  0  0
  -20.9384   18.4281  -19.5173 C   0  0  0  0  0  0  0  0  0  0  0  0
  -20.2163   17.8093  -18.5098 C   0  0  0  0  0  0  0  0  0  0  0  0
  -19.2447   16.9128  -18.8673 C   0  0  0  0  0  0  0  0  0  0  0  0
  -18.9777   16.6112  -20.2064 C   0  0  0  0  0  0  0  0  0  0  0  0
  -20.6204   18.1199  -17.1442 N   0  0  0  0  0  0  0  0  0  0  0  0
  -21.4211   17.2043  -16.4390 C   0  0  0  0  0  0  0  0  0  0  0  0
  -21.7250   16.0868  -17.0072 O   0  0  0  0  0  0  0  0  0  0  0  0
  -20.2913   18.9999  -16.7483 H   0  0  0  0  0  0  0  0  0  0  0  0
  -21.9724   17.3478  -15.1196 C   0  0  0  0  0  0  0  0  0  0  0  0
  -23.2599   16.8272  -14.8469 C   0  0  0  0  0  0  0  0  0  0  0  0
  -23.8733   16.9960  -13.6356 C   0  0  0  0  0  0  0  0  0  0  0  0
  -23.2491   17.6874  -12.6334 C   0  0  0  0  0  0  0  0  0  0  0  0
  -21.9923   18.2177  -12.8404 C   0  0  0  0  0  0  0  0  0  0  0  0
  -21.3880   18.0365  -14.0670 C   0  0  0  0  0  0  0  0  0  0  0  0
  -21.3916   18.9659  -11.7053 C   0  0  0  0  0  0  0  0  0  0  0  0
  -22.2332   18.8242  -10.5929 F   0  0  0  0  0  0  0  0  0  0  0  0
  -21.2239   20.2979  -11.9282 F   0  0  0  0  0  0  0  0  0  0  0  0
  -20.1245   18.4502  -11.4183 F   0  0  0  0  0  0  0  0  0  0  0  0
  -18.1124   15.6542  -20.7062 N   0  0  0  0  0  0  0  0  0  0  0  0
  -17.4798   16.0291  -21.5336 H   0  0  0  0  0  0  0  0  0  0  0  0
  -17.9591   14.3062  -20.3650 C   0  0  0  0  0  0  0  0  0  0  0  0
  -18.2229   13.5593  -19.2895 N   0  0  0  0  0  0  0  0  0  0  0  0
  -17.7797   12.2802  -19.4302 C   0  0  0  0  0  0  0  0  0  0  0  0
  -17.7553   11.1552  -18.6459 C   0  0  0  0  0  0  0  0  0  0  0  0
  -17.1685    9.9902  -19.0854 C   0  0  0  0  0  0  0  0  0  0  0  0
  -16.5879    9.9214  -20.3392 C   0  0  0  0  0  0  0  0  0  0  0  0
  -16.6127   11.0505  -21.1316 C   0  0  0  0  0  0  0  0  0  0  0  0
  -17.2122   12.2142  -20.6514 C   0  0  0  0  0  0  0  0  0  0  0  0
  -17.3158   13.4092  -21.2155 N   0  0  0  0  0  0  0  0  0  0  0  0
  -16.8323   13.7308  -22.5072 C   0  0  0  0  0  0  0  0  0  0  0  0
  -17.2286   12.9934  -23.6012 C   0  0  0  0  0  0  0  0  0  0  0  0
  -16.7816   13.2814  -24.8631 C   0  0  0  0  0  0  0  0  0  0  0  0
  -17.1935   12.5386  -26.0113 N   0  0  0  0  0  0  0  0  0  0  0  0
  -15.9220   14.3253  -25.0287 N   0  0  0  0  0  0  0  0  0  0  0  0
  -15.5347   15.0477  -23.9510 C   0  0  0  0  0  0  0  0  0  0  0  0
  -15.9818   14.7477  -22.7419 N   0  0  0  0  0  0  0  0  0  0  0  0
  -16.5964   12.5330  -26.8617 H   0  0  0  0  0  0  0  0  0  0  0  0
  -18.0976   12.0081  -25.9677 H   0  0  0  0  0  0  0  0  0  0  0  0
  1  2  1  0  0  0
  2  3  2  0  0  0
  3  4  1  0  0  0
  4  5  2  0  0  0
  5  8  1  0  0  0
  8  9  1  0  0  0
  9 10  2  0  0  0
  9 12  1  0  0  0
 12 13  2  0  0  0
 13 14  1  0  0  0
 14 15  2  0  0  0
 15 16  1  0  0  0
 16 17  2  0  0  0
 16 18  1  0  0  0
 18 19  1  0  0  0
 18 20  1  0  0  0
 18 21  1  0  0  0
  5  6  1  0  0  0
  6  7  2  0  0  0
  7 22  1  0  0  0
 22 24  1  0  0  0
 24 25  2  0  0  0
 25 26  1  0  0  0
 26 27  2  0  0  0
 27 28  1  0  0  0
 28 29  2  0  0  0
 29 30  1  0  0  0
 30 31  2  0  0  0
 31 32  1  0  0  0
 32 33  1  0  0  0
 33 34  2  0  0  0
 34 35  1  0  0  0
 35 36  1  0  0  0
 35 37  2  0  0  0
 37 38  1  0  0  0
 38 39  2  0  0  0
  7  2  1  0  0  0
 32 24  1  0  0  0
 39 33  1  0  0  0
 17 12  1  0  0  0
 31 26  1  0  0  0
  8 11  1  0  0  0
 22 23  1  0  0  0
 36 40  1  0  0  0
 36 41  1  0  0  0
M  END
> <minimizedAffinity>
-8.48027

> <CNNscore>
0.0982600823

> <CNNaffinity>
6.4422926903

> <CNN_VS>
0.6330202222

> <CNNaffinity_variance>
0.1249889508

$$$$
[H]c1nc(N([H])[H])c([H])c(-n2c(N([H])c3c([H])c(N([H])C(=O)c4c([H])c([H])c([H])c(C(F)(F)F)c4[H])c([H])c([H])c3C([H])([H])[H])nc3c([H])c([H])c([H])c([H])c32)n1


 41 45  0  0  0  0  0  0  0  0999 V2000
  -16.4687   10.1232  -19.4965 C   0  0  0  0  0  0  0  0  0  0  0  0
  -17.6564   10.5164  -18.6584 C   0  0  0  0  0  0  0  0  0  0  0  0
  -18.2601    9.6295  -17.8292 C   0  0  0  0  0  0  0  0  0  0  0  0
  -19.3663    9.9806  -17.0895 C   0  0  0  0  0  0  0  0  0  0  0  0
  -19.9068   11.2543  -17.1611 C   0  0  0  0  0  0  0  0  0  0  0  0
  -19.3136   12.1626  -17.9970 C   0  0  0  0  0  0  0  0  0  0  0  0
  -18.1886   11.8357  -18.7605 C   0  0  0  0  0  0  0  0  0  0  0  0
  -21.0246   11.5304  -16.2674 N   0  0  0  0  0  0  0  0  0  0  0  0
  -20.7788   11.7139  -14.8952 C   0  0  0  0  0  0  0  0  0  0  0  0
  -19.5579   11.6891  -14.4797 O   0  0  0  0  0  0  0  0  0  0  0  0
  -21.9530   11.5889  -16.6847 H   0  0  0  0  0  0  0  0  0  0  0  0
  -21.7390   11.9319  -13.8484 C   0  0  0  0  0  0  0  0  0  0  0  0
  -23.0813   12.2229  -14.1899 C   0  0  0  0  0  0  0  0  0  0  0  0
  -24.0272   12.5150  -13.2454 C   0  0  0  0  0  0  0  0  0  0  0  0
  -23.6970   12.5363  -11.9178 C   0  0  0  0  0  0  0  0  0  0  0  0
  -22.4038   12.2602  -11.5242 C   0  0  0  0  0  0  0  0  0  0  0  0
  -21.4635   11.9660  -12.4895 C   0  0  0  0  0  0  0  0  0  0  0  0
  -22.1265   12.3185  -10.0651 C   0  0  0  0  0  0  0  0  0  0  0  0
  -23.2422   12.8815   -9.4293 F   0  0  0  0  0  0  0  0  0  0  0  0
  -21.0388   13.0613   -9.7229 F   0  0  0  0  0  0  0  0  0  0  0  0
  -21.8947   11.0294   -9.5771 F   0  0  0  0  0  0  0  0  0  0  0  0
  -17.4264   12.6748  -19.5537 N   0  0  0  0  0  0  0  0  0  0  0  0
  -16.6625   13.2376  -18.9834 H   0  0  0  0  0  0  0  0  0  0  0  0
  -17.5098   12.9483  -20.9231 C   0  0  0  0  0  0  0  0  0  0  0  0
  -17.2197   12.2866  -22.0465 N   0  0  0  0  0  0  0  0  0  0  0  0
  -17.3952   13.0550  -23.1561 C   0  0  0  0  0  0  0  0  0  0  0  0
  -17.2108   12.8919  -24.5054 C   0  0  0  0  0  0  0  0  0  0  0  0
  -17.4467   13.9210  -25.3885 C   0  0  0  0  0  0  0  0  0  0  0  0
  -17.8827   15.1536  -24.9361 C   0  0  0  0  0  0  0  0  0  0  0  0
  -18.0714   15.3204  -23.5797 C   0  0  0  0  0  0  0  0  0  0  0  0
  -17.8182   14.2566  -22.7146 C   0  0  0  0  0  0  0  0  0  0  0  0
  -17.8925   14.2034  -21.3922 N   0  0  0  0  0  0  0  0  0  0  0  0
  -18.3012   15.2801  -20.5680 C   0  0  0  0  0  0  0  0  0  0  0  0
  -17.5442   16.4291  -20.4993 C   0  0  0  0  0  0  0  0  0  0  0  0
  -17.9143   17.4885  -19.7147 C   0  0  0  0  0  0  0  0  0  0  0  0
  -17.1512   18.6936  -19.6428 N   0  0  0  0  0  0  0  0  0  0  0  0
  -19.0616   17.3920  -18.9864 N   0  0  0  0  0  0  0  0  0  0  0  0
  -19.8030   16.2611  -19.0565 C   0  0  0  0  0  0  0  0  0  0  0  0
  -19.4221   15.2516  -19.8230 N   0  0  0  0  0  0  0  0  0  0  0  0
  -17.2399   19.3097  -18.8107 H   0  0  0  0  0  0  0  0  0  0  0  0
  -16.5102   18.9297  -20.4390 H   0  0  0  0  0  0  0  0  0  0  0  0
  1  2  1  0  0  0
  2  3  2  0  0  0
  3  4  1  0  0  0
  4  5  2  0  0  0
  5  8  1  0  0  0
  8  9  1  0  0  0
  9 10  2  0  0  0
  9 12  1  0  0  0
 12 13  2  0  0  0
 13 14  1  0  0  0
 14 15  2  0  0  0
 15 16  1  0  0  0
 16 17  2  0  0  0
 16 18  1  0  0  0
 18 19  1  0  0  0
 18 20  1  0  0  0
 18 21  1  0  0  0
  5  6  1  0  0  0
  6  7  2  0  0  0
  7 22  1  0  0  0
 22 24  1  0  0  0
 24 25  2  0  0  0
 25 26  1  0  0  0
 26 27  2  0  0  0
 27 28  1  0  0  0
 28 29  2  0  0  0
 29 30  1  0  0  0
 30 31  2  0  0  0
 31 32  1  0  0  0
 32 33  1  0  0  0
 33 34  2  0  0  0
 34 35  1  0  0  0
 35 36  1  0  0  0
 35 37  2  0  0  0
 37 38  1  0  0  0
 38 39  2  0  0  0
  7  2  1  0  0  0
 32 24  1  0  0  0
 39 33  1  0  0  0
 17 12  1  0  0  0
 31 26  1  0  0  0
  8 11  1  0  0  0
 22 23  1  0  0  0
 36 40  1  0  0  0
 36 41  1  0  0  0
M  END
> <minimizedAffinity>
-9.31923

> <CNNscore>
0.0847520754

> <CNNaffinity>
6.4242582321

> <CNN_VS>
0.5444692373

> <CNNaffinity_variance>
0.1672568619

$$$$
[H]C([H])=C([H])C(=O)N1C([H])([H])C([H])([H])C([H])([H])[C@@]([H])(n2c([H])c(-c3c([H])c([H])c(Oc4c([H])c([H])c([H])c([H])c4[H])c([H])c3[H])c3c(N([H])[H])nc([H])nc32)C1([H])[H]


 35 39  0  0  0  0  0  0  0  0999 V2000
  -17.1073    9.8405  -18.3906 N   0  0  0  0  0  0  0  0  0  0  0  0
  -16.7128   10.4037  -19.6331 C   0  0  0  0  0  0  0  0  0  0  0  0
  -15.8016    9.8067  -20.4233 N   0  0  0  0  0  0  0  0  0  0  0  0
  -15.3812   10.3122  -21.5959 C   0  0  0  0  0  0  0  0  0  0  0  0
  -15.9054   11.4833  -21.9977 N   0  0  0  0  0  0  0  0  0  0  0  0
  -16.8151   12.1639  -21.2970 C   0  0  0  0  0  0  0  0  0  0  0  0
  -17.4571   13.3443  -21.5051 N   0  0  0  0  0  0  0  0  0  0  0  0
  -18.2583   13.5431  -20.4638 C   0  0  0  0  0  0  0  0  0  0  0  0
  -18.1446   12.4784  -19.5543 C   0  0  0  0  0  0  0  0  0  0  0  0
  -17.2400   11.6203  -20.0796 C   0  0  0  0  0  0  0  0  0  0  0  0
  -16.8738   10.2433  -17.4575 H   0  0  0  0  0  0  0  0  0  0  0  0
  -17.6706    8.9625  -18.3932 H   0  0  0  0  0  0  0  0  0  0  0  0
  -17.2859   14.1979  -22.6430 C   0  0  0  0  0  0  0  0  0  0  0  0
  -18.3274   15.3306  -22.5941 C   0  0  0  0  0  0  0  0  0  0  0  0
  -17.8050   16.4015  -23.4746 C   0  0  0  0  0  0  0  0  0  0  0  0
  -17.3434   15.9143  -24.8043 C   0  0  0  0  0  0  0  0  0  0  0  0
  -17.2584   14.5204  -25.0204 N   0  0  0  0  0  0  0  0  0  0  0  0
  -17.5069   13.5216  -23.9481 C   0  0  0  0  0  0  0  0  0  0  0  0
  -16.9323   13.9600  -26.2681 C   0  0  0  0  0  0  0  0  0  0  0  0
  -16.8846   12.6467  -26.3415 O   0  0  0  0  0  0  0  0  0  0  0  0
  -16.6298   14.5818  -27.5268 C   0  0  0  0  0  0  0  0  0  0  0  0
  -15.7207   15.4420  -27.8660 C   0  0  0  0  0  0  0  0  0  0  0  0
  -18.9076   12.3658  -18.3437 C   0  0  0  0  0  0  0  0  0  0  0  0
  -19.6298   11.2695  -17.9404 C   0  0  0  0  0  0  0  0  0  0  0  0
  -20.3190   11.2575  -16.7521 C   0  0  0  0  0  0  0  0  0  0  0  0
  -20.3172   12.3403  -15.9148 C   0  0  0  0  0  0  0  0  0  0  0  0
  -19.5996   13.4522  -16.2988 C   0  0  0  0  0  0  0  0  0  0  0  0
  -18.9105   13.4668  -17.4846 C   0  0  0  0  0  0  0  0  0  0  0  0
  -21.0082   12.3571  -14.7012 O   0  0  0  0  0  0  0  0  0  0  0  0
  -20.7772   11.3369  -13.7862 C   0  0  0  0  0  0  0  0  0  0  0  0
  -21.8827   10.5749  -13.4302 C   0  0  0  0  0  0  0  0  0  0  0  0
  -21.6813    9.5544  -12.5227 C   0  0  0  0  0  0  0  0  0  0  0  0
  -20.4499    9.2708  -11.9693 C   0  0  0  0  0  0  0  0  0  0  0  0
  -19.3683   10.0458  -12.3424 C   0  0  0  0  0  0  0  0  0  0  0  0
  -19.5390   11.0811  -13.2546 C   0  0  0  0  0  0  0  0  0  0  0  0
  1  2  1  0  0  0
  2  3  2  0  0  0
  3  4  1  0  0  0
  4  5  2  0  0  0
  5  6  1  0  0  0
  6  7  1  0  0  0
  7  8  1  0  0  0
  8  9  2  0  0  0
  9 23  1  0  0  0
 23 24  2  0  0  0
 24 25  1  0  0  0
 25 26  2  0  0  0
 26 29  1  0  0  0
 29 30  1  0  0  0
 30 31  2  0  0  0
 31 32  1  0  0  0
 32 33  2  0  0  0
 33 34  1  0  0  0
 34 35  2  0  0  0
 26 27  1  0  0  0
 27 28  2  0  0  0
  9 10  1  0  0  0
  7 13  1  0  0  0
 13 14  1  0  0  0
 14 15  1  0  0  0
 15 16  1  0  0  0
 16 17  1  0  0  0
 17 18  1  0  0  0
 17 19  1  0  0  0
 19 20  2  0  0  0
 19 21  1  0  0  0
 21 22  2  0  0  0
 10  2  1  0  0  0
 18 13  1  0  0  0
 10  6  2  0  0  0
 28 23  1  0  0  0
 35 30  1  0  0  0
  1 11  1  0  0  0
  1 12  1  0  0  0
M  END
> <minimizedAffinity>
-9.63592

> <CNNscore>
0.8336481452

> <CNNaffinity>
7.5427675247

> <CNN_VS>
6.2880139351

> <CNNaffinity_variance>
0.1225405559

$$$$
[H]C([H])=C([H])C(=O)N1C([H])([H])C([H])([H])C([H])([H])[C@@]([H])(n2c([H])c(-c3c([H])c([H])c(Oc4c([H])c([H])c([H])c([H])c4[H])c([H])c3[H])c3c(N([H])[H])nc([H])nc32)C1([H])[H]


 35 39  0  0  0  0  0  0  0  0999 V2000
  -17.1213    9.5655  -18.5456 N   0  0  0  0  0  0  0  0  0  0  0  0
  -16.9045   10.3947  -19.6780 C   0  0  0  0  0  0  0  0  0  0  0  0
  -16.0277   10.0603  -20.6425 N   0  0  0  0  0  0  0  0  0  0  0  0
  -15.7732   10.8227  -21.7203 C   0  0  0  0  0  0  0  0  0  0  0  0
  -16.4365   11.9863  -21.8359 N   0  0  0  0  0  0  0  0  0  0  0  0
  -17.3282   12.4196  -20.9419 C   0  0  0  0  0  0  0  0  0  0  0  0
  -18.0898   13.5427  -20.8571 N   0  0  0  0  0  0  0  0  0  0  0  0
  -18.7972   13.4523  -19.7358 C   0  0  0  0  0  0  0  0  0  0  0  0
  -18.4992   12.2516  -19.0701 C   0  0  0  0  0  0  0  0  0  0  0  0
  -17.5794   11.6111  -19.8278 C   0  0  0  0  0  0  0  0  0  0  0  0
  -16.8322    9.8049  -17.5728 H   0  0  0  0  0  0  0  0  0  0  0  0
  -17.6021    8.6493  -18.6785 H   0  0  0  0  0  0  0  0  0  0  0  0
  -18.1095   14.6115  -21.8111 C   0  0  0  0  0  0  0  0  0  0  0  0
  -16.7049   15.2337  -21.9114 C   0  0  0  0  0  0  0  0  0  0  0  0
  -16.6719   15.9569  -23.2039 C   0  0  0  0  0  0  0  0  0  0  0  0
  -17.8565   16.8300  -23.4343 C   0  0  0  0  0  0  0  0  0  0  0  0
  -18.9467   16.7386  -22.5399 N   0  0  0  0  0  0  0  0  0  0  0  0
  -19.0086   15.7368  -21.4437 C   0  0  0  0  0  0  0  0  0  0  0  0
  -20.0651   17.5880  -22.6105 C   0  0  0  0  0  0  0  0  0  0  0  0
  -21.0163   17.4024  -21.7198 O   0  0  0  0  0  0  0  0  0  0  0  0
  -20.3724   18.6634  -23.5114 C   0  0  0  0  0  0  0  0  0  0  0  0
  -19.9998   19.9053  -23.5288 C   0  0  0  0  0  0  0  0  0  0  0  0
  -19.1243   11.8288  -17.8490 C   0  0  0  0  0  0  0  0  0  0  0  0
  -19.4831   10.5434  -17.5255 C   0  0  0  0  0  0  0  0  0  0  0  0
  -20.0672   10.2396  -16.3197 C   0  0  0  0  0  0  0  0  0  0  0  0
  -20.3187   11.2069  -15.3845 C   0  0  0  0  0  0  0  0  0  0  0  0
  -19.9676   12.5045  -15.6873 C   0  0  0  0  0  0  0  0  0  0  0  0
  -19.3842   12.8105  -16.8903 C   0  0  0  0  0  0  0  0  0  0  0  0
  -20.9110   10.9281  -14.1508 O   0  0  0  0  0  0  0  0  0  0  0  0
  -20.4834    9.8127  -13.4408 C   0  0  0  0  0  0  0  0  0  0  0  0
  -21.3678    8.7424  -13.3957 C   0  0  0  0  0  0  0  0  0  0  0  0
  -20.9681    7.6210  -12.6969 C   0  0  0  0  0  0  0  0  0  0  0  0
  -19.7498    7.5274  -12.0564 C   0  0  0  0  0  0  0  0  0  0  0  0
  -18.8907    8.6080  -12.1185 C   0  0  0  0  0  0  0  0  0  0  0  0
  -19.2646    9.7519  -12.8148 C   0  0  0  0  0  0  0  0  0  0  0  0
  1  2  1  0  0  0
  2  3  2  0  0  0
  3  4  1  0  0  0
  4  5  2  0  0  0
  5  6  1  0  0  0
  6  7  1  0  0  0
  7  8  1  0  0  0
  8  9  2  0  0  0
  9 23  1  0  0  0
 23 24  2  0  0  0
 24 25  1  0  0  0
 25 26  2  0  0  0
 26 29  1  0  0  0
 29 30  1  0  0  0
 30 31  2  0  0  0
 31 32  1  0  0  0
 32 33  2  0  0  0
 33 34  1  0  0  0
 34 35  2  0  0  0
 26 27  1  0  0  0
 27 28  2  0  0  0
  9 10  1  0  0  0
  7 13  1  0  0  0
 13 14  1  0  0  0
 14 15  1  0  0  0
 15 16  1  0  0  0
 16 17  1  0  0  0
 17 18  1  0  0  0
 17 19  1  0  0  0
 19 20  2  0  0  0
 19 21  1  0  0  0
 21 22  2  0  0  0
 10  2  1  0  0  0
 18 13  1  0  0  0
 10  6  2  0  0  0
 28 23  1  0  0  0
 35 30  1  0  0  0
  1 11  1  0  0  0
  1 12  1  0  0  0
M  END
> <minimizedAffinity>
-8.33871

> <CNNscore>
0.8138022423

> <CNNaffinity>
7.3543448448

> <CNN_VS>
5.9849824905

> <CNNaffinity_variance>
0.0813714340

$$$$
[H]C([H])=C([H])C(=O)N1C([H])([H])C([H])([H])C([H])([H])[C@@]([H])(n2c([H])c(-c3c([H])c([H])c(Oc4c([H])c([H])c([H])c([H])c4[H])c([H])c3[H])c3c(N([H])[H])nc([H])nc32)C1([H])[H]


 35 39  0  0  0  0  0  0  0  0999 V2000
  -17.7902   10.4270  -18.3584 N   0  0  0  0  0  0  0  0  0  0  0  0
  -17.1483   10.7459  -19.5844 C   0  0  0  0  0  0  0  0  0  0  0  0
  -16.3379    9.8708  -20.2075 N   0  0  0  0  0  0  0  0  0  0  0  0
  -15.6921   10.1354  -21.3566 C   0  0  0  0  0  0  0  0  0  0  0  0
  -15.8704   11.3470  -21.9113 N   0  0  0  0  0  0  0  0  0  0  0  0
  -16.6501   12.2931  -21.3831 C   0  0  0  0  0  0  0  0  0  0  0  0
  -16.9589   13.5621  -21.7612 N   0  0  0  0  0  0  0  0  0  0  0  0
  -17.7859   14.0535  -20.8445 C   0  0  0  0  0  0  0  0  0  0  0  0
  -18.0277   13.0951  -19.8462 C   0  0  0  0  0  0  0  0  0  0  0  0
  -17.3140   11.9976  -20.1873 C   0  0  0  0  0  0  0  0  0  0  0  0
  -17.5587   10.8608  -17.4388 H   0  0  0  0  0  0  0  0  0  0  0  0
  -18.5486    9.7107  -18.3598 H   0  0  0  0  0  0  0  0  0  0  0  0
  -16.4715   14.2252  -22.9340 C   0  0  0  0  0  0  0  0  0  0  0  0
  -16.5745   15.7490  -22.7402 C   0  0  0  0  0  0  0  0  0  0  0  0
  -15.6431   16.3479  -23.7244 C   0  0  0  0  0  0  0  0  0  0  0  0
  -15.7837   15.7930  -25.0996 C   0  0  0  0  0  0  0  0  0  0  0  0
  -16.6070   14.6604  -25.2897 N   0  0  0  0  0  0  0  0  0  0  0  0
  -17.2533   13.9353  -24.1646 C   0  0  0  0  0  0  0  0  0  0  0  0
  -16.8852   14.1235  -26.5592 C   0  0  0  0  0  0  0  0  0  0  0  0
  -17.6666   13.0653  -26.6046 O   0  0  0  0  0  0  0  0  0  0  0  0
  -16.4568   14.5339  -27.8670 C   0  0  0  0  0  0  0  0  0  0  0  0
  -15.6724   15.4907  -28.2554 C   0  0  0  0  0  0  0  0  0  0  0  0
  -18.9112   13.2946  -18.7325 C   0  0  0  0  0  0  0  0  0  0  0  0
  -18.5676   13.2311  -17.4045 C   0  0  0  0  0  0  0  0  0  0  0  0
  -19.4894   13.4512  -16.4099 C   0  0  0  0  0  0  0  0  0  0  0  0
  -20.7949   13.7441  -16.6986 C   0  0  0  0  0  0  0  0  0  0  0  0
  -21.1631   13.8129  -18.0247 C   0  0  0  0  0  0  0  0  0  0  0  0
  -20.2448   13.5937  -19.0196 C   0  0  0  0  0  0  0  0  0  0  0  0
  -21.7538   13.9726  -15.7092 O   0  0  0  0  0  0  0  0  0  0  0  0
  -22.2922   15.2473  -15.5818 C   0  0  0  0  0  0  0  0  0  0  0  0
  -23.6667   15.3491  -15.7560 C   0  0  0  0  0  0  0  0  0  0  0  0
  -24.2280   16.6044  -15.6347 C   0  0  0  0  0  0  0  0  0  0  0  0
  -23.4899   17.7354  -15.3533 C   0  0  0  0  0  0  0  0  0  0  0  0
  -22.1247   17.6034  -15.1851 C   0  0  0  0  0  0  0  0  0  0  0  0
  -21.5296   16.3521  -15.3010 C   0  0  0  0  0  0  0  0  0  0  0  0
  1  2  1  0  0  0
  2  3  2  0  0  0
  3  4  1  0  0  0
  4  5  2  0  0  0
  5  6  1  0  0  0
  6  7  1  0  0  0
  7  8  1  0  0  0
  8  9  2  0  0  0
  9 23  1  0  0  0
 23 24  2  0  0  0
 24 25  1  0  0  0
 25 26  2  0  0  0
 26 29  1  0  0  0
 29 30  1  0  0  0
 30 31  2  0  0  0
 31 32  1  0  0  0
 32 33  2  0  0  0
 33 34  1  0  0  0
 34 35  2  0  0  0
 26 27  1  0  0  0
 27 28  2  0  0  0
  9 10  1  0  0  0
  7 13  1  0  0  0
 13 14  1  0  0  0
 14 15  1  0  0  0
 15 16  1  0  0  0
 16 17  1  0  0  0
 17 18  1  0  0  0
 17 19  1  0  0  0
 19 20  2  0  0  0
 19 21  1  0  0  0
 21 22  2  0  0  0
 10  2  1  0  0  0
 18 13  1  0  0  0
 10  6  2  0  0  0
 28 23  1  0  0  0
 35 30  1  0  0  0
  1 11  1  0  0  0
  1 12  1  0  0  0
M  END
> <minimizedAffinity>
-8.83586

> <CNNscore>
0.7319168448

> <CNNaffinity>
7.5476770401

> <CNN_VS>
5.5242719650

> <CNNaffinity_variance>
0.1433022916

$$$$
[H]C([H])=C([H])C(=O)N1C([H])([H])C([H])([H])C([H])([H])[C@@]([H])(n2c([H])c(-c3c([H])c([H])c(Oc4c([H])c([H])c([H])c([H])c4[H])c([H])c3[H])c3c(N([H])[H])nc([H])nc32)C1([H])[H]


 35 39  0  0  0  0  0  0  0  0999 V2000
  -16.4825    9.7672  -19.3634 N   0  0  0  0  0  0  0  0  0  0  0  0
  -16.4276   10.6836  -20.4470 C   0  0  0  0  0  0  0  0  0  0  0  0
  -15.5485   10.5356  -21.4550 N   0  0  0  0  0  0  0  0  0  0  0  0
  -15.4447   11.3881  -22.4894 C   0  0  0  0  0  0  0  0  0  0  0  0
  -16.2702   12.4490  -22.5127 N   0  0  0  0  0  0  0  0  0  0  0  0
  -17.1807   12.6966  -21.5685 C   0  0  0  0  0  0  0  0  0  0  0  0
  -18.0904   13.6916  -21.3916 N   0  0  0  0  0  0  0  0  0  0  0  0
  -18.7358   13.4351  -20.2587 C   0  0  0  0  0  0  0  0  0  0  0  0
  -18.2461   12.2530  -19.6786 C   0  0  0  0  0  0  0  0  0  0  0  0
  -17.2733   11.7968  -20.5008 C   0  0  0  0  0  0  0  0  0  0  0  0
  -16.1946    9.9886  -18.3860 H   0  0  0  0  0  0  0  0  0  0  0  0
  -16.8330    8.8007  -19.5401 H   0  0  0  0  0  0  0  0  0  0  0  0
  -18.2968   14.8002  -22.2754 C   0  0  0  0  0  0  0  0  0  0  0  0
  -16.9466   15.4796  -22.5678 C   0  0  0  0  0  0  0  0  0  0  0  0
  -17.1451   16.2604  -23.8112 C   0  0  0  0  0  0  0  0  0  0  0  0
  -18.3776   17.0967  -23.8051 C   0  0  0  0  0  0  0  0  0  0  0  0
  -19.3057   16.9239  -22.7536 N   0  0  0  0  0  0  0  0  0  0  0  0
  -19.1588   15.8727  -21.7132 C   0  0  0  0  0  0  0  0  0  0  0  0
  -20.4464   17.7320  -22.6019 C   0  0  0  0  0  0  0  0  0  0  0  0
  -21.2349   17.4706  -21.5810 O   0  0  0  0  0  0  0  0  0  0  0  0
  -20.9280   18.8338  -23.3871 C   0  0  0  0  0  0  0  0  0  0  0  0
  -21.9810   18.9648  -24.1325 C   0  0  0  0  0  0  0  0  0  0  0  0
  -18.7593   11.6743  -18.4694 C   0  0  0  0  0  0  0  0  0  0  0  0
  -18.7426   10.3416  -18.1385 C   0  0  0  0  0  0  0  0  0  0  0  0
  -19.2503    9.8886  -16.9451 C   0  0  0  0  0  0  0  0  0  0  0  0
  -19.7974   10.7471  -16.0302 C   0  0  0  0  0  0  0  0  0  0  0  0
  -19.8256   12.0893  -16.3407 C   0  0  0  0  0  0  0  0  0  0  0  0
  -19.3192   12.5443  -17.5313 C   0  0  0  0  0  0  0  0  0  0  0  0
  -20.3210   10.3157  -14.8094 O   0  0  0  0  0  0  0  0  0  0  0  0
  -21.0216    9.1163  -14.7690 C   0  0  0  0  0  0  0  0  0  0  0  0
  -20.3745    8.0523  -14.1535 C   0  0  0  0  0  0  0  0  0  0  0  0
  -21.0481    6.8486  -14.0994 C   0  0  0  0  0  0  0  0  0  0  0  0
  -22.3118    6.6686  -14.6226 C   0  0  0  0  0  0  0  0  0  0  0  0
  -22.9308    7.7451  -15.2289 C   0  0  0  0  0  0  0  0  0  0  0  0
  -22.2781    8.9708  -15.2992 C   0  0  0  0  0  0  0  0  0  0  0  0
  1  2  1  0  0  0
  2  3  2  0  0  0
  3  4  1  0  0  0
  4  5  2  0  0  0
  5  6  1  0  0  0
  6  7  1  0  0  0
  7  8  1  0  0  0
  8  9  2  0  0  0
  9 23  1  0  0  0
 23 24  2  0  0  0
 24 25  1  0  0  0
 25 26  2  0  0  0
 26 29  1  0  0  0
 29 30  1  0  0  0
 30 31  2  0  0  0
 31 32  1  0  0  0
 32 33  2  0  0  0
 33 34  1  0  0  0
 34 35  2  0  0  0
 26 27  1  0  0  0
 27 28  2  0  0  0
  9 10  1  0  0  0
  7 13  1  0  0  0
 13 14  1  0  0  0
 14 15  1  0  0  0
 15 16  1  0  0  0
 16 17  1  0  0  0
 17 18  1  0  0  0
 17 19  1  0  0  0
 19 20  2  0  0  0
 19 21  1  0  0  0
 21 22  2  0  0  0
 10  2  1  0  0  0
 18 13  1  0  0  0
 10  6  2  0  0  0
 28 23  1  0  0  0
 35 30  1  0  0  0
  1 11  1  0  0  0
  1 12  1  0  0  0
M  END
> <minimizedAffinity>
-8.69444

> <CNNscore>
0.6958540082

> <CNNaffinity>
7.2929062843

> <CNN_VS>
5.0747981071

> <CNNaffinity_variance>
0.1628061086

$$$$
[H]C([H])=C([H])C(=O)N1C([H])([H])C([H])([H])C([H])([H])[C@@]([H])(n2c([H])c(-c3c([H])c([H])c(Oc4c([H])c([H])c([H])c([H])c4[H])c([H])c3[H])c3c(N([H])[H])nc([H])nc32)C1([H])[H]


 35 39  0  0  0  0  0  0  0  0999 V2000
  -17.9611    9.2742  -17.4615 N   0  0  0  0  0  0  0  0  0  0  0  0
  -17.8249   10.1891  -18.5391 C   0  0  0  0  0  0  0  0  0  0  0  0
  -16.9839    9.9560  -19.5634 N   0  0  0  0  0  0  0  0  0  0  0  0
  -16.8052   10.8017  -20.5931 C   0  0  0  0  0  0  0  0  0  0  0  0
  -17.5111   11.9459  -20.5942 N   0  0  0  0  0  0  0  0  0  0  0  0
  -18.3736   12.2821  -19.6325 C   0  0  0  0  0  0  0  0  0  0  0  0
  -19.1668   13.3681  -19.4324 N   0  0  0  0  0  0  0  0  0  0  0  0
  -19.8175   13.1727  -18.2904 C   0  0  0  0  0  0  0  0  0  0  0  0
  -19.4494   11.9393  -17.7277 C   0  0  0  0  0  0  0  0  0  0  0  0
  -18.5456   11.3879  -18.5700 C   0  0  0  0  0  0  0  0  0  0  0  0
  -17.6347    9.4540  -16.4876 H   0  0  0  0  0  0  0  0  0  0  0  0
  -18.4172    8.3529  -17.6392 H   0  0  0  0  0  0  0  0  0  0  0  0
  -19.2662   14.5007  -20.3044 C   0  0  0  0  0  0  0  0  0  0  0  0
  -17.9846   15.3463  -20.1929 C   0  0  0  0  0  0  0  0  0  0  0  0
  -17.9382   16.1777  -21.4182 C   0  0  0  0  0  0  0  0  0  0  0  0
  -19.2224   16.8667  -21.7258 C   0  0  0  0  0  0  0  0  0  0  0  0
  -20.3697   16.5225  -20.9762 N   0  0  0  0  0  0  0  0  0  0  0  0
  -20.3766   15.4300  -19.9684 C   0  0  0  0  0  0  0  0  0  0  0  0
  -21.6020   17.1845  -21.1194 C   0  0  0  0  0  0  0  0  0  0  0  0
  -22.5967   16.7702  -20.3635 O   0  0  0  0  0  0  0  0  0  0  0  0
  -21.9900   18.2727  -21.9725 C   0  0  0  0  0  0  0  0  0  0  0  0
  -22.6944   18.3049  -23.0607 C   0  0  0  0  0  0  0  0  0  0  0  0
  -20.0023   11.4085  -16.5140 C   0  0  0  0  0  0  0  0  0  0  0  0
  -20.9163   10.3880  -16.4186 C   0  0  0  0  0  0  0  0  0  0  0  0
  -21.3758    9.9429  -15.2028 C   0  0  0  0  0  0  0  0  0  0  0  0
  -20.9426   10.4980  -14.0292 C   0  0  0  0  0  0  0  0  0  0  0  0
  -20.0255   11.5241  -14.1001 C   0  0  0  0  0  0  0  0  0  0  0  0
  -19.5651   11.9703  -15.3125 C   0  0  0  0  0  0  0  0  0  0  0  0
  -21.3917   10.0666  -12.7791 O   0  0  0  0  0  0  0  0  0  0  0  0
  -20.5337   10.1641  -11.6903 C   0  0  0  0  0  0  0  0  0  0  0  0
  -20.8781   11.1011  -10.7243 C   0  0  0  0  0  0  0  0  0  0  0  0
  -20.0428   11.2186   -9.6315 C   0  0  0  0  0  0  0  0  0  0  0  0
  -18.9045   10.4566   -9.4683 C   0  0  0  0  0  0  0  0  0  0  0  0
  -18.5873    9.5326  -10.4456 C   0  0  0  0  0  0  0  0  0  0  0  0
  -19.4089    9.3905  -11.5583 C   0  0  0  0  0  0  0  0  0  0  0  0
  1  2  1  0  0  0
  2  3  2  0  0  0
  3  4  1  0  0  0
  4  5  2  0  0  0
  5  6  1  0  0  0
  6  7  1  0  0  0
  7  8  1  0  0  0
  8  9  2  0  0  0
  9 23  1  0  0  0
 23 24  2  0  0  0
 24 25  1  0  0  0
 25 26  2  0  0  0
 26 29  1  0  0  0
 29 30  1  0  0  0
 30 31  2  0  0  0
 31 32  1  0  0  0
 32 33  2  0  0  0
 33 34  1  0  0  0
 34 35  2  0  0  0
 26 27  1  0  0  0
 27 28  2  0  0  0
  9 10  1  0  0  0
  7 13  1  0  0  0
 13 14  1  0  0  0
 14 15  1  0  0  0
 15 16  1  0  0  0
 16 17  1  0  0  0
 17 18  1  0  0  0
 17 19  1  0  0  0
 19 20  2  0  0  0
 19 21  1  0  0  0
 21 22  2  0  0  0
 10  2  1  0  0  0
 18 13  1  0  0  0
 10  6  2  0  0  0
 28 23  1  0  0  0
 35 30  1  0  0  0
  1 11  1  0  0  0
  1 12  1  0  0  0
M  END
> <minimizedAffinity>
-7.87061

> <CNNscore>
0.6360206604

> <CNNaffinity>
7.0550017357

> <CNN_VS>
4.4871268272

> <CNNaffinity_variance>
0.2052300423

$$$$
[H]C([H])=C([H])C(=O)N1C([H])([H])C([H])([H])C([H])([H])[C@@]([H])(n2c([H])c(-c3c([H])c([H])c(Oc4c([H])c([H])c([H])c([H])c4[H])c([H])c3[H])c3c(N([H])[H])nc([H])nc32)C1([H])[H]


 35 39  0  0  0  0  0  0  0  0999 V2000
  -17.1994    9.9865  -18.3369 N   0  0  0  0  0  0  0  0  0  0  0  0
  -16.7862   10.5206  -19.5862 C   0  0  0  0  0  0  0  0  0  0  0  0
  -15.8765    9.8964  -20.3567 N   0  0  0  0  0  0  0  0  0  0  0  0
  -15.4388   10.3738  -21.5348 C   0  0  0  0  0  0  0  0  0  0  0  0
  -15.9431   11.5441  -21.9632 N   0  0  0  0  0  0  0  0  0  0  0  0
  -16.8494   12.2503  -21.2836 C   0  0  0  0  0  0  0  0  0  0  0  0
  -17.4731   13.4352  -21.5197 N   0  0  0  0  0  0  0  0  0  0  0  0
  -18.2806   13.6646  -20.4896 C   0  0  0  0  0  0  0  0  0  0  0  0
  -18.1897   12.6159  -19.5593 C   0  0  0  0  0  0  0  0  0  0  0  0
  -17.2926   11.7357  -20.0602 C   0  0  0  0  0  0  0  0  0  0  0  0
  -16.9686   10.4035  -17.4095 H   0  0  0  0  0  0  0  0  0  0  0  0
  -17.7748    9.1163  -18.3282 H   0  0  0  0  0  0  0  0  0  0  0  0
  -17.2800   14.2647  -22.6718 C   0  0  0  0  0  0  0  0  0  0  0  0
  -18.2904   15.4259  -22.6413 C   0  0  0  0  0  0  0  0  0  0  0  0
  -17.7401   16.4674  -23.5398 C   0  0  0  0  0  0  0  0  0  0  0  0
  -17.2933   15.9457  -24.8615 C   0  0  0  0  0  0  0  0  0  0  0  0
  -17.2463   14.5466  -25.0543 N   0  0  0  0  0  0  0  0  0  0  0  0
  -17.5207   13.5730  -23.9653 C   0  0  0  0  0  0  0  0  0  0  0  0
  -16.9369   13.9568  -26.2927 C   0  0  0  0  0  0  0  0  0  0  0  0
  -16.9249   12.6417  -26.3442 O   0  0  0  0  0  0  0  0  0  0  0  0
  -16.6190   14.5491  -27.5618 C   0  0  0  0  0  0  0  0  0  0  0  0
  -15.6598   15.3419  -27.9261 C   0  0  0  0  0  0  0  0  0  0  0  0
  -18.9648   12.5366  -18.3538 C   0  0  0  0  0  0  0  0  0  0  0  0
  -19.9927   11.6597  -18.1079 C   0  0  0  0  0  0  0  0  0  0  0  0
  -20.6666   11.6562  -16.9107 C   0  0  0  0  0  0  0  0  0  0  0  0
  -20.3432   12.5287  -15.9069 C   0  0  0  0  0  0  0  0  0  0  0  0
  -19.3152   13.4184  -16.1311 C   0  0  0  0  0  0  0  0  0  0  0  0
  -18.6407   13.4240  -17.3253 C   0  0  0  0  0  0  0  0  0  0  0  0
  -21.0102   12.5484  -14.6800 O   0  0  0  0  0  0  0  0  0  0  0  0
  -22.2316   13.2057  -14.5936 C   0  0  0  0  0  0  0  0  0  0  0  0
  -23.2843   12.4695  -14.0649 C   0  0  0  0  0  0  0  0  0  0  0  0
  -24.5093   13.0984  -13.9675 C   0  0  0  0  0  0  0  0  0  0  0  0
  -24.7206   14.4018  -14.3673 C   0  0  0  0  0  0  0  0  0  0  0  0
  -23.6546   15.1093  -14.8895 C   0  0  0  0  0  0  0  0  0  0  0  0
  -22.4080   14.5035  -15.0004 C   0  0  0  0  0  0  0  0  0  0  0  0
  1  2  1  0  0  0
  2  3  2  0  0  0
  3  4  1  0  0  0
  4  5  2  0  0  0
  5  6  1  0  0  0
  6  7  1  0  0  0
  7  8  1  0  0  0
  8  9  2  0  0  0
  9 23  1  0  0  0
 23 24  2  0  0  0
 24 25  1  0  0  0
 25 26  2  0  0  0
 26 29  1  0  0  0
 29 30  1  0  0  0
 30 31  2  0  0  0
 31 32  1  0  0  0
 32 33  2  0  0  0
 33 34  1  0  0  0
 34 35  2  0  0  0
 26 27  1  0  0  0
 27 28  2  0  0  0
  9 10  1  0  0  0
  7 13  1  0  0  0
 13 14  1  0  0  0
 14 15  1  0  0  0
 15 16  1  0  0  0
 16 17  1  0  0  0
 17 18  1  0  0  0
 17 19  1  0  0  0
 19 20  2  0  0  0
 19 21  1  0  0  0
 21 22  2  0  0  0
 10  2  1  0  0  0
 18 13  1  0  0  0
 10  6  2  0  0  0
 28 23  1  0  0  0
 35 30  1  0  0  0
  1 11  1  0  0  0
  1 12  1  0  0  0
M  END
> <minimizedAffinity>
-8.75195

> <CNNscore>
0.6177365184

> <CNNaffinity>
7.2717080116

> <CNN_VS>
4.4919996262

> <CNNaffinity_variance>
0.1476556957

$$$$
[H]C([H])=C([H])C(=O)N1C([H])([H])C([H])([H])C([H])([H])[C@@]([H])(n2c([H])c(-c3c([H])c([H])c(Oc4c([H])c([H])c([H])c([H])c4[H])c([H])c3[H])c3c(N([H])[H])nc([H])nc32)C1([H])[H]


 35 39  0  0  0  0  0  0  0  0999 V2000
  -18.3968    9.1444  -17.2946 N   0  0  0  0  0  0  0  0  0  0  0  0
  -17.9944   10.0924  -18.2725 C   0  0  0  0  0  0  0  0  0  0  0  0
  -17.1617    9.7629  -19.2770 N   0  0  0  0  0  0  0  0  0  0  0  0
  -16.7363   10.6300  -20.2121 C   0  0  0  0  0  0  0  0  0  0  0  0
  -17.1716   11.8997  -20.1341 N   0  0  0  0  0  0  0  0  0  0  0  0
  -17.9985   12.3392  -19.1828 C   0  0  0  0  0  0  0  0  0  0  0  0
  -18.5446   13.5551  -18.9141 N   0  0  0  0  0  0  0  0  0  0  0  0
  -19.2936   13.4160  -17.8254 C   0  0  0  0  0  0  0  0  0  0  0  0
  -19.2425   12.0886  -17.3682 C   0  0  0  0  0  0  0  0  0  0  0  0
  -18.4303   11.4207  -18.2195 C   0  0  0  0  0  0  0  0  0  0  0  0
  -18.1015    9.1640  -16.2947 H   0  0  0  0  0  0  0  0  0  0  0  0
  -19.0321    8.3676  -17.5794 H   0  0  0  0  0  0  0  0  0  0  0  0
  -18.3368   14.7500  -19.6769 C   0  0  0  0  0  0  0  0  0  0  0  0
  -19.2540   15.8646  -19.1416 C   0  0  0  0  0  0  0  0  0  0  0  0
  -18.6638   17.1388  -19.6140 C   0  0  0  0  0  0  0  0  0  0  0  0
  -18.3127   17.1380  -21.0616 C   0  0  0  0  0  0  0  0  0  0  0  0
  -18.3801   15.9184  -21.7721 N   0  0  0  0  0  0  0  0  0  0  0  0
  -18.6824   14.6191  -21.1166 C   0  0  0  0  0  0  0  0  0  0  0  0
  -18.1676   15.8305  -23.1593 C   0  0  0  0  0  0  0  0  0  0  0  0
  -18.2576   14.6362  -23.7052 O   0  0  0  0  0  0  0  0  0  0  0  0
  -17.8584   16.8444  -24.1283 C   0  0  0  0  0  0  0  0  0  0  0  0
  -16.7933   17.0645  -24.8344 C   0  0  0  0  0  0  0  0  0  0  0  0
  -19.9747   11.5959  -16.2361 C   0  0  0  0  0  0  0  0  0  0  0  0
  -21.2400   11.0626  -16.2595 C   0  0  0  0  0  0  0  0  0  0  0  0
  -21.8510   10.6054  -15.1172 C   0  0  0  0  0  0  0  0  0  0  0  0
  -21.2248   10.6613  -13.9013 C   0  0  0  0  0  0  0  0  0  0  0  0
  -19.9545   11.1930  -13.8532 C   0  0  0  0  0  0  0  0  0  0  0  0
  -19.3421   11.6500  -14.9922 C   0  0  0  0  0  0  0  0  0  0  0  0
  -21.8208   10.2045  -12.7237 O   0  0  0  0  0  0  0  0  0  0  0  0
  -21.5645   10.8827  -11.5382 C   0  0  0  0  0  0  0  0  0  0  0  0
  -22.2305   12.0901  -11.3699 C   0  0  0  0  0  0  0  0  0  0  0  0
  -21.9942   12.7848  -10.2007 C   0  0  0  0  0  0  0  0  0  0  0  0
  -21.1400   12.3334   -9.2160 C   0  0  0  0  0  0  0  0  0  0  0  0
  -20.4914   11.1289   -9.4111 C   0  0  0  0  0  0  0  0  0  0  0  0
  -20.7086   10.4056  -10.5786 C   0  0  0  0  0  0  0  0  0  0  0  0
  1  2  1  0  0  0
  2  3  2  0  0  0
  3  4  1  0  0  0
  4  5  2  0  0  0
  5  6  1  0  0  0
  6  7  1  0  0  0
  7  8  1  0  0  0
  8  9  2  0  0  0
  9 23  1  0  0  0
 23 24  2  0  0  0
 24 25  1  0  0  0
 25 26  2  0  0  0
 26 29  1  0  0  0
 29 30  1  0  0  0
 30 31  2  0  0  0
 31 32  1  0  0  0
 32 33  2  0  0  0
 33 34  1  0  0  0
 34 35  2  0  0  0
 26 27  1  0  0  0
 27 28  2  0  0  0
  9 10  1  0  0  0
  7 13  1  0  0  0
 13 14  1  0  0  0
 14 15  1  0  0  0
 15 16  1  0  0  0
 16 17  1  0  0  0
 17 18  1  0  0  0
 17 19  1  0  0  0
 19 20  2  0  0  0
 19 21  1  0  0  0
 21 22  2  0  0  0
 10  2  1  0  0  0
 18 13  1  0  0  0
 10  6  2  0  0  0
 28 23  1  0  0  0
 35 30  1  0  0  0
  1 11  1  0  0  0
  1 12  1  0  0  0
M  END
> <minimizedAffinity>
-7.73497

> <CNNscore>
0.5000730157

> <CNNaffinity>
6.9304628372

> <CNN_VS>
3.4657373428

> <CNNaffinity_variance>
0.2414407432

$$$$
[H]C([H])=C([H])C(=O)N1C([H])([H])C([H])([H])C([H])([H])[C@@]([H])(n2c([H])c(-c3c([H])c([H])c(Oc4c([H])c([H])c([H])c([H])c4[H])c([H])c3[H])c3c(N([H])[H])nc([H])nc32)C1([H])[H]


 35 39  0  0  0  0  0  0  0  0999 V2000
  -17.2427   13.4574  -22.1700 N   0  0  0  0  0  0  0  0  0  0  0  0
  -17.2058   12.3889  -21.2352 C   0  0  0  0  0  0  0  0  0  0  0  0
  -16.5495   11.2433  -21.4954 N   0  0  0  0  0  0  0  0  0  0  0  0
  -16.5050   10.1975  -20.6518 C   0  0  0  0  0  0  0  0  0  0  0  0
  -17.1563   10.3084  -19.4809 N   0  0  0  0  0  0  0  0  0  0  0  0
  -17.8392   11.3958  -19.1163 C   0  0  0  0  0  0  0  0  0  0  0  0
  -18.5632   11.7119  -18.0096 N   0  0  0  0  0  0  0  0  0  0  0  0
  -19.0369   12.9403  -18.1893 C   0  0  0  0  0  0  0  0  0  0  0  0
  -18.6195   13.4439  -19.4326 C   0  0  0  0  0  0  0  0  0  0  0  0
  -17.8726   12.4736  -20.0081 C   0  0  0  0  0  0  0  0  0  0  0  0
  -18.0935   13.7566  -22.6934 H   0  0  0  0  0  0  0  0  0  0  0  0
  -16.3662   13.9909  -22.3581 H   0  0  0  0  0  0  0  0  0  0  0  0
  -18.7642   10.8625  -16.8734 C   0  0  0  0  0  0  0  0  0  0  0  0
  -19.0547    9.4283  -17.3518 C   0  0  0  0  0  0  0  0  0  0  0  0
  -18.7705    8.5482  -16.1944 C   0  0  0  0  0  0  0  0  0  0  0  0
  -19.3863    9.0133  -14.9205 C   0  0  0  0  0  0  0  0  0  0  0  0
  -19.9841   10.2933  -14.8873 N   0  0  0  0  0  0  0  0  0  0  0  0
  -19.9324   11.2373  -16.0342 C   0  0  0  0  0  0  0  0  0  0  0  0
  -20.6791   10.7823  -13.7670 C   0  0  0  0  0  0  0  0  0  0  0  0
  -21.1911   11.9913  -13.8597 O   0  0  0  0  0  0  0  0  0  0  0  0
  -20.9435   10.1812  -12.4898 C   0  0  0  0  0  0  0  0  0  0  0  0
  -21.3975   10.6784  -11.3815 C   0  0  0  0  0  0  0  0  0  0  0  0
  -18.9250   14.7613  -19.9139 C   0  0  0  0  0  0  0  0  0  0  0  0
  -18.0293   15.7872  -20.0903 C   0  0  0  0  0  0  0  0  0  0  0  0
  -18.4222   17.0127  -20.5709 C   0  0  0  0  0  0  0  0  0  0  0  0
  -19.7272   17.2671  -20.8959 C   0  0  0  0  0  0  0  0  0  0  0  0
  -20.6442   16.2526  -20.7268 C   0  0  0  0  0  0  0  0  0  0  0  0
  -20.2546   15.0281  -20.2473 C   0  0  0  0  0  0  0  0  0  0  0  0
  -20.1558   18.5026  -21.3864 O   0  0  0  0  0  0  0  0  0  0  0  0
  -21.2660   18.5417  -22.2213 C   0  0  0  0  0  0  0  0  0  0  0  0
  -22.4286   19.0615  -21.6663 C   0  0  0  0  0  0  0  0  0  0  0  0
  -23.5468   19.1121  -22.4741 C   0  0  0  0  0  0  0  0  0  0  0  0
  -23.5511   18.6750  -23.7826 C   0  0  0  0  0  0  0  0  0  0  0  0
  -22.3799   18.1628  -24.3075 C   0  0  0  0  0  0  0  0  0  0  0  0
  -21.2365   18.0986  -23.5189 C   0  0  0  0  0  0  0  0  0  0  0  0
  1  2  1  0  0  0
  2  3  2  0  0  0
  3  4  1  0  0  0
  4  5  2  0  0  0
  5  6  1  0  0  0
  6  7  1  0  0  0
  7  8  1  0  0  0
  8  9  2  0  0  0
  9 23  1  0  0  0
 23 24  2  0  0  0
 24 25  1  0  0  0
 25 26  2  0  0  0
 26 29  1  0  0  0
 29 30  1  0  0  0
 30 31  2  0  0  0
 31 32  1  0  0  0
 32 33  2  0  0  0
 33 34  1  0  0  0
 34 35  2  0  0  0
 26 27  1  0  0  0
 27 28  2  0  0  0
  9 10  1  0  0  0
  7 13  1  0  0  0
 13 14  1  0  0  0
 14 15  1  0  0  0
 15 16  1  0  0  0
 16 17  1  0  0  0
 17 18  1  0  0  0
 17 19  1  0  0  0
 19 20  2  0  0  0
 19 21  1  0  0  0
 21 22  2  0  0  0
 10  2  1  0  0  0
 18 13  1  0  0  0
 10  6  2  0  0  0
 28 23  1  0  0  0
 35 30  1  0  0  0
  1 11  1  0  0  0
  1 12  1  0  0  0
M  END
> <minimizedAffinity>
-8.10005

> <CNNscore>
0.4804465175

> <CNNaffinity>
7.0287599564

> <CNN_VS>
3.3769433498

> <CNNaffinity_variance>
0.3012137413

$$$$
[H]C([H])=C([H])C(=O)N1C([H])([H])C([H])([H])C([H])([H])[C@@]([H])(n2c([H])c(-c3c([H])c([H])c(Oc4c([H])c([H])c([H])c([H])c4[H])c([H])c3[H])c3c(N([H])[H])nc([H])nc32)C1([H])[H]


 35 39  0  0  0  0  0  0  0  0999 V2000
  -17.9585   13.3279  -21.2915 N   0  0  0  0  0  0  0  0  0  0  0  0
  -17.7652   12.1904  -20.4635 C   0  0  0  0  0  0  0  0  0  0  0  0
  -16.9276   11.1962  -20.8112 N   0  0  0  0  0  0  0  0  0  0  0  0
  -16.7288   10.0913  -20.0715 C   0  0  0  0  0  0  0  0  0  0  0  0
  -17.4096    9.9785  -18.9176 N   0  0  0  0  0  0  0  0  0  0  0  0
  -18.2659   10.9008  -18.4727 C   0  0  0  0  0  0  0  0  0  0  0  0
  -19.0506   10.9844  -17.3654 N   0  0  0  0  0  0  0  0  0  0  0  0
  -19.7138   12.1333  -17.4413 C   0  0  0  0  0  0  0  0  0  0  0  0
  -19.3620   12.8195  -18.6156 C   0  0  0  0  0  0  0  0  0  0  0  0
  -18.4580   12.0437  -19.2569 C   0  0  0  0  0  0  0  0  0  0  0  0
  -18.8373   13.5388  -21.8117 H   0  0  0  0  0  0  0  0  0  0  0  0
  -17.1768   14.0105  -21.3980 H   0  0  0  0  0  0  0  0  0  0  0  0
  -19.1309   10.0038  -16.3238 C   0  0  0  0  0  0  0  0  0  0  0  0
  -20.2444    8.9941  -16.6566 C   0  0  0  0  0  0  0  0  0  0  0  0
  -19.9576    7.7897  -15.8428 C   0  0  0  0  0  0  0  0  0  0  0  0
  -19.6683    8.0863  -14.4121 C   0  0  0  0  0  0  0  0  0  0  0  0
  -19.5000    9.4341  -14.0226 N   0  0  0  0  0  0  0  0  0  0  0  0
  -19.4936   10.5593  -14.9937 C   0  0  0  0  0  0  0  0  0  0  0  0
  -19.3252    9.8254  -12.6833 C   0  0  0  0  0  0  0  0  0  0  0  0
  -19.1784   11.1122  -12.4488 O   0  0  0  0  0  0  0  0  0  0  0  0
  -19.2755    9.0483  -11.4766 C   0  0  0  0  0  0  0  0  0  0  0  0
  -18.3987    8.2023  -11.0326 C   0  0  0  0  0  0  0  0  0  0  0  0
  -19.8685   14.1130  -18.9773 C   0  0  0  0  0  0  0  0  0  0  0  0
  -19.2740   15.3207  -18.7055 C   0  0  0  0  0  0  0  0  0  0  0  0
  -19.8362   16.5079  -19.1080 C   0  0  0  0  0  0  0  0  0  0  0  0
  -21.0170   16.5404  -19.7995 C   0  0  0  0  0  0  0  0  0  0  0  0
  -21.6322   15.3406  -20.0834 C   0  0  0  0  0  0  0  0  0  0  0  0
  -21.0731   14.1540  -19.6828 C   0  0  0  0  0  0  0  0  0  0  0  0
  -21.6120   17.7315  -20.2214 O   0  0  0  0  0  0  0  0  0  0  0  0
  -21.9915   17.8542  -21.5526 C   0  0  0  0  0  0  0  0  0  0  0  0
  -20.9602   18.0233  -22.4677 C   0  0  0  0  0  0  0  0  0  0  0  0
  -21.3091   18.1478  -23.7975 C   0  0  0  0  0  0  0  0  0  0  0  0
  -22.6153   18.1112  -24.2400 C   0  0  0  0  0  0  0  0  0  0  0  0
  -23.6201   17.9417  -23.3066 C   0  0  0  0  0  0  0  0  0  0  0  0
  -23.3006   17.8134  -21.9594 C   0  0  0  0  0  0  0  0  0  0  0  0
  1  2  1  0  0  0
  2  3  2  0  0  0
  3  4  1  0  0  0
  4  5  2  0  0  0
  5  6  1  0  0  0
  6  7  1  0  0  0
  7  8  1  0  0  0
  8  9  2  0  0  0
  9 23  1  0  0  0
 23 24  2  0  0  0
 24 25  1  0  0  0
 25 26  2  0  0  0
 26 29  1  0  0  0
 29 30  1  0  0  0
 30 31  2  0  0  0
 31 32  1  0  0  0
 32 33  2  0  0  0
 33 34  1  0  0  0
 34 35  2  0  0  0
 26 27  1  0  0  0
 27 28  2  0  0  0
  9 10  1  0  0  0
  7 13  1  0  0  0
 13 14  1  0  0  0
 14 15  1  0  0  0
 15 16  1  0  0  0
 16 17  1  0  0  0
 17 18  1  0  0  0
 17 19  1  0  0  0
 19 20  2  0  0  0
 19 21  1  0  0  0
 21 22  2  0  0  0
 10  2  1  0  0  0
 18 13  1  0  0  0
 10  6  2  0  0  0
 28 23  1  0  0  0
 35 30  1  0  0  0
  1 11  1  0  0  0
  1 12  1  0  0  0
M  END
> <minimizedAffinity>
-7.82130

> <CNNscore>
0.4736359417

> <CNNaffinity>
6.9370641708

> <CNN_VS>
3.2856428623

> <CNNaffinity_variance>
0.2331840098

$$$$
[H]C([H])=C([H])C(=O)N([H])c1c([H])c([H])c([H])c(N([H])c2nc([H])c(N([H])C(=O)c3c([H])c(N([H])C(=O)c4c([H])c([H])c([H])c(C(F)(F)F)c4[H])c([H])c([H])c3C([H])([H])[H])c([H])n2)c1[H]


 45 48  0  0  0  0  0  0  0  0999 V2000
  -17.4037   13.5609  -22.2490 C   0  0  0  0  0  0  0  0  0  0  0  0
  -17.4809   12.4836  -22.8875 O   0  0  0  0  0  0  0  0  0  0  0  0
  -17.3195   13.5079  -20.8398 N   0  0  0  0  0  0  0  0  0  0  0  0
  -17.0802   14.4479  -20.3724 H   0  0  0  0  0  0  0  0  0  0  0  0
  -14.9678   14.6230  -23.4292 C   0  0  0  0  0  0  0  0  0  0  0  0
  -16.2675   15.3098  -23.5514 C   0  0  0  0  0  0  0  0  0  0  0  0
  -16.2298   16.5309  -24.2481 C   0  0  0  0  0  0  0  0  0  0  0  0
  -17.3479   17.3054  -24.2833 C   0  0  0  0  0  0  0  0  0  0  0  0
  -18.5328   16.9020  -23.6355 C   0  0  0  0  0  0  0  0  0  0  0  0
  -18.5581   15.6879  -22.9569 C   0  0  0  0  0  0  0  0  0  0  0  0
  -17.4122   14.8887  -22.9188 C   0  0  0  0  0  0  0  0  0  0  0  0
  -19.5897   17.8031  -23.6460 N   0  0  0  0  0  0  0  0  0  0  0  0
  -20.6573   18.0444  -22.7752 C   0  0  0  0  0  0  0  0  0  0  0  0
  -20.8756   17.4169  -21.7459 O   0  0  0  0  0  0  0  0  0  0  0  0
  -19.5850   18.4833  -24.5044 H   0  0  0  0  0  0  0  0  0  0  0  0
  -21.5735   19.1502  -23.1612 C   0  0  0  0  0  0  0  0  0  0  0  0
  -22.8050   19.3241  -22.6449 C   0  0  0  0  0  0  0  0  0  0  0  0
  -23.6078   20.3616  -23.1021 C   0  0  0  0  0  0  0  0  0  0  0  0
  -23.1339   21.2220  -24.0898 C   0  0  0  0  0  0  0  0  0  0  0  0
  -21.8776   21.0555  -24.6236 C   0  0  0  0  0  0  0  0  0  0  0  0
  -21.1141   20.0255  -24.1552 C   0  0  0  0  0  0  0  0  0  0  0  0
  -21.3928   21.9890  -25.6772 C   0  0  0  0  0  0  0  0  0  0  0  0
  -21.7127   23.2775  -25.2977 F   0  0  0  0  0  0  0  0  0  0  0  0
  -20.0498   21.8418  -25.8933 F   0  0  0  0  0  0  0  0  0  0  0  0
  -22.0554   21.6902  -26.8666 F   0  0  0  0  0  0  0  0  0  0  0  0
  -17.3993   12.4203  -19.9647 C   0  0  0  0  0  0  0  0  0  0  0  0
  -16.5572   11.3320  -19.9381 C   0  0  0  0  0  0  0  0  0  0  0  0
  -16.8841   10.3066  -19.1022 N   0  0  0  0  0  0  0  0  0  0  0  0
  -17.9368   10.2927  -18.3317 C   0  0  0  0  0  0  0  0  0  0  0  0
  -18.7677   11.3690  -18.3509 N   0  0  0  0  0  0  0  0  0  0  0  0
  -18.5373   12.4187  -19.1315 C   0  0  0  0  0  0  0  0  0  0  0  0
  -18.3077    9.2097  -17.5196 N   0  0  0  0  0  0  0  0  0  0  0  0
  -17.8315    8.2935  -17.5196 H   0  0  0  0  0  0  0  0  0  0  0  0
  -19.4295    9.3386  -16.6093 C   0  0  0  0  0  0  0  0  0  0  0  0
  -20.2580   10.4078  -16.5150 C   0  0  0  0  0  0  0  0  0  0  0  0
  -21.3698   10.4159  -15.6932 C   0  0  0  0  0  0  0  0  0  0  0  0
  -21.6502    9.2877  -14.9362 C   0  0  0  0  0  0  0  0  0  0  0  0
  -20.8184    8.1803  -15.0145 C   0  0  0  0  0  0  0  0  0  0  0  0
  -19.7152    8.2193  -15.8470 C   0  0  0  0  0  0  0  0  0  0  0  0
  -21.1748    7.0488  -14.2255 N   0  0  0  0  0  0  0  0  0  0  0  0
  -22.1382    6.1584  -14.7322 C   0  0  0  0  0  0  0  0  0  0  0  0
  -22.6648    6.3745  -15.8475 O   0  0  0  0  0  0  0  0  0  0  0  0
  -20.7471    6.8651  -13.3031 H   0  0  0  0  0  0  0  0  0  0  0  0
  -22.5251    4.9795  -13.9553 C   0  0  0  0  0  0  0  0  0  0  0  0
  -22.6744    3.8049  -14.5801 C   0  0  0  0  0  0  0  0  0  0  0  0
  5  6  1  0  0  0
  6  7  2  0  0  0
  7  8  1  0  0  0
  8  9  2  0  0  0
  9 12  1  0  0  0
 12 13  1  0  0  0
 13 14  2  0  0  0
 13 16  1  0  0  0
 16 17  2  0  0  0
 17 18  1  0  0  0
 18 19  2  0  0  0
 19 20  1  0  0  0
 20 21  2  0  0  0
 20 22  1  0  0  0
 22 23  1  0  0  0
 22 24  1  0  0  0
 22 25  1  0  0  0
  9 10  1  0  0  0
 10 11  2  0  0  0
 11  1  1  0  0  0
  1  2  2  0  0  0
  1  3  1  0  0  0
  3 26  1  0  0  0
 26 27  2  0  0  0
 27 28  1  0  0  0
 28 29  2  0  0  0
 29 32  1  0  0  0
 32 34  1  0  0  0
 34 35  2  0  0  0
 35 36  1  0  0  0
 36 37  2  0  0  0
 37 38  1  0  0  0
 38 40  1  0  0  0
 40 41  1  0  0  0
 41 42  2  0  0  0
 41 44  1  0  0  0
 44 45  2  0  0  0
 38 39  2  0  0  0
 29 30  1  0  0  0
 30 31  2  0  0  0
 11  6  1  0  0  0
 31 26  1  0  0  0
 21 16  1  0  0  0
 39 34  1  0  0  0
 12 15  1  0  0  0
  3  4  1  0  0  0
 32 33  1  0  0  0
 40 43  1  0  0  0
M  END
> <minimizedAffinity>
-8.96787

> <CNNscore>
0.3890044689

> <CNNaffinity>
6.8478941917

> <CNN_VS>
2.6638615131

> <CNNaffinity_variance>
0.1020603552

$$$$
[H]C([H])=C([H])C(=O)N([H])c1c([H])c([H])c([H])c(N([H])c2nc([H])c(N([H])C(=O)c3c([H])c(N([H])C(=O)c4c([H])c([H])c([H])c(C(F)(F)F)c4[H])c([H])c([H])c3C([H])([H])[H])c([H])n2)c1[H]


 45 48  0  0  0  0  0  0  0  0999 V2000
  -17.4910   13.2969  -21.9839 C   0  0  0  0  0  0  0  0  0  0  0  0
  -17.4607   12.1687  -22.5321 O   0  0  0  0  0  0  0  0  0  0  0  0
  -17.6331   13.3637  -20.5799 N   0  0  0  0  0  0  0  0  0  0  0  0
  -17.4754   14.3436  -20.1625 H   0  0  0  0  0  0  0  0  0  0  0  0
  -15.0160   14.0119  -23.3321 C   0  0  0  0  0  0  0  0  0  0  0  0
  -16.2456   14.8162  -23.4626 C   0  0  0  0  0  0  0  0  0  0  0  0
  -16.1179   15.9703  -24.2562 C   0  0  0  0  0  0  0  0  0  0  0  0
  -17.1545   16.8498  -24.3135 C   0  0  0  0  0  0  0  0  0  0  0  0
  -18.3440   16.6199  -23.5934 C   0  0  0  0  0  0  0  0  0  0  0  0
  -18.4594   15.4701  -22.8188 C   0  0  0  0  0  0  0  0  0  0  0  0
  -17.3975   14.5635  -22.7576 C   0  0  0  0  0  0  0  0  0  0  0  0
  -19.3062   17.6205  -23.6385 N   0  0  0  0  0  0  0  0  0  0  0  0
  -19.4016   18.8907  -23.0606 C   0  0  0  0  0  0  0  0  0  0  0  0
  -18.5634   19.3850  -22.3164 O   0  0  0  0  0  0  0  0  0  0  0  0
  -20.1675   17.3803  -24.2710 H   0  0  0  0  0  0  0  0  0  0  0  0
  -20.6246   19.6671  -23.3964 C   0  0  0  0  0  0  0  0  0  0  0  0
  -20.9026   20.8878  -22.9005 C   0  0  0  0  0  0  0  0  0  0  0  0
  -22.0946   21.5172  -23.2364 C   0  0  0  0  0  0  0  0  0  0  0  0
  -22.9962   20.8853  -24.0899 C   0  0  0  0  0  0  0  0  0  0  0  0
  -22.7227   19.6395  -24.6039 C   0  0  0  0  0  0  0  0  0  0  0  0
  -21.5444   19.0465  -24.2531 C   0  0  0  0  0  0  0  0  0  0  0  0
  -23.7014   18.9852  -25.5154 C   0  0  0  0  0  0  0  0  0  0  0  0
  -23.3149   19.2314  -26.8179 F   0  0  0  0  0  0  0  0  0  0  0  0
  -23.8007   17.6448  -25.2597 F   0  0  0  0  0  0  0  0  0  0  0  0
  -24.9534   19.5585  -25.2991 F   0  0  0  0  0  0  0  0  0  0  0  0
  -17.8475   12.3520  -19.6389 C   0  0  0  0  0  0  0  0  0  0  0  0
  -17.0887   11.2152  -19.4771 C   0  0  0  0  0  0  0  0  0  0  0  0
  -17.5420   10.2788  -18.5968 N   0  0  0  0  0  0  0  0  0  0  0  0
  -18.6412   10.3923  -17.9034 C   0  0  0  0  0  0  0  0  0  0  0  0
  -19.3903   11.5170  -18.0562 N   0  0  0  0  0  0  0  0  0  0  0  0
  -19.0348   12.4880  -18.8900 C   0  0  0  0  0  0  0  0  0  0  0  0
  -19.1410    9.3998  -17.0459 N   0  0  0  0  0  0  0  0  0  0  0  0
  -19.0229    8.3856  -17.1998 H   0  0  0  0  0  0  0  0  0  0  0  0
  -19.8814    9.7764  -15.8570 C   0  0  0  0  0  0  0  0  0  0  0  0
  -21.2225    9.9620  -15.7812 C   0  0  0  0  0  0  0  0  0  0  0  0
  -21.8703   10.2206  -14.5875 C   0  0  0  0  0  0  0  0  0  0  0  0
  -21.1214   10.2925  -13.4220 C   0  0  0  0  0  0  0  0  0  0  0  0
  -19.7476   10.1063  -13.4722 C   0  0  0  0  0  0  0  0  0  0  0  0
  -19.1423    9.8543  -14.6895 C   0  0  0  0  0  0  0  0  0  0  0  0
  -19.0419   10.1742  -12.2365 N   0  0  0  0  0  0  0  0  0  0  0  0
  -18.7704    8.9738  -11.5559 C   0  0  0  0  0  0  0  0  0  0  0  0
  -19.1536    7.8823  -12.0351 O   0  0  0  0  0  0  0  0  0  0  0  0
  -18.7250   11.0710  -11.8330 H   0  0  0  0  0  0  0  0  0  0  0  0
  -18.0402    9.0011  -10.2874 C   0  0  0  0  0  0  0  0  0  0  0  0
  -18.6209    9.5443   -9.2103 C   0  0  0  0  0  0  0  0  0  0  0  0
  5  6  1  0  0  0
  6  7  2  0  0  0
  7  8  1  0  0  0
  8  9  2  0  0  0
  9 12  1  0  0  0
 12 13  1  0  0  0
 13 14  2  0  0  0
 13 16  1  0  0  0
 16 17  2  0  0  0
 17 18  1  0  0  0
 18 19  2  0  0  0
 19 20  1  0  0  0
 20 21  2  0  0  0
 20 22  1  0  0  0
 22 23  1  0  0  0
 22 24  1  0  0  0
 22 25  1  0  0  0
  9 10  1  0  0  0
 10 11  2  0  0  0
 11  1  1  0  0  0
  1  2  2  0  0  0
  1  3  1  0  0  0
  3 26  1  0  0  0
 26 27  2  0  0  0
 27 28  1  0  0  0
 28 29  2  0  0  0
 29 32  1  0  0  0
 32 34  1  0  0  0
 34 35  2  0  0  0
 35 36  1  0  0  0
 36 37  2  0  0  0
 37 38  1  0  0  0
 38 40  1  0  0  0
 40 41  1  0  0  0
 41 42  2  0  0  0
 41 44  1  0  0  0
 44 45  2  0  0  0
 38 39  2  0  0  0
 29 30  1  0  0  0
 30 31  2  0  0  0
 11  6  1  0  0  0
 31 26  1  0  0  0
 21 16  1  0  0  0
 39 34  1  0  0  0
 12 15  1  0  0  0
  3  4  1  0  0  0
 32 33  1  0  0  0
 40 43  1  0  0  0
M  END
> <minimizedAffinity>
-9.01544

> <CNNscore>
0.3429548740

> <CNNaffinity>
6.8582353592

> <CNN_VS>
2.3520653248

> <CNNaffinity_variance>
0.0850435048

$$$$
[H]C([H])=C([H])C(=O)N([H])c1c([H])c([H])c([H])c(N([H])c2nc([H])c(N([H])C(=O)c3c([H])c(N([H])C(=O)c4c([H])c([H])c([H])c(C(F)(F)F)c4[H])c([H])c([H])c3C([H])([H])[H])c([H])n2)c1[H]


 45 48  0  0  0  0  0  0  0  0999 V2000
  -17.2063   13.5251  -22.2486 C   0  0  0  0  0  0  0  0  0  0  0  0
  -17.1576   12.4099  -22.8213 O   0  0  0  0  0  0  0  0  0  0  0  0
  -17.3811   13.5594  -20.8472 N   0  0  0  0  0  0  0  0  0  0  0  0
  -17.2381   14.5302  -20.4042 H   0  0  0  0  0  0  0  0  0  0  0  0
  -14.7061   14.2798  -23.5268 C   0  0  0  0  0  0  0  0  0  0  0  0
  -15.9359   15.0824  -23.6653 C   0  0  0  0  0  0  0  0  0  0  0  0
  -15.7961   16.2548  -24.4294 C   0  0  0  0  0  0  0  0  0  0  0  0
  -16.8347   17.1315  -24.4890 C   0  0  0  0  0  0  0  0  0  0  0  0
  -18.0384   16.8809  -23.7999 C   0  0  0  0  0  0  0  0  0  0  0  0
  -18.1657   15.7134  -23.0544 C   0  0  0  0  0  0  0  0  0  0  0  0
  -17.1016   14.8095  -22.9911 C   0  0  0  0  0  0  0  0  0  0  0  0
  -19.0036   17.8788  -23.8429 N   0  0  0  0  0  0  0  0  0  0  0  0
  -19.1593   19.0966  -23.1728 C   0  0  0  0  0  0  0  0  0  0  0  0
  -18.3905   19.5305  -22.3232 O   0  0  0  0  0  0  0  0  0  0  0  0
  -19.8070   17.6890  -24.5626 H   0  0  0  0  0  0  0  0  0  0  0  0
  -20.3579   19.8943  -23.5445 C   0  0  0  0  0  0  0  0  0  0  0  0
  -20.4621   21.2253  -23.3689 C   0  0  0  0  0  0  0  0  0  0  0  0
  -21.6413   21.8784  -23.7047 C   0  0  0  0  0  0  0  0  0  0  0  0
  -22.7106   21.1544  -24.2272 C   0  0  0  0  0  0  0  0  0  0  0  0
  -22.6157   19.7952  -24.4126 C   0  0  0  0  0  0  0  0  0  0  0  0
  -21.4449   19.1824  -24.0707 C   0  0  0  0  0  0  0  0  0  0  0  0
  -23.7718   19.0435  -24.9741 C   0  0  0  0  0  0  0  0  0  0  0  0
  -23.4073   18.5429  -26.2082 F   0  0  0  0  0  0  0  0  0  0  0  0
  -24.1811   18.0522  -24.1245 F   0  0  0  0  0  0  0  0  0  0  0  0
  -24.8327   19.9319  -25.1418 F   0  0  0  0  0  0  0  0  0  0  0  0
  -17.6119   12.5255  -19.9345 C   0  0  0  0  0  0  0  0  0  0  0  0
  -16.8934   11.3565  -19.8283 C   0  0  0  0  0  0  0  0  0  0  0  0
  -17.3614   10.4088  -18.9680 N   0  0  0  0  0  0  0  0  0  0  0  0
  -18.4392   10.5400  -18.2446 C   0  0  0  0  0  0  0  0  0  0  0  0
  -19.1482   11.6962  -18.3426 N   0  0  0  0  0  0  0  0  0  0  0  0
  -18.7755   12.6806  -19.1528 C   0  0  0  0  0  0  0  0  0  0  0  0
  -18.9562    9.5388  -17.4079 N   0  0  0  0  0  0  0  0  0  0  0  0
  -18.9043    8.5277  -17.6108 H   0  0  0  0  0  0  0  0  0  0  0  0
  -19.6188    9.9013  -16.1697 C   0  0  0  0  0  0  0  0  0  0  0  0
  -19.3284    9.4107  -14.9394 C   0  0  0  0  0  0  0  0  0  0  0  0
  -19.9356    9.8809  -13.7898 C   0  0  0  0  0  0  0  0  0  0  0  0
  -20.8776   10.8937  -13.8972 C   0  0  0  0  0  0  0  0  0  0  0  0
  -21.1928   11.4131  -15.1444 C   0  0  0  0  0  0  0  0  0  0  0  0
  -20.5630   10.9086  -16.2671 C   0  0  0  0  0  0  0  0  0  0  0  0
  -22.1539   12.4640  -15.1812 N   0  0  0  0  0  0  0  0  0  0  0  0
  -21.7430   13.7288  -15.6389 C   0  0  0  0  0  0  0  0  0  0  0  0
  -20.5561   13.9104  -15.9940 O   0  0  0  0  0  0  0  0  0  0  0  0
  -23.1343   12.3230  -14.8872 H   0  0  0  0  0  0  0  0  0  0  0  0
  -22.7031   14.8322  -15.6997 C   0  0  0  0  0  0  0  0  0  0  0  0
  -22.5018   15.9165  -14.9406 C   0  0  0  0  0  0  0  0  0  0  0  0
  5  6  1  0  0  0
  6  7  2  0  0  0
  7  8  1  0  0  0
  8  9  2  0  0  0
  9 12  1  0  0  0
 12 13  1  0  0  0
 13 14  2  0  0  0
 13 16  1  0  0  0
 16 17  2  0  0  0
 17 18  1  0  0  0
 18 19  2  0  0  0
 19 20  1  0  0  0
 20 21  2  0  0  0
 20 22  1  0  0  0
 22 23  1  0  0  0
 22 24  1  0  0  0
 22 25  1  0  0  0
  9 10  1  0  0  0
 10 11  2  0  0  0
 11  1  1  0  0  0
  1  2  2  0  0  0
  1  3  1  0  0  0
  3 26  1  0  0  0
 26 27  2  0  0  0
 27 28  1  0  0  0
 28 29  2  0  0  0
 29 32  1  0  0  0
 32 34  1  0  0  0
 34 35  2  0  0  0
 35 36  1  0  0  0
 36 37  2  0  0  0
 37 38  1  0  0  0
 38 40  1  0  0  0
 40 41  1  0  0  0
 41 42  2  0  0  0
 41 44  1  0  0  0
 44 45  2  0  0  0
 38 39  2  0  0  0
 29 30  1  0  0  0
 30 31  2  0  0  0
 11  6  1  0  0  0
 31 26  1  0  0  0
 21 16  1  0  0  0
 39 34  1  0  0  0
 12 15  1  0  0  0
  3  4  1  0  0  0
 32 33  1  0  0  0
 40 43  1  0  0  0
M  END
> <minimizedAffinity>
-8.77647

> <CNNscore>
0.3349274993

> <CNNaffinity>
7.2110238075

> <CNN_VS>
2.4151701927

> <CNNaffinity_variance>
0.1094348654

$$$$
[H]C([H])=C([H])C(=O)N([H])c1c([H])c([H])c([H])c(N([H])c2nc([H])c(N([H])C(=O)c3c([H])c(N([H])C(=O)c4c([H])c([H])c([H])c(C(F)(F)F)c4[H])c([H])c([H])c3C([H])([H])[H])c([H])n2)c1[H]


 45 48  0  0  0  0  0  0  0  0999 V2000
  -17.4864   12.8871  -21.9224 C   0  0  0  0  0  0  0  0  0  0  0  0
  -17.4757   11.7144  -22.3683 O   0  0  0  0  0  0  0  0  0  0  0  0
  -17.6383   13.0811  -20.5314 N   0  0  0  0  0  0  0  0  0  0  0  0
  -17.4632   14.0907  -20.2008 H   0  0  0  0  0  0  0  0  0  0  0  0
  -15.0353   13.3514  -23.4162 C   0  0  0  0  0  0  0  0  0  0  0  0
  -16.2263   14.2079  -23.5698 C   0  0  0  0  0  0  0  0  0  0  0  0
  -16.0723   15.2832  -24.4630 C   0  0  0  0  0  0  0  0  0  0  0  0
  -17.0638   16.2101  -24.5573 C   0  0  0  0  0  0  0  0  0  0  0  0
  -18.2330   16.1062  -23.7772 C   0  0  0  0  0  0  0  0  0  0  0  0
  -18.3755   15.0329  -22.9038 C   0  0  0  0  0  0  0  0  0  0  0  0
  -17.3599   14.0780  -22.8043 C   0  0  0  0  0  0  0  0  0  0  0  0
  -19.1437   17.1506  -23.8724 N   0  0  0  0  0  0  0  0  0  0  0  0
  -19.7384   17.9977  -22.9315 C   0  0  0  0  0  0  0  0  0  0  0  0
  -19.5478   17.9432  -21.7225 O   0  0  0  0  0  0  0  0  0  0  0  0
  -19.4543   17.3771  -24.8979 H   0  0  0  0  0  0  0  0  0  0  0  0
  -20.6645   19.0257  -23.4764 C   0  0  0  0  0  0  0  0  0  0  0  0
  -20.5916   20.3378  -23.1825 C   0  0  0  0  0  0  0  0  0  0  0  0
  -21.5313   21.2179  -23.7042 C   0  0  0  0  0  0  0  0  0  0  0  0
  -22.5432   20.7405  -24.5341 C   0  0  0  0  0  0  0  0  0  0  0  0
  -22.6270   19.4032  -24.8427 C   0  0  0  0  0  0  0  0  0  0  0  0
  -21.6904   18.5636  -24.3126 C   0  0  0  0  0  0  0  0  0  0  0  0
  -23.7168   18.9172  -25.7333 C   0  0  0  0  0  0  0  0  0  0  0  0
  -23.3924   19.2429  -27.0353 F   0  0  0  0  0  0  0  0  0  0  0  0
  -23.9214   17.5729  -25.5818 F   0  0  0  0  0  0  0  0  0  0  0  0
  -24.8952   19.5741  -25.3829 F   0  0  0  0  0  0  0  0  0  0  0  0
  -17.8817   12.1614  -19.5067 C   0  0  0  0  0  0  0  0  0  0  0  0
  -17.1910   10.9929  -19.2792 C   0  0  0  0  0  0  0  0  0  0  0  0
  -17.6701   10.1592  -18.3135 N   0  0  0  0  0  0  0  0  0  0  0  0
  -18.7338   10.3982  -17.5969 C   0  0  0  0  0  0  0  0  0  0  0  0
  -19.4152   11.5547  -17.8148 N   0  0  0  0  0  0  0  0  0  0  0  0
  -19.0298   12.4329  -18.7338 C   0  0  0  0  0  0  0  0  0  0  0  0
  -19.2636    9.5100  -16.6479 N   0  0  0  0  0  0  0  0  0  0  0  0
  -19.1186    8.4878  -16.6642 H   0  0  0  0  0  0  0  0  0  0  0  0
  -20.0773   10.0153  -15.5589 C   0  0  0  0  0  0  0  0  0  0  0  0
  -19.6228   10.4117  -14.3444 C   0  0  0  0  0  0  0  0  0  0  0  0
  -20.4481   10.9793  -13.3914 C   0  0  0  0  0  0  0  0  0  0  0  0
  -21.7925   11.1511  -13.6876 C   0  0  0  0  0  0  0  0  0  0  0  0
  -22.2828   10.7540  -14.9231 C   0  0  0  0  0  0  0  0  0  0  0  0
  -21.4209   10.1869  -15.8435 C   0  0  0  0  0  0  0  0  0  0  0  0
  -23.6684   10.9767  -15.1690 N   0  0  0  0  0  0  0  0  0  0  0  0
  -24.5867    9.9979  -14.7488 C   0  0  0  0  0  0  0  0  0  0  0  0
  -24.1782    8.9593  -14.1811 O   0  0  0  0  0  0  0  0  0  0  0  0
  -24.0131   11.8296  -15.6393 H   0  0  0  0  0  0  0  0  0  0  0  0
  -26.0196   10.1938  -14.9756 C   0  0  0  0  0  0  0  0  0  0  0  0
  -26.8129    9.1235  -15.1075 C   0  0  0  0  0  0  0  0  0  0  0  0
  5  6  1  0  0  0
  6  7  2  0  0  0
  7  8  1  0  0  0
  8  9  2  0  0  0
  9 12  1  0  0  0
 12 13  1  0  0  0
 13 14  2  0  0  0
 13 16  1  0  0  0
 16 17  2  0  0  0
 17 18  1  0  0  0
 18 19  2  0  0  0
 19 20  1  0  0  0
 20 21  2  0  0  0
 20 22  1  0  0  0
 22 23  1  0  0  0
 22 24  1  0  0  0
 22 25  1  0  0  0
  9 10  1  0  0  0
 10 11  2  0  0  0
 11  1  1  0  0  0
  1  2  2  0  0  0
  1  3  1  0  0  0
  3 26  1  0  0  0
 26 27  2  0  0  0
 27 28  1  0  0  0
 28 29  2  0  0  0
 29 32  1  0  0  0
 32 34  1  0  0  0
 34 35  2  0  0  0
 35 36  1  0  0  0
 36 37  2  0  0  0
 37 38  1  0  0  0
 38 40  1  0  0  0
 40 41  1  0  0  0
 41 42  2  0  0  0
 41 44  1  0  0  0
 44 45  2  0  0  0
 38 39  2  0  0  0
 29 30  1  0  0  0
 30 31  2  0  0  0
 11  6  1  0  0  0
 31 26  1  0  0  0
 21 16  1  0  0  0
 39 34  1  0  0  0
 12 15  1  0  0  0
  3  4  1  0  0  0
 32 33  1  0  0  0
 40 43  1  0  0  0
M  END
> <minimizedAffinity>
-8.91355

> <CNNscore>
0.2586371601

> <CNNaffinity>
6.8909249306

> <CNN_VS>
1.7822492123

> <CNNaffinity_variance>
0.0716094151

$$$$
[H]C([H])=C([H])C(=O)N([H])c1c([H])c([H])c([H])c(N([H])c2nc([H])c(N([H])C(=O)c3c([H])c(N([H])C(=O)c4c([H])c([H])c([H])c(C(F)(F)F)c4[H])c([H])c([H])c3C([H])([H])[H])c([H])n2)c1[H]


 45 48  0  0  0  0  0  0  0  0999 V2000
  -17.3748   13.1109  -21.4958 C   0  0  0  0  0  0  0  0  0  0  0  0
  -17.7097   12.0998  -22.1587 O   0  0  0  0  0  0  0  0  0  0  0  0
  -17.3128   13.0076  -20.0882 N   0  0  0  0  0  0  0  0  0  0  0  0
  -16.8534   13.8499  -19.5997 H   0  0  0  0  0  0  0  0  0  0  0  0
  -15.0809   13.3529  -23.2661 C   0  0  0  0  0  0  0  0  0  0  0  0
  -16.0249   14.4641  -23.0426 C   0  0  0  0  0  0  0  0  0  0  0  0
  -15.7097   15.6554  -23.7204 C   0  0  0  0  0  0  0  0  0  0  0  0
  -16.4373   16.7752  -23.4599 C   0  0  0  0  0  0  0  0  0  0  0  0
  -17.4937   16.7555  -22.5271 C   0  0  0  0  0  0  0  0  0  0  0  0
  -17.7995   15.5681  -21.8701 C   0  0  0  0  0  0  0  0  0  0  0  0
  -17.0553   14.4152  -22.1352 C   0  0  0  0  0  0  0  0  0  0  0  0
  -18.1139   17.9688  -22.2583 N   0  0  0  0  0  0  0  0  0  0  0  0
  -19.1341   18.6887  -22.8887 C   0  0  0  0  0  0  0  0  0  0  0  0
  -19.7069   18.3381  -23.9134 O   0  0  0  0  0  0  0  0  0  0  0  0
  -17.7448   18.4657  -21.3548 H   0  0  0  0  0  0  0  0  0  0  0  0
  -19.5236   19.9683  -22.2390 C   0  0  0  0  0  0  0  0  0  0  0  0
  -18.6739   20.7529  -21.5493 C   0  0  0  0  0  0  0  0  0  0  0  0
  -19.1407   21.9092  -20.9369 C   0  0  0  0  0  0  0  0  0  0  0  0
  -20.4858   22.2558  -21.0428 C   0  0  0  0  0  0  0  0  0  0  0  0
  -21.3627   21.4634  -21.7457 C   0  0  0  0  0  0  0  0  0  0  0  0
  -20.8739   20.3328  -22.3339 C   0  0  0  0  0  0  0  0  0  0  0  0
  -22.7954   21.8557  -21.8460 C   0  0  0  0  0  0  0  0  0  0  0  0
  -23.3805   21.1128  -22.8522 F   0  0  0  0  0  0  0  0  0  0  0  0
  -23.4416   21.6909  -20.6514 F   0  0  0  0  0  0  0  0  0  0  0  0
  -22.8576   23.2060  -22.1863 F   0  0  0  0  0  0  0  0  0  0  0  0
  -17.6602   11.9532  -19.2382 C   0  0  0  0  0  0  0  0  0  0  0  0
  -17.0389   10.7273  -19.1641 C   0  0  0  0  0  0  0  0  0  0  0  0
  -17.6137    9.7800  -18.3709 N   0  0  0  0  0  0  0  0  0  0  0  0
  -18.7072    9.9615  -17.6828 C   0  0  0  0  0  0  0  0  0  0  0  0
  -19.3204   11.1735  -17.7488 N   0  0  0  0  0  0  0  0  0  0  0  0
  -18.8398   12.1626  -18.4939 C   0  0  0  0  0  0  0  0  0  0  0  0
  -19.3341    8.9658  -16.9175 N   0  0  0  0  0  0  0  0  0  0  0  0
  -19.3772    7.9691  -17.1838 H   0  0  0  0  0  0  0  0  0  0  0  0
  -19.9802    9.3138  -15.6666 C   0  0  0  0  0  0  0  0  0  0  0  0
  -21.3118    9.4917  -15.4821 C   0  0  0  0  0  0  0  0  0  0  0  0
  -21.8649    9.7222  -14.2361 C   0  0  0  0  0  0  0  0  0  0  0  0
  -21.0271    9.7730  -13.1315 C   0  0  0  0  0  0  0  0  0  0  0  0
  -19.6610    9.5942  -13.2930 C   0  0  0  0  0  0  0  0  0  0  0  0
  -19.1522    9.3706  -14.5590 C   0  0  0  0  0  0  0  0  0  0  0  0
  -18.8609    9.6394  -12.1151 N   0  0  0  0  0  0  0  0  0  0  0  0
  -18.4402    8.4237  -11.5468 C   0  0  0  0  0  0  0  0  0  0  0  0
  -18.7764    7.3379  -12.0721 O   0  0  0  0  0  0  0  0  0  0  0  0
  -18.5817   10.5310  -11.6740 H   0  0  0  0  0  0  0  0  0  0  0  0
  -17.6098    8.4283  -10.3412 C   0  0  0  0  0  0  0  0  0  0  0  0
  -16.8992    7.3365  -10.0326 C   0  0  0  0  0  0  0  0  0  0  0  0
  5  6  1  0  0  0
  6  7  2  0  0  0
  7  8  1  0  0  0
  8  9  2  0  0  0
  9 12  1  0  0  0
 12 13  1  0  0  0
 13 14  2  0  0  0
 13 16  1  0  0  0
 16 17  2  0  0  0
 17 18  1  0  0  0
 18 19  2  0  0  0
 19 20  1  0  0  0
 20 21  2  0  0  0
 20 22  1  0  0  0
 22 23  1  0  0  0
 22 24  1  0  0  0
 22 25  1  0  0  0
  9 10  1  0  0  0
 10 11  2  0  0  0
 11  1  1  0  0  0
  1  2  2  0  0  0
  1  3  1  0  0  0
  3 26  1  0  0  0
 26 27  2  0  0  0
 27 28  1  0  0  0
 28 29  2  0  0  0
 29 32  1  0  0  0
 32 34  1  0  0  0
 34 35  2  0  0  0
 35 36  1  0  0  0
 36 37  2  0  0  0
 37 38  1  0  0  0
 38 40  1  0  0  0
 40 41  1  0  0  0
 41 42  2  0  0  0
 41 44  1  0  0  0
 44 45  2  0  0  0
 38 39  2  0  0  0
 29 30  1  0  0  0
 30 31  2  0  0  0
 11  6  1  0  0  0
 31 26  1  0  0  0
 21 16  1  0  0  0
 39 34  1  0  0  0
 12 15  1  0  0  0
  3  4  1  0  0  0
 32 33  1  0  0  0
 40 43  1  0  0  0
M  END
> <minimizedAffinity>
-8.15315

> <CNNscore>
0.1932284385

> <CNNaffinity>
6.5514192581

> <CNN_VS>
1.2659205198

> <CNNaffinity_variance>
0.0371924303

$$$$
[H]C([H])=C([H])C(=O)N([H])c1c([H])c([H])c([H])c(N([H])c2nc([H])c(N([H])C(=O)c3c([H])c(N([H])C(=O)c4c([H])c([H])c([H])c(C(F)(F)F)c4[H])c([H])c([H])c3C([H])([H])[H])c([H])n2)c1[H]


 45 48  0  0  0  0  0  0  0  0999 V2000
  -18.0976   12.1862  -18.7419 C   0  0  0  0  0  0  0  0  0  0  0  0
  -17.6264   12.7428  -17.7210 O   0  0  0  0  0  0  0  0  0  0  0  0
  -18.7943   10.9669  -18.5876 N   0  0  0  0  0  0  0  0  0  0  0  0
  -19.3183   10.6388  -19.4690 H   0  0  0  0  0  0  0  0  0  0  0  0
  -16.4644   10.8147  -20.7183 C   0  0  0  0  0  0  0  0  0  0  0  0
  -17.2415   12.0260  -21.0414 C   0  0  0  0  0  0  0  0  0  0  0  0
  -17.1024   12.4848  -22.3635 C   0  0  0  0  0  0  0  0  0  0  0  0
  -17.6623   13.6750  -22.7115 C   0  0  0  0  0  0  0  0  0  0  0  0
  -18.3737   14.4467  -21.7708 C   0  0  0  0  0  0  0  0  0  0  0  0
  -18.5103   13.9767  -20.4687 C   0  0  0  0  0  0  0  0  0  0  0  0
  -17.9375   12.7543  -20.1070 C   0  0  0  0  0  0  0  0  0  0  0  0
  -18.8251   15.6900  -22.1945 N   0  0  0  0  0  0  0  0  0  0  0  0
  -19.6467   16.6636  -21.6170 C   0  0  0  0  0  0  0  0  0  0  0  0
  -20.1835   16.5646  -20.5202 O   0  0  0  0  0  0  0  0  0  0  0  0
  -18.4502   15.9865  -23.1799 H   0  0  0  0  0  0  0  0  0  0  0  0
  -19.8618   17.8941  -22.4238 C   0  0  0  0  0  0  0  0  0  0  0  0
  -18.9610   18.8885  -22.5372 C   0  0  0  0  0  0  0  0  0  0  0  0
  -19.2703   20.0227  -23.2774 C   0  0  0  0  0  0  0  0  0  0  0  0
  -20.5101   20.1250  -23.9044 C   0  0  0  0  0  0  0  0  0  0  0  0
  -21.4376   19.1155  -23.7972 C   0  0  0  0  0  0  0  0  0  0  0  0
  -21.1046   18.0153  -23.0611 C   0  0  0  0  0  0  0  0  0  0  0  0
  -22.7552   19.2474  -24.4778 C   0  0  0  0  0  0  0  0  0  0  0  0
  -23.7504   19.0430  -23.5426 F   0  0  0  0  0  0  0  0  0  0  0  0
  -22.8783   20.4632  -25.0931 F   0  0  0  0  0  0  0  0  0  0  0  0
  -22.8443   18.2588  -25.4564 F   0  0  0  0  0  0  0  0  0  0  0  0
  -18.9938   10.1712  -17.4553 C   0  0  0  0  0  0  0  0  0  0  0  0
  -18.3638    8.9800  -17.1749 C   0  0  0  0  0  0  0  0  0  0  0  0
  -18.7973    8.2822  -16.0876 N   0  0  0  0  0  0  0  0  0  0  0  0
  -19.7642    8.6701  -15.3022 C   0  0  0  0  0  0  0  0  0  0  0  0
  -20.3847    9.8495  -15.5728 N   0  0  0  0  0  0  0  0  0  0  0  0
  -20.0364   10.6032  -16.6096 C   0  0  0  0  0  0  0  0  0  0  0  0
  -20.2534    7.9205  -14.2212 N   0  0  0  0  0  0  0  0  0  0  0  0
  -21.1511    7.4102  -14.2268 H   0  0  0  0  0  0  0  0  0  0  0  0
  -19.4844    7.8324  -12.9946 C   0  0  0  0  0  0  0  0  0  0  0  0
  -18.9596    8.8776  -12.3086 C   0  0  0  0  0  0  0  0  0  0  0  0
  -18.3247    8.7228  -11.0902 C   0  0  0  0  0  0  0  0  0  0  0  0
  -18.2205    7.4504  -10.5472 C   0  0  0  0  0  0  0  0  0  0  0  0
  -18.7492    6.3641  -11.2289 C   0  0  0  0  0  0  0  0  0  0  0  0
  -19.3717    6.5664  -12.4468 C   0  0  0  0  0  0  0  0  0  0  0  0
  -18.6245    5.0889  -10.6060 N   0  0  0  0  0  0  0  0  0  0  0  0
  -17.3981    4.4093  -10.7159 C   0  0  0  0  0  0  0  0  0  0  0  0
  -16.4527    4.9239  -11.3556 O   0  0  0  0  0  0  0  0  0  0  0  0
  -19.4007    4.6563  -10.0790 H   0  0  0  0  0  0  0  0  0  0  0  0
  -17.2277    3.1006  -10.0826 C   0  0  0  0  0  0  0  0  0  0  0  0
  -16.0801    2.4338  -10.2582 C   0  0  0  0  0  0  0  0  0  0  0  0
  5  6  1  0  0  0
  6  7  2  0  0  0
  7  8  1  0  0  0
  8  9  2  0  0  0
  9 12  1  0  0  0
 12 13  1  0  0  0
 13 14  2  0  0  0
 13 16  1  0  0  0
 16 17  2  0  0  0
 17 18  1  0  0  0
 18 19  2  0  0  0
 19 20  1  0  0  0
 20 21  2  0  0  0
 20 22  1  0  0  0
 22 23  1  0  0  0
 22 24  1  0  0  0
 22 25  1  0  0  0
  9 10  1  0  0  0
 10 11  2  0  0  0
 11  1  1  0  0  0
  1  2  2  0  0  0
  1  3  1  0  0  0
  3 26  1  0  0  0
 26 27  2  0  0  0
 27 28  1  0  0  0
 28 29  2  0  0  0
 29 32  1  0  0  0
 32 34  1  0  0  0
 34 35  2  0  0  0
 35 36  1  0  0  0
 36 37  2  0  0  0
 37 38  1  0  0  0
 38 40  1  0  0  0
 40 41  1  0  0  0
 41 42  2  0  0  0
 41 44  1  0  0  0
 44 45  2  0  0  0
 38 39  2  0  0  0
 29 30  1  0  0  0
 30 31  2  0  0  0
 11  6  1  0  0  0
 31 26  1  0  0  0
 21 16  1  0  0  0
 39 34  1  0  0  0
 12 15  1  0  0  0
  3  4  1  0  0  0
 32 33  1  0  0  0
 40 43  1  0  0  0
M  END
> <minimizedAffinity>
-8.45530

> <CNNscore>
0.1668008417

> <CNNaffinity>
6.2346076965

> <CNN_VS>
1.0399378538

> <CNNaffinity_variance>
0.0964661315

$$$$
[H]C([H])=C([H])C(=O)N([H])c1c([H])c([H])c([H])c(N([H])c2nc([H])c(N([H])C(=O)c3c([H])c(N([H])C(=O)c4c([H])c([H])c([H])c(C(F)(F)F)c4[H])c([H])c([H])c3C([H])([H])[H])c([H])n2)c1[H]


 45 48  0  0  0  0  0  0  0  0999 V2000
  -17.3720   13.6956  -22.0901 C   0  0  0  0  0  0  0  0  0  0  0  0
  -17.5597   12.6135  -22.6966 O   0  0  0  0  0  0  0  0  0  0  0  0
  -17.3930   13.6925  -20.6775 N   0  0  0  0  0  0  0  0  0  0  0  0
  -17.0533   14.6085  -20.2251 H   0  0  0  0  0  0  0  0  0  0  0  0
  -14.8476   14.1914  -23.4452 C   0  0  0  0  0  0  0  0  0  0  0  0
  -15.9783   15.1361  -23.5143 C   0  0  0  0  0  0  0  0  0  0  0  0
  -15.7286   16.3069  -24.2525 C   0  0  0  0  0  0  0  0  0  0  0  0
  -16.6580   17.3005  -24.2483 C   0  0  0  0  0  0  0  0  0  0  0  0
  -17.8573   17.1715  -23.5194 C   0  0  0  0  0  0  0  0  0  0  0  0
  -18.0946   16.0046  -22.8002 C   0  0  0  0  0  0  0  0  0  0  0  0
  -17.1431   14.9810  -22.8023 C   0  0  0  0  0  0  0  0  0  0  0  0
  -18.6988   18.2763  -23.4984 N   0  0  0  0  0  0  0  0  0  0  0  0
  -19.9951   18.4897  -23.0181 C   0  0  0  0  0  0  0  0  0  0  0  0
  -20.6946   17.6341  -22.4896 O   0  0  0  0  0  0  0  0  0  0  0  0
  -18.2567   19.1797  -23.9317 H   0  0  0  0  0  0  0  0  0  0  0  0
  -20.5292   19.8681  -23.1798 C   0  0  0  0  0  0  0  0  0  0  0  0
  -21.6613   20.3108  -22.6005 C   0  0  0  0  0  0  0  0  0  0  0  0
  -22.1065   21.6033  -22.8476 C   0  0  0  0  0  0  0  0  0  0  0  0
  -21.3770   22.4390  -23.6903 C   0  0  0  0  0  0  0  0  0  0  0  0
  -20.2186   21.9988  -24.2863 C   0  0  0  0  0  0  0  0  0  0  0  0
  -19.8089   20.7232  -24.0255 C   0  0  0  0  0  0  0  0  0  0  0  0
  -19.4556   22.9113  -25.1818 C   0  0  0  0  0  0  0  0  0  0  0  0
  -18.7504   23.8019  -24.3969 F   0  0  0  0  0  0  0  0  0  0  0  0
  -18.6322   22.2115  -26.0211 F   0  0  0  0  0  0  0  0  0  0  0  0
  -20.3657   23.6203  -25.9642 F   0  0  0  0  0  0  0  0  0  0  0  0
  -17.6885   12.6661  -19.7752 C   0  0  0  0  0  0  0  0  0  0  0  0
  -17.0069   11.4780  -19.6404 C   0  0  0  0  0  0  0  0  0  0  0  0
  -17.5349   10.5441  -18.8000 N   0  0  0  0  0  0  0  0  0  0  0  0
  -18.6370   10.7051  -18.1206 C   0  0  0  0  0  0  0  0  0  0  0  0
  -19.3098   11.8802  -18.2468 N   0  0  0  0  0  0  0  0  0  0  0  0
  -18.8781   12.8534  -19.0411 C   0  0  0  0  0  0  0  0  0  0  0  0
  -19.2144    9.7191  -17.3057 N   0  0  0  0  0  0  0  0  0  0  0  0
  -19.1753    8.7062  -17.5027 H   0  0  0  0  0  0  0  0  0  0  0  0
  -19.9260   10.1013  -16.1010 C   0  0  0  0  0  0  0  0  0  0  0  0
  -21.2374   10.4374  -16.0252 C   0  0  0  0  0  0  0  0  0  0  0  0
  -21.8708   10.6916  -14.8228 C   0  0  0  0  0  0  0  0  0  0  0  0
  -21.1383   10.5988  -13.6483 C   0  0  0  0  0  0  0  0  0  0  0  0
  -19.7949   10.2565  -13.6984 C   0  0  0  0  0  0  0  0  0  0  0  0
  -19.2026   10.0155  -14.9242 C   0  0  0  0  0  0  0  0  0  0  0  0
  -19.1071   10.1604  -12.4544 N   0  0  0  0  0  0  0  0  0  0  0  0
  -18.8947    8.8829  -11.9061 C   0  0  0  0  0  0  0  0  0  0  0  0
  -19.3134    7.8668  -12.5062 O   0  0  0  0  0  0  0  0  0  0  0  0
  -18.7610   10.9940  -11.9517 H   0  0  0  0  0  0  0  0  0  0  0  0
  -18.1845    8.7417  -10.6338 C   0  0  0  0  0  0  0  0  0  0  0  0
  -17.3717    7.6936  -10.4515 C   0  0  0  0  0  0  0  0  0  0  0  0
  5  6  1  0  0  0
  6  7  2  0  0  0
  7  8  1  0  0  0
  8  9  2  0  0  0
  9 12  1  0  0  0
 12 13  1  0  0  0
 13 14  2  0  0  0
 13 16  1  0  0  0
 16 17  2  0  0  0
 17 18  1  0  0  0
 18 19  2  0  0  0
 19 20  1  0  0  0
 20 21  2  0  0  0
 20 22  1  0  0  0
 22 23  1  0  0  0
 22 24  1  0  0  0
 22 25  1  0  0  0
  9 10  1  0  0  0
 10 11  2  0  0  0
 11  1  1  0  0  0
  1  2  2  0  0  0
  1  3  1  0  0  0
  3 26  1  0  0  0
 26 27  2  0  0  0
 27 28  1  0  0  0
 28 29  2  0  0  0
 29 32  1  0  0  0
 32 34  1  0  0  0
 34 35  2  0  0  0
 35 36  1  0  0  0
 36 37  2  0  0  0
 37 38  1  0  0  0
 38 40  1  0  0  0
 40 41  1  0  0  0
 41 42  2  0  0  0
 41 44  1  0  0  0
 44 45  2  0  0  0
 38 39  2  0  0  0
 29 30  1  0  0  0
 30 31  2  0  0  0
 11  6  1  0  0  0
 31 26  1  0  0  0
 21 16  1  0  0  0
 39 34  1  0  0  0
 12 15  1  0  0  0
  3  4  1  0  0  0
 32 33  1  0  0  0
 40 43  1  0  0  0
M  END
> <minimizedAffinity>
-8.37176

> <CNNscore>
0.1520075053

> <CNNaffinity>
6.5490546227

> <CNN_VS>
0.9955054522

> <CNNaffinity_variance>
0.0845576301

$$$$
[H]C([H])=C([H])C(=O)N([H])c1c([H])c([H])c([H])c(N([H])c2nc([H])c(N([H])C(=O)c3c([H])c(N([H])C(=O)c4c([H])c([H])c([H])c(C(F)(F)F)c4[H])c([H])c([H])c3C([H])([H])[H])c([H])n2)c1[H]


 45 48  0  0  0  0  0  0  0  0999 V2000
  -17.5838   12.2292  -21.0017 C   0  0  0  0  0  0  0  0  0  0  0  0
  -17.3302   11.0080  -21.1377 O   0  0  0  0  0  0  0  0  0  0  0  0
  -18.0469   12.6890  -19.7487 N   0  0  0  0  0  0  0  0  0  0  0  0
  -18.0753   13.7608  -19.6505 H   0  0  0  0  0  0  0  0  0  0  0  0
  -15.3431   12.0122  -22.8420 C   0  0  0  0  0  0  0  0  0  0  0  0
  -16.4153   13.0096  -23.0195 C   0  0  0  0  0  0  0  0  0  0  0  0
  -16.2507   13.8674  -24.1218 C   0  0  0  0  0  0  0  0  0  0  0  0
  -17.1091   14.9112  -24.2797 C   0  0  0  0  0  0  0  0  0  0  0  0
  -18.1518   15.1408  -23.3597 C   0  0  0  0  0  0  0  0  0  0  0  0
  -18.3076   14.2796  -22.2784 C   0  0  0  0  0  0  0  0  0  0  0  0
  -17.4287   13.2056  -22.1128 C   0  0  0  0  0  0  0  0  0  0  0  0
  -18.9150   16.2853  -23.5517 N   0  0  0  0  0  0  0  0  0  0  0  0
  -19.0880   17.4615  -22.8148 C   0  0  0  0  0  0  0  0  0  0  0  0
  -18.5463   17.7008  -21.7423 O   0  0  0  0  0  0  0  0  0  0  0  0
  -19.4935   16.2826  -24.4816 H   0  0  0  0  0  0  0  0  0  0  0  0
  -20.0048   18.4710  -23.4079 C   0  0  0  0  0  0  0  0  0  0  0  0
  -19.7029   19.7763  -23.5432 C   0  0  0  0  0  0  0  0  0  0  0  0
  -20.6432   20.6542  -24.0678 C   0  0  0  0  0  0  0  0  0  0  0  0
  -21.8938   20.1798  -24.4570 C   0  0  0  0  0  0  0  0  0  0  0  0
  -22.2131   18.8488  -24.3252 C   0  0  0  0  0  0  0  0  0  0  0  0
  -21.2687   18.0122  -23.8043 C   0  0  0  0  0  0  0  0  0  0  0  0
  -23.5558   18.3655  -24.7498 C   0  0  0  0  0  0  0  0  0  0  0  0
  -24.1746   19.3721  -25.4644 F   0  0  0  0  0  0  0  0  0  0  0  0
  -23.4622   17.2102  -25.4767 F   0  0  0  0  0  0  0  0  0  0  0  0
  -24.3063   18.0953  -23.6067 F   0  0  0  0  0  0  0  0  0  0  0  0
  -18.3798   11.9837  -18.5882 C   0  0  0  0  0  0  0  0  0  0  0  0
  -18.2862   10.6227  -18.4065 C   0  0  0  0  0  0  0  0  0  0  0  0
  -18.7922   10.1082  -17.2504 N   0  0  0  0  0  0  0  0  0  0  0  0
  -19.3548   10.8199  -16.3129 C   0  0  0  0  0  0  0  0  0  0  0  0
  -19.4435   12.1658  -16.4864 N   0  0  0  0  0  0  0  0  0  0  0  0
  -18.9808   12.7637  -17.5785 C   0  0  0  0  0  0  0  0  0  0  0  0
  -19.9336   10.2828  -15.1525 N   0  0  0  0  0  0  0  0  0  0  0  0
  -19.5099   10.3386  -14.2125 H   0  0  0  0  0  0  0  0  0  0  0  0
  -21.2064    9.5920  -15.2317 C   0  0  0  0  0  0  0  0  0  0  0  0
  -22.3688   10.1172  -15.6916 C   0  0  0  0  0  0  0  0  0  0  0  0
  -23.5198    9.3643  -15.8326 C   0  0  0  0  0  0  0  0  0  0  0  0
  -23.4856    8.0200  -15.4917 C   0  0  0  0  0  0  0  0  0  0  0  0
  -22.3088    7.4581  -15.0187 C   0  0  0  0  0  0  0  0  0  0  0  0
  -21.1834    8.2509  -14.8901 C   0  0  0  0  0  0  0  0  0  0  0  0
  -22.3379    6.0685  -14.7055 N   0  0  0  0  0  0  0  0  0  0  0  0
  -21.7947    5.1632  -15.6346 C   0  0  0  0  0  0  0  0  0  0  0  0
  -21.3087    5.5851  -16.7086 O   0  0  0  0  0  0  0  0  0  0  0  0
  -22.7397    5.7123  -13.8228 H   0  0  0  0  0  0  0  0  0  0  0  0
  -21.7981    3.7282  -15.3455 C   0  0  0  0  0  0  0  0  0  0  0  0
  -22.1664    2.8691  -16.3040 C   0  0  0  0  0  0  0  0  0  0  0  0
  5  6  1  0  0  0
  6  7  2  0  0  0
  7  8  1  0  0  0
  8  9  2  0  0  0
  9 12  1  0  0  0
 12 13  1  0  0  0
 13 14  2  0  0  0
 13 16  1  0  0  0
 16 17  2  0  0  0
 17 18  1  0  0  0
 18 19  2  0  0  0
 19 20  1  0  0  0
 20 21  2  0  0  0
 20 22  1  0  0  0
 22 23  1  0  0  0
 22 24  1  0  0  0
 22 25  1  0  0  0
  9 10  1  0  0  0
 10 11  2  0  0  0
 11  1  1  0  0  0
  1  2  2  0  0  0
  1  3  1  0  0  0
  3 26  1  0  0  0
 26 27  2  0  0  0
 27 28  1  0  0  0
 28 29  2  0  0  0
 29 32  1  0  0  0
 32 34  1  0  0  0
 34 35  2  0  0  0
 35 36  1  0  0  0
 36 37  2  0  0  0
 37 38  1  0  0  0
 38 40  1  0  0  0
 40 41  1  0  0  0
 41 42  2  0  0  0
 41 44  1  0  0  0
 44 45  2  0  0  0
 38 39  2  0  0  0
 29 30  1  0  0  0
 30 31  2  0  0  0
 11  6  1  0  0  0
 31 26  1  0  0  0
 21 16  1  0  0  0
 39 34  1  0  0  0
 12 15  1  0  0  0
  3  4  1  0  0  0
 32 33  1  0  0  0
 40 43  1  0  0  0
M  END
> <minimizedAffinity>
-8.63526

> <CNNscore>
0.1447549015

> <CNNaffinity>
6.8012757301

> <CNN_VS>
0.9845179915

> <CNNaffinity_variance>
0.1090341359

$$$$
[H]C([H])=C([H])C(=O)N([H])c1c([H])c([H])c([H])c(N([H])c2nc([H])c(N([H])C(=O)c3c([H])c(N([H])C(=O)c4c([H])c([H])c([H])c(C(F)(F)F)c4[H])c([H])c([H])c3C([H])([H])[H])c([H])n2)c1[H]


 45 48  0  0  0  0  0  0  0  0999 V2000
  -17.3536   11.6996  -19.8874 C   0  0  0  0  0  0  0  0  0  0  0  0
  -16.3448   11.0137  -19.5942 O   0  0  0  0  0  0  0  0  0  0  0  0
  -18.5049   11.5914  -19.0759 N   0  0  0  0  0  0  0  0  0  0  0  0
  -19.2623   12.3297  -19.2769 H   0  0  0  0  0  0  0  0  0  0  0  0
  -15.6592   11.1780  -22.1921 C   0  0  0  0  0  0  0  0  0  0  0  0
  -16.6472   12.2731  -22.1717 C   0  0  0  0  0  0  0  0  0  0  0  0
  -16.6796   13.0643  -23.3340 C   0  0  0  0  0  0  0  0  0  0  0  0
  -17.4521   14.1842  -23.3487 C   0  0  0  0  0  0  0  0  0  0  0  0
  -18.2134   14.5574  -22.2228 C   0  0  0  0  0  0  0  0  0  0  0  0
  -18.1780   13.7610  -21.0828 C   0  0  0  0  0  0  0  0  0  0  0  0
  -17.3865   12.6093  -21.0635 C   0  0  0  0  0  0  0  0  0  0  0  0
  -18.8932   15.7661  -22.2998 N   0  0  0  0  0  0  0  0  0  0  0  0
  -18.7362   16.9100  -23.0892 C   0  0  0  0  0  0  0  0  0  0  0  0
  -17.8597   17.0636  -23.9313 O   0  0  0  0  0  0  0  0  0  0  0  0
  -19.7434   15.8420  -21.6135 H   0  0  0  0  0  0  0  0  0  0  0  0
  -19.7234   17.9982  -22.8600 C   0  0  0  0  0  0  0  0  0  0  0  0
  -20.9051   17.8255  -22.2379 C   0  0  0  0  0  0  0  0  0  0  0  0
  -21.7840   18.8939  -22.1110 C   0  0  0  0  0  0  0  0  0  0  0  0
  -21.4373   20.1420  -22.6233 C   0  0  0  0  0  0  0  0  0  0  0  0
  -20.2328   20.3311  -23.2591 C   0  0  0  0  0  0  0  0  0  0  0  0
  -19.3922   19.2613  -23.3700 C   0  0  0  0  0  0  0  0  0  0  0  0
  -19.8841   21.6749  -23.7970 C   0  0  0  0  0  0  0  0  0  0  0  0
  -19.3366   22.4242  -22.7745 F   0  0  0  0  0  0  0  0  0  0  0  0
  -19.0362   21.5785  -24.8665 F   0  0  0  0  0  0  0  0  0  0  0  0
  -21.0565   22.2911  -24.2314 F   0  0  0  0  0  0  0  0  0  0  0  0
  -18.7788   10.7481  -17.9948 C   0  0  0  0  0  0  0  0  0  0  0  0
  -18.2721    9.4836  -17.7986 C   0  0  0  0  0  0  0  0  0  0  0  0
  -18.7692    8.7641  -16.7534 N   0  0  0  0  0  0  0  0  0  0  0  0
  -19.6876    9.1961  -15.9337 C   0  0  0  0  0  0  0  0  0  0  0  0
  -20.1861   10.4474  -16.1209 N   0  0  0  0  0  0  0  0  0  0  0  0
  -19.7679   11.2277  -17.1112 C   0  0  0  0  0  0  0  0  0  0  0  0
  -20.2454    8.4314  -14.8974 N   0  0  0  0  0  0  0  0  0  0  0  0
  -20.6730    7.5005  -15.0274 H   0  0  0  0  0  0  0  0  0  0  0  0
  -20.2478    8.9436  -13.5405 C   0  0  0  0  0  0  0  0  0  0  0  0
  -21.3150    9.4722  -12.8922 C   0  0  0  0  0  0  0  0  0  0  0  0
  -21.2656    9.8462  -11.5621 C   0  0  0  0  0  0  0  0  0  0  0  0
  -20.0800    9.6741  -10.8625 C   0  0  0  0  0  0  0  0  0  0  0  0
  -18.9734    9.1353  -11.5025 C   0  0  0  0  0  0  0  0  0  0  0  0
  -19.0682    8.7797  -12.8352 C   0  0  0  0  0  0  0  0  0  0  0  0
  -17.7942    8.9680  -10.7208 N   0  0  0  0  0  0  0  0  0  0  0  0
  -17.5375    7.7032  -10.1620 C   0  0  0  0  0  0  0  0  0  0  0  0
  -18.3402    6.7610  -10.3510 O   0  0  0  0  0  0  0  0  0  0  0  0
  -17.1284    9.7411  -10.5578 H   0  0  0  0  0  0  0  0  0  0  0  0
  -16.3320    7.4889   -9.3596 C   0  0  0  0  0  0  0  0  0  0  0  0
  -15.9652    8.4192   -8.4695 C   0  0  0  0  0  0  0  0  0  0  0  0
  5  6  1  0  0  0
  6  7  2  0  0  0
  7  8  1  0  0  0
  8  9  2  0  0  0
  9 12  1  0  0  0
 12 13  1  0  0  0
 13 14  2  0  0  0
 13 16  1  0  0  0
 16 17  2  0  0  0
 17 18  1  0  0  0
 18 19  2  0  0  0
 19 20  1  0  0  0
 20 21  2  0  0  0
 20 22  1  0  0  0
 22 23  1  0  0  0
 22 24  1  0  0  0
 22 25  1  0  0  0
  9 10  1  0  0  0
 10 11  2  0  0  0
 11  1  1  0  0  0
  1  2  2  0  0  0
  1  3  1  0  0  0
  3 26  1  0  0  0
 26 27  2  0  0  0
 27 28  1  0  0  0
 28 29  2  0  0  0
 29 32  1  0  0  0
 32 34  1  0  0  0
 34 35  2  0  0  0
 35 36  1  0  0  0
 36 37  2  0  0  0
 37 38  1  0  0  0
 38 40  1  0  0  0
 40 41  1  0  0  0
 41 42  2  0  0  0
 41 44  1  0  0  0
 44 45  2  0  0  0
 38 39  2  0  0  0
 29 30  1  0  0  0
 30 31  2  0  0  0
 11  6  1  0  0  0
 31 26  1  0  0  0
 21 16  1  0  0  0
 39 34  1  0  0  0
 12 15  1  0  0  0
  3  4  1  0  0  0
 32 33  1  0  0  0
 40 43  1  0  0  0
M  END
> <minimizedAffinity>
-8.78727

> <CNNscore>
0.1397420317

> <CNNaffinity>
6.4090089798

> <CNN_VS>
0.8956079483

> <CNNaffinity_variance>
0.0436431542

$$$$
[H]c1nc(N([H])[H])c2c(-c3c([H])c([H])c(Oc4c([H])c([H])c([H])c([H])c4[H])c([H])c3[H])c([H])n([C@@]3([H])C([H])([H])N(C(=O)N([H])c4c([H])c([H])c([H])c(C(F)(F)F)c4[H])C([H])([H])C([H])([H])C3([H])[H])c2n1


 45 50  0  0  0  0  0  0  0  0999 V2000
  -17.0388    9.7848  -18.8261 N   0  0  0  0  0  0  0  0  0  0  0  0
  -16.9667   10.6792  -19.8998 C   0  0  0  0  0  0  0  0  0  0  0  0
  -16.1657   10.3649  -20.9186 N   0  0  0  0  0  0  0  0  0  0  0  0
  -16.0272   11.2199  -21.9396 C   0  0  0  0  0  0  0  0  0  0  0  0
  -16.6790   12.3877  -21.9535 N   0  0  0  0  0  0  0  0  0  0  0  0
  -17.4958   12.7623  -20.9590 C   0  0  0  0  0  0  0  0  0  0  0  0
  -18.2219   13.8676  -20.7706 N   0  0  0  0  0  0  0  0  0  0  0  0
  -18.8464   13.7119  -19.6083 C   0  0  0  0  0  0  0  0  0  0  0  0
  -18.5087   12.4761  -19.0402 C   0  0  0  0  0  0  0  0  0  0  0  0
  -17.6524   11.8721  -19.8876 C   0  0  0  0  0  0  0  0  0  0  0  0
  -16.5869    9.9137  -17.9091 H   0  0  0  0  0  0  0  0  0  0  0  0
  -17.5807    8.9122  -18.9465 H   0  0  0  0  0  0  0  0  0  0  0  0
  -18.2792   15.0101  -21.6845 C   0  0  0  0  0  0  0  0  0  0  0  0
  -17.0010   15.8288  -21.6054 C   0  0  0  0  0  0  0  0  0  0  0  0
  -16.9558   16.6975  -22.8188 C   0  0  0  0  0  0  0  0  0  0  0  0
  -18.3471   17.2072  -23.2106 C   0  0  0  0  0  0  0  0  0  0  0  0
  -19.2564   17.1342  -22.1138 N   0  0  0  0  0  0  0  0  0  0  0  0
  -19.3967   15.9332  -21.3447 C   0  0  0  0  0  0  0  0  0  0  0  0
  -20.0629   18.2859  -21.7849 C   0  0  0  0  0  0  0  0  0  0  0  0
  -20.7938   18.0852  -20.7739 O   0  0  0  0  0  0  0  0  0  0  0  0
  -20.0352   19.4582  -22.4992 N   0  0  0  0  0  0  0  0  0  0  0  0
  -20.9895   19.9707  -21.6664 H   0  0  0  0  0  0  0  0  0  0  0  0
  -20.0101   20.5950  -23.1893 C   0  0  0  0  0  0  0  0  0  0  0  0
  -19.5590   21.7583  -22.5236 C   0  0  0  0  0  0  0  0  0  0  0  0
  -19.5318   22.9902  -23.0871 C   0  0  0  0  0  0  0  0  0  0  0  0
  -19.9584   23.1555  -24.3764 C   0  0  0  0  0  0  0  0  0  0  0  0
  -20.4137   22.0528  -25.0813 C   0  0  0  0  0  0  0  0  0  0  0  0
  -20.4419   20.8014  -24.5046 C   0  0  0  0  0  0  0  0  0  0  0  0
  -20.8699   22.2638  -26.4908 C   0  0  0  0  0  0  0  0  0  0  0  0
  -21.4903   23.4976  -26.6195 F   0  0  0  0  0  0  0  0  0  0  0  0
  -19.8356   22.1278  -27.3844 F   0  0  0  0  0  0  0  0  0  0  0  0
  -21.8274   21.3163  -26.7844 F   0  0  0  0  0  0  0  0  0  0  0  0
  -19.0753   11.9957  -17.7804 C   0  0  0  0  0  0  0  0  0  0  0  0
  -19.4594   10.7220  -17.4937 C   0  0  0  0  0  0  0  0  0  0  0  0
  -20.0295   10.3866  -16.2624 C   0  0  0  0  0  0  0  0  0  0  0  0
  -20.2353   11.3124  -15.2693 C   0  0  0  0  0  0  0  0  0  0  0  0
  -19.8303   12.6300  -15.5746 C   0  0  0  0  0  0  0  0  0  0  0  0
  -19.2788   12.9562  -16.7712 C   0  0  0  0  0  0  0  0  0  0  0  0
  -20.7749   11.0801  -14.0663 O   0  0  0  0  0  0  0  0  0  0  0  0
  -20.5840   11.0912  -12.7826 C   0  0  0  0  0  0  0  0  0  0  0  0
  -21.3926   11.6679  -11.8346 C   0  0  0  0  0  0  0  0  0  0  0  0
  -21.1025   11.6308  -10.4871 C   0  0  0  0  0  0  0  0  0  0  0  0
  -19.9774   11.0086  -10.0481 C   0  0  0  0  0  0  0  0  0  0  0  0
  -19.1468   10.4224  -10.9435 C   0  0  0  0  0  0  0  0  0  0  0  0
  -19.4201   10.4451  -12.2930 C   0  0  0  0  0  0  0  0  0  0  0  0
  1  2  1  0  0  0
  2  3  2  0  0  0
  3  4  1  0  0  0
  4  5  2  0  0  0
  5  6  1  0  0  0
  6  7  1  0  0  0
  7  8  1  0  0  0
  8  9  2  0  0  0
  9 33  1  0  0  0
 33 34  2  0  0  0
 34 35  1  0  0  0
 35 36  2  0  0  0
 36 39  1  0  0  0
 39 40  1  0  0  0
 40 41  2  0  0  0
 41 42  1  0  0  0
 42 43  2  0  0  0
 43 44  1  0  0  0
 44 45  2  0  0  0
 36 37  1  0  0  0
 37 38  2  0  0  0
  9 10  1  0  0  0
  7 13  1  0  0  0
 13 14  1  0  0  0
 14 15  1  0  0  0
 15 16  1  0  0  0
 16 17  1  0  0  0
 17 18  1  0  0  0
 17 19  1  0  0  0
 19 20  2  0  0  0
 19 21  1  0  0  0
 21 23  1  0  0  0
 23 24  2  0  0  0
 24 25  1  0  0  0
 25 26  2  0  0  0
 26 27  1  0  0  0
 27 28  2  0  0  0
 27 29  1  0  0  0
 29 30  1  0  0  0
 29 31  1  0  0  0
 29 32  1  0  0  0
 10  2  1  0  0  0
 18 13  1  0  0  0
 28 23  1  0  0  0
 10  6  2  0  0  0
 38 33  1  0  0  0
 45 40  1  0  0  0
  1 11  1  0  0  0
  1 12  1  0  0  0
 21 22  1  0  0  0
M  END
> <minimizedAffinity>
-9.60755

> <CNNscore>
0.4986932576

> <CNNaffinity>
7.2935457230

> <CNN_VS>
3.6372420788

> <CNNaffinity_variance>
0.1087071523

$$$$
[H]c1nc(N([H])[H])c2c(-c3c([H])c([H])c(Oc4c([H])c([H])c([H])c([H])c4[H])c([H])c3[H])c([H])n([C@@]3([H])C([H])([H])N(C(=O)N([H])c4c([H])c([H])c([H])c(C(F)(F)F)c4[H])C([H])([H])C([H])([H])C3([H])[H])c2n1


 45 50  0  0  0  0  0  0  0  0999 V2000
  -17.5547    9.4082  -18.0063 N   0  0  0  0  0  0  0  0  0  0  0  0
  -17.5475   10.3510  -19.0404 C   0  0  0  0  0  0  0  0  0  0  0  0
  -16.7278   10.1382  -20.0706 N   0  0  0  0  0  0  0  0  0  0  0  0
  -16.6516   11.0441  -21.0535 C   0  0  0  0  0  0  0  0  0  0  0  0
  -17.3841   12.1625  -21.0179 N   0  0  0  0  0  0  0  0  0  0  0  0
  -18.2237   12.4354  -20.0094 C   0  0  0  0  0  0  0  0  0  0  0  0
  -19.0256   13.4776  -19.7746 N   0  0  0  0  0  0  0  0  0  0  0  0
  -19.6357   13.2283  -18.6211 C   0  0  0  0  0  0  0  0  0  0  0  0
  -19.2109   11.9959  -18.1063 C   0  0  0  0  0  0  0  0  0  0  0  0
  -18.3155   11.4909  -18.9777 C   0  0  0  0  0  0  0  0  0  0  0  0
  -17.1116    9.5290  -17.0840 H   0  0  0  0  0  0  0  0  0  0  0  0
  -18.0339    8.5056  -18.1651 H   0  0  0  0  0  0  0  0  0  0  0  0
  -19.1646   14.6516  -20.6385 C   0  0  0  0  0  0  0  0  0  0  0  0
  -18.1085   15.6933  -20.3071 C   0  0  0  0  0  0  0  0  0  0  0  0
  -18.0448   16.6411  -21.4589 C   0  0  0  0  0  0  0  0  0  0  0  0
  -19.4286   16.9004  -22.0646 C   0  0  0  0  0  0  0  0  0  0  0  0
  -20.4692   16.5732  -21.1452 N   0  0  0  0  0  0  0  0  0  0  0  0
  -20.4857   15.3145  -20.4603 C   0  0  0  0  0  0  0  0  0  0  0  0
  -21.5344   17.5205  -20.9151 C   0  0  0  0  0  0  0  0  0  0  0  0
  -22.3629   17.1090  -20.0543 O   0  0  0  0  0  0  0  0  0  0  0  0
  -21.6295   18.7254  -21.5666 N   0  0  0  0  0  0  0  0  0  0  0  0
  -22.7895   18.9818  -20.8914 H   0  0  0  0  0  0  0  0  0  0  0  0
  -21.7240   19.8932  -22.1961 C   0  0  0  0  0  0  0  0  0  0  0  0
  -22.6968   20.8110  -21.7364 C   0  0  0  0  0  0  0  0  0  0  0  0
  -22.9379   22.0119  -22.3158 C   0  0  0  0  0  0  0  0  0  0  0  0
  -22.2149   22.3925  -23.4131 C   0  0  0  0  0  0  0  0  0  0  0  0
  -21.2473   21.5351  -23.9121 C   0  0  0  0  0  0  0  0  0  0  0  0
  -21.0058   20.3135  -23.3216 C   0  0  0  0  0  0  0  0  0  0  0  0
  -20.4698   21.9804  -25.1106 C   0  0  0  0  0  0  0  0  0  0  0  0
  -19.1172   21.7319  -24.9303 F   0  0  0  0  0  0  0  0  0  0  0  0
  -20.9365   21.3974  -26.2635 F   0  0  0  0  0  0  0  0  0  0  0  0
  -20.5999   23.3477  -25.2299 F   0  0  0  0  0  0  0  0  0  0  0  0
  -19.7403   11.4230  -16.8692 C   0  0  0  0  0  0  0  0  0  0  0  0
  -20.1611   10.1427  -16.6799 C   0  0  0  0  0  0  0  0  0  0  0  0
  -20.6895    9.7166  -15.4581 C   0  0  0  0  0  0  0  0  0  0  0  0
  -20.8153   10.5548  -14.3775 C   0  0  0  0  0  0  0  0  0  0  0  0
  -20.3728   11.8797  -14.5825 C   0  0  0  0  0  0  0  0  0  0  0  0
  -19.8617   12.2940  -15.7697 C   0  0  0  0  0  0  0  0  0  0  0  0
  -21.3105   10.2329  -13.1761 O   0  0  0  0  0  0  0  0  0  0  0  0
  -21.0346    9.8429  -11.9694 C   0  0  0  0  0  0  0  0  0  0  0  0
  -21.7617    8.9688  -11.1997 C   0  0  0  0  0  0  0  0  0  0  0  0
  -21.3885    8.6166   -9.9199 C   0  0  0  0  0  0  0  0  0  0  0  0
  -20.2625    9.1404   -9.3688 C   0  0  0  0  0  0  0  0  0  0  0  0
  -19.5090   10.0068  -10.0877 C   0  0  0  0  0  0  0  0  0  0  0  0
  -19.8622   10.3686  -11.3685 C   0  0  0  0  0  0  0  0  0  0  0  0
  1  2  1  0  0  0
  2  3  2  0  0  0
  3  4  1  0  0  0
  4  5  2  0  0  0
  5  6  1  0  0  0
  6  7  1  0  0  0
  7  8  1  0  0  0
  8  9  2  0  0  0
  9 33  1  0  0  0
 33 34  2  0  0  0
 34 35  1  0  0  0
 35 36  2  0  0  0
 36 39  1  0  0  0
 39 40  1  0  0  0
 40 41  2  0  0  0
 41 42  1  0  0  0
 42 43  2  0  0  0
 43 44  1  0  0  0
 44 45  2  0  0  0
 36 37  1  0  0  0
 37 38  2  0  0  0
  9 10  1  0  0  0
  7 13  1  0  0  0
 13 14  1  0  0  0
 14 15  1  0  0  0
 15 16  1  0  0  0
 16 17  1  0  0  0
 17 18  1  0  0  0
 17 19  1  0  0  0
 19 20  2  0  0  0
 19 21  1  0  0  0
 21 23  1  0  0  0
 23 24  2  0  0  0
 24 25  1  0  0  0
 25 26  2  0  0  0
 26 27  1  0  0  0
 27 28  2  0  0  0
 27 29  1  0  0  0
 29 30  1  0  0  0
 29 31  1  0  0  0
 29 32  1  0  0  0
 10  2  1  0  0  0
 18 13  1  0  0  0
 28 23  1  0  0  0
 10  6  2  0  0  0
 38 33  1  0  0  0
 45 40  1  0  0  0
  1 11  1  0  0  0
  1 12  1  0  0  0
 21 22  1  0  0  0
M  END
> <minimizedAffinity>
-8.45030

> <CNNscore>
0.4010009468

> <CNNaffinity>
7.2435417175

> <CNN_VS>
2.9046671391

> <CNNaffinity_variance>
0.3451957107

$$$$
[H]c1nc(N([H])[H])c2c(-c3c([H])c([H])c(Oc4c([H])c([H])c([H])c([H])c4[H])c([H])c3[H])c([H])n([C@@]3([H])C([H])([H])N(C(=O)N([H])c4c([H])c([H])c([H])c(C(F)(F)F)c4[H])C([H])([H])C([H])([H])C3([H])[H])c2n1


 45 50  0  0  0  0  0  0  0  0999 V2000
  -18.0030    9.0905  -17.3640 N   0  0  0  0  0  0  0  0  0  0  0  0
  -18.0830   10.2496  -18.1439 C   0  0  0  0  0  0  0  0  0  0  0  0
  -17.2667   10.3507  -19.1935 N   0  0  0  0  0  0  0  0  0  0  0  0
  -17.2743   11.4672  -19.9324 C   0  0  0  0  0  0  0  0  0  0  0  0
  -18.0874   12.4860  -19.6330 N   0  0  0  0  0  0  0  0  0  0  0  0
  -18.9285   12.4467  -18.5902 C   0  0  0  0  0  0  0  0  0  0  0  0
  -19.8019   13.3390  -18.1155 N   0  0  0  0  0  0  0  0  0  0  0  0
  -20.3729   12.7770  -17.0557 C   0  0  0  0  0  0  0  0  0  0  0  0
  -19.8490   11.4938  -16.8482 C   0  0  0  0  0  0  0  0  0  0  0  0
  -18.9328   11.2800  -17.8131 C   0  0  0  0  0  0  0  0  0  0  0  0
  -17.5552    9.0222  -16.4386 H   0  0  0  0  0  0  0  0  0  0  0  0
  -18.4162    8.2175  -17.7340 H   0  0  0  0  0  0  0  0  0  0  0  0
  -20.0422   14.6705  -18.6753 C   0  0  0  0  0  0  0  0  0  0  0  0
  -21.5174   14.8676  -18.9840 C   0  0  0  0  0  0  0  0  0  0  0  0
  -21.7431   16.3343  -19.1480 C   0  0  0  0  0  0  0  0  0  0  0  0
  -20.5623   17.0216  -19.8425 C   0  0  0  0  0  0  0  0  0  0  0  0
  -19.7666   16.0844  -20.5663 N   0  0  0  0  0  0  0  0  0  0  0  0
  -19.3097   14.8711  -19.9558 C   0  0  0  0  0  0  0  0  0  0  0  0
  -19.4000   16.3732  -21.9327 C   0  0  0  0  0  0  0  0  0  0  0  0
  -18.7251   15.4410  -22.4543 O   0  0  0  0  0  0  0  0  0  0  0  0
  -19.7458   17.5338  -22.5800 N   0  0  0  0  0  0  0  0  0  0  0  0
  -19.0745   17.0983  -23.6876 H   0  0  0  0  0  0  0  0  0  0  0  0
  -20.0795   18.6569  -23.2094 C   0  0  0  0  0  0  0  0  0  0  0  0
  -19.1682   19.7369  -23.1545 C   0  0  0  0  0  0  0  0  0  0  0  0
  -19.4022   20.9533  -23.7036 C   0  0  0  0  0  0  0  0  0  0  0  0
  -20.5804   21.1860  -24.3587 C   0  0  0  0  0  0  0  0  0  0  0  0
  -21.5152   20.1667  -24.4451 C   0  0  0  0  0  0  0  0  0  0  0  0
  -21.2749   18.9311  -23.8840 C   0  0  0  0  0  0  0  0  0  0  0  0
  -22.7926   20.4496  -25.1715 C   0  0  0  0  0  0  0  0  0  0  0  0
  -23.5077   19.2775  -25.3682 F   0  0  0  0  0  0  0  0  0  0  0  0
  -23.5483   21.3937  -24.5200 F   0  0  0  0  0  0  0  0  0  0  0  0
  -22.4824   20.9292  -26.4262 F   0  0  0  0  0  0  0  0  0  0  0  0
  -20.3140   10.6048  -15.7841 C   0  0  0  0  0  0  0  0  0  0  0  0
  -21.2447    9.6183  -15.8962 C   0  0  0  0  0  0  0  0  0  0  0  0
  -21.6419    8.8550  -14.7947 C   0  0  0  0  0  0  0  0  0  0  0  0
  -21.1213    9.0478  -13.5386 C   0  0  0  0  0  0  0  0  0  0  0  0
  -20.1539   10.0707  -13.4332 C   0  0  0  0  0  0  0  0  0  0  0  0
  -19.7699   10.8135  -14.5024 C   0  0  0  0  0  0  0  0  0  0  0  0
  -21.4446    8.3676  -12.4319 O   0  0  0  0  0  0  0  0  0  0  0  0
  -21.1072    7.4126  -11.6204 C   0  0  0  0  0  0  0  0  0  0  0  0
  -20.7685    6.1256  -11.9584 C   0  0  0  0  0  0  0  0  0  0  0  0
  -20.4265    5.1754  -11.0197 C   0  0  0  0  0  0  0  0  0  0  0  0
  -20.4173    5.4931   -9.6988 C   0  0  0  0  0  0  0  0  0  0  0  0
  -20.7424    6.7504   -9.3130 C   0  0  0  0  0  0  0  0  0  0  0  0
  -21.0834    7.7150  -10.2347 C   0  0  0  0  0  0  0  0  0  0  0  0
  1  2  1  0  0  0
  2  3  2  0  0  0
  3  4  1  0  0  0
  4  5  2  0  0  0
  5  6  1  0  0  0
  6  7  1  0  0  0
  7  8  1  0  0  0
  8  9  2  0  0  0
  9 33  1  0  0  0
 33 34  2  0  0  0
 34 35  1  0  0  0
 35 36  2  0  0  0
 36 39  1  0  0  0
 39 40  1  0  0  0
 40 41  2  0  0  0
 41 42  1  0  0  0
 42 43  2  0  0  0
 43 44  1  0  0  0
 44 45  2  0  0  0
 36 37  1  0  0  0
 37 38  2  0  0  0
  9 10  1  0  0  0
  7 13  1  0  0  0
 13 14  1  0  0  0
 14 15  1  0  0  0
 15 16  1  0  0  0
 16 17  1  0  0  0
 17 18  1  0  0  0
 17 19  1  0  0  0
 19 20  2  0  0  0
 19 21  1  0  0  0
 21 23  1  0  0  0
 23 24  2  0  0  0
 24 25  1  0  0  0
 25 26  2  0  0  0
 26 27  1  0  0  0
 27 28  2  0  0  0
 27 29  1  0  0  0
 29 30  1  0  0  0
 29 31  1  0  0  0
 29 32  1  0  0  0
 10  2  1  0  0  0
 18 13  1  0  0  0
 28 23  1  0  0  0
 10  6  2  0  0  0
 38 33  1  0  0  0
 45 40  1  0  0  0
  1 11  1  0  0  0
  1 12  1  0  0  0
 21 22  1  0  0  0
M  END
> <minimizedAffinity>
-8.59201

> <CNNscore>
0.3749503195

> <CNNaffinity>
7.0202646255

> <CNN_VS>
2.6322505474

> <CNNaffinity_variance>
0.2042266428

$$$$
[H]c1nc(N([H])[H])c2c(-c3c([H])c([H])c(Oc4c([H])c([H])c([H])c([H])c4[H])c([H])c3[H])c([H])n([C@@]3([H])C([H])([H])N(C(=O)N([H])c4c([H])c([H])c([H])c(C(F)(F)F)c4[H])C([H])([H])C([H])([H])C3([H])[H])c2n1


 45 50  0  0  0  0  0  0  0  0999 V2000
  -18.2377    8.7645  -17.1333 N   0  0  0  0  0  0  0  0  0  0  0  0
  -18.2398    9.9442  -17.8859 C   0  0  0  0  0  0  0  0  0  0  0  0
  -17.3775   10.0375  -18.8989 N   0  0  0  0  0  0  0  0  0  0  0  0
  -17.3107   11.1707  -19.6087 C   0  0  0  0  0  0  0  0  0  0  0  0
  -18.0949   12.2139  -19.3164 N   0  0  0  0  0  0  0  0  0  0  0  0
  -18.9793   12.1836  -18.3097 C   0  0  0  0  0  0  0  0  0  0  0  0
  -19.8359   13.0987  -17.8480 N   0  0  0  0  0  0  0  0  0  0  0  0
  -20.4717   12.5350  -16.8267 C   0  0  0  0  0  0  0  0  0  0  0  0
  -20.0077   11.2271  -16.6312 C   0  0  0  0  0  0  0  0  0  0  0  0
  -19.0614   10.9998  -17.5635 C   0  0  0  0  0  0  0  0  0  0  0  0
  -17.8314    8.6561  -16.1927 H   0  0  0  0  0  0  0  0  0  0  0  0
  -18.6691    7.9180  -17.5418 H   0  0  0  0  0  0  0  0  0  0  0  0
  -20.0004   14.4518  -18.3828 C   0  0  0  0  0  0  0  0  0  0  0  0
  -21.4688   14.7618  -18.6236 C   0  0  0  0  0  0  0  0  0  0  0  0
  -21.5915   16.2432  -18.7623 C   0  0  0  0  0  0  0  0  0  0  0  0
  -20.3941   16.8505  -19.5015 C   0  0  0  0  0  0  0  0  0  0  0  0
  -19.7028   15.8670  -20.2695 N   0  0  0  0  0  0  0  0  0  0  0  0
  -19.3115   14.6150  -19.6924 C   0  0  0  0  0  0  0  0  0  0  0  0
  -19.3756   16.1464  -21.6478 C   0  0  0  0  0  0  0  0  0  0  0  0
  -18.7954   15.1739  -22.2084 O   0  0  0  0  0  0  0  0  0  0  0  0
  -19.6618   17.3380  -22.2671 N   0  0  0  0  0  0  0  0  0  0  0  0
  -19.0737   16.8691  -23.4079 H   0  0  0  0  0  0  0  0  0  0  0  0
  -19.9379   18.4912  -22.8694 C   0  0  0  0  0  0  0  0  0  0  0  0
  -19.0996   19.5956  -22.5910 C   0  0  0  0  0  0  0  0  0  0  0  0
  -19.2952   20.8394  -23.0914 C   0  0  0  0  0  0  0  0  0  0  0  0
  -20.3575   21.0775  -23.9199 C   0  0  0  0  0  0  0  0  0  0  0  0
  -21.2165   20.0351  -24.2294 C   0  0  0  0  0  0  0  0  0  0  0  0
  -21.0158   18.7714  -23.7173 C   0  0  0  0  0  0  0  0  0  0  0  0
  -22.3670   20.3247  -25.1414 C   0  0  0  0  0  0  0  0  0  0  0  0
  -21.9084   20.7403  -26.3827 F   0  0  0  0  0  0  0  0  0  0  0  0
  -23.2090   19.2453  -25.2545 F   0  0  0  0  0  0  0  0  0  0  0  0
  -23.0810   21.3819  -24.6186 F   0  0  0  0  0  0  0  0  0  0  0  0
  -20.5507   10.3323  -15.6098 C   0  0  0  0  0  0  0  0  0  0  0  0
  -19.9509    9.9693  -14.4433 C   0  0  0  0  0  0  0  0  0  0  0  0
  -20.5514    9.0698  -13.5579 C   0  0  0  0  0  0  0  0  0  0  0  0
  -21.7765    8.5003  -13.8044 C   0  0  0  0  0  0  0  0  0  0  0  0
  -22.3923    8.8858  -15.0149 C   0  0  0  0  0  0  0  0  0  0  0  0
  -21.8082    9.7576  -15.8758 C   0  0  0  0  0  0  0  0  0  0  0  0
  -22.4214    7.6312  -13.0164 O   0  0  0  0  0  0  0  0  0  0  0  0
  -22.7656    6.3925  -12.8387 C   0  0  0  0  0  0  0  0  0  0  0  0
  -22.4242    5.3214  -13.6270 C   0  0  0  0  0  0  0  0  0  0  0  0
  -22.8440    4.0359  -13.3580 C   0  0  0  0  0  0  0  0  0  0  0  0
  -23.6304    3.7865  -12.2785 C   0  0  0  0  0  0  0  0  0  0  0  0
  -23.9942    4.8092  -11.4679 C   0  0  0  0  0  0  0  0  0  0  0  0
  -23.5827    6.0995  -11.7168 C   0  0  0  0  0  0  0  0  0  0  0  0
  1  2  1  0  0  0
  2  3  2  0  0  0
  3  4  1  0  0  0
  4  5  2  0  0  0
  5  6  1  0  0  0
  6  7  1  0  0  0
  7  8  1  0  0  0
  8  9  2  0  0  0
  9 33  1  0  0  0
 33 34  2  0  0  0
 34 35  1  0  0  0
 35 36  2  0  0  0
 36 39  1  0  0  0
 39 40  1  0  0  0
 40 41  2  0  0  0
 41 42  1  0  0  0
 42 43  2  0  0  0
 43 44  1  0  0  0
 44 45  2  0  0  0
 36 37  1  0  0  0
 37 38  2  0  0  0
  9 10  1  0  0  0
  7 13  1  0  0  0
 13 14  1  0  0  0
 14 15  1  0  0  0
 15 16  1  0  0  0
 16 17  1  0  0  0
 17 18  1  0  0  0
 17 19  1  0  0  0
 19 20  2  0  0  0
 19 21  1  0  0  0
 21 23  1  0  0  0
 23 24  2  0  0  0
 24 25  1  0  0  0
 25 26  2  0  0  0
 26 27  1  0  0  0
 27 28  2  0  0  0
 27 29  1  0  0  0
 29 30  1  0  0  0
 29 31  1  0  0  0
 29 32  1  0  0  0
 10  2  1  0  0  0
 18 13  1  0  0  0
 28 23  1  0  0  0
 10  6  2  0  0  0
 38 33  1  0  0  0
 45 40  1  0  0  0
  1 11  1  0  0  0
  1 12  1  0  0  0
 21 22  1  0  0  0
M  END
> <minimizedAffinity>
-8.51093

> <CNNscore>
0.3538605571

> <CNNaffinity>
6.9211745262

> <CNN_VS>
2.4491307735

> <CNNaffinity_variance>
0.1747816354

$$$$
[H]c1nc(N([H])[H])c2c(-c3c([H])c([H])c(Oc4c([H])c([H])c([H])c([H])c4[H])c([H])c3[H])c([H])n([C@@]3([H])C([H])([H])N(C(=O)N([H])c4c([H])c([H])c([H])c(C(F)(F)F)c4[H])C([H])([H])C([H])([H])C3([H])[H])c2n1


 45 50  0  0  0  0  0  0  0  0999 V2000
  -18.3035    9.0600  -17.3358 N   0  0  0  0  0  0  0  0  0  0  0  0
  -18.0003   10.0631  -18.2631 C   0  0  0  0  0  0  0  0  0  0  0  0
  -17.1144    9.7796  -19.2188 N   0  0  0  0  0  0  0  0  0  0  0  0
  -16.7567   10.7293  -20.0921 C   0  0  0  0  0  0  0  0  0  0  0  0
  -17.2729   11.9610  -20.0204 N   0  0  0  0  0  0  0  0  0  0  0  0
  -18.1649   12.3087  -19.0823 C   0  0  0  0  0  0  0  0  0  0  0  0
  -18.7868   13.4633  -18.8282 N   0  0  0  0  0  0  0  0  0  0  0  0
  -19.5670   13.2447  -17.7754 C   0  0  0  0  0  0  0  0  0  0  0  0
  -19.4383   11.9168  -17.3460 C   0  0  0  0  0  0  0  0  0  0  0  0
  -18.5506   11.3204  -18.1661 C   0  0  0  0  0  0  0  0  0  0  0  0
  -17.9607    9.0199  -16.3649 H   0  0  0  0  0  0  0  0  0  0  0  0
  -18.9158    8.2815  -17.6336 H   0  0  0  0  0  0  0  0  0  0  0  0
  -18.6050   14.7071  -19.5792 C   0  0  0  0  0  0  0  0  0  0  0  0
  -18.0934   15.8147  -18.6726 C   0  0  0  0  0  0  0  0  0  0  0  0
  -17.5501   16.8914  -19.5526 C   0  0  0  0  0  0  0  0  0  0  0  0
  -18.3821   17.0631  -20.8282 C   0  0  0  0  0  0  0  0  0  0  0  0
  -19.6907   16.5164  -20.6739 N   0  0  0  0  0  0  0  0  0  0  0  0
  -19.8863   15.1925  -20.1613 C   0  0  0  0  0  0  0  0  0  0  0  0
  -20.8374   17.3050  -21.0587 C   0  0  0  0  0  0  0  0  0  0  0  0
  -21.9271   16.7058  -20.8350 O   0  0  0  0  0  0  0  0  0  0  0  0
  -20.7430   18.5595  -21.6091 N   0  0  0  0  0  0  0  0  0  0  0  0
  -22.1054   18.6038  -21.7043 H   0  0  0  0  0  0  0  0  0  0  0  0
  -20.6544   19.7748  -22.1422 C   0  0  0  0  0  0  0  0  0  0  0  0
  -19.6005   20.6096  -21.7039 C   0  0  0  0  0  0  0  0  0  0  0  0
  -19.4226   21.8863  -22.1216 C   0  0  0  0  0  0  0  0  0  0  0  0
  -20.2958   22.4330  -23.0216 C   0  0  0  0  0  0  0  0  0  0  0  0
  -21.3508   21.6649  -23.4877 C   0  0  0  0  0  0  0  0  0  0  0  0
  -21.5300   20.3672  -23.0596 C   0  0  0  0  0  0  0  0  0  0  0  0
  -22.2870   22.2885  -24.4746 C   0  0  0  0  0  0  0  0  0  0  0  0
  -23.0477   23.2748  -23.8643 F   0  0  0  0  0  0  0  0  0  0  0  0
  -21.6175   22.7783  -25.5694 F   0  0  0  0  0  0  0  0  0  0  0  0
  -23.1744   21.3238  -24.9018 F   0  0  0  0  0  0  0  0  0  0  0  0
  -20.2086   11.3595  -16.2348 C   0  0  0  0  0  0  0  0  0  0  0  0
  -21.3492   10.6226  -16.3237 C   0  0  0  0  0  0  0  0  0  0  0  0
  -22.0250   10.1754  -15.1848 C   0  0  0  0  0  0  0  0  0  0  0  0
  -21.5843   10.4464  -13.9127 C   0  0  0  0  0  0  0  0  0  0  0  0
  -20.3984   11.2081  -13.8308 C   0  0  0  0  0  0  0  0  0  0  0  0
  -19.7434   11.6444  -14.9368 C   0  0  0  0  0  0  0  0  0  0  0  0
  -22.1681   10.0616  -12.7711 O   0  0  0  0  0  0  0  0  0  0  0  0
  -21.9849    9.5844  -11.5781 C   0  0  0  0  0  0  0  0  0  0  0  0
  -22.4925   10.0839  -10.4042 C   0  0  0  0  0  0  0  0  0  0  0  0
  -22.2375    9.5068   -9.1783 C   0  0  0  0  0  0  0  0  0  0  0  0
  -21.4540    8.4001   -9.0946 C   0  0  0  0  0  0  0  0  0  0  0  0
  -20.9298    7.8670  -10.2243 C   0  0  0  0  0  0  0  0  0  0  0  0
  -21.1752    8.4259  -11.4587 C   0  0  0  0  0  0  0  0  0  0  0  0
  1  2  1  0  0  0
  2  3  2  0  0  0
  3  4  1  0  0  0
  4  5  2  0  0  0
  5  6  1  0  0  0
  6  7  1  0  0  0
  7  8  1  0  0  0
  8  9  2  0  0  0
  9 33  1  0  0  0
 33 34  2  0  0  0
 34 35  1  0  0  0
 35 36  2  0  0  0
 36 39  1  0  0  0
 39 40  1  0  0  0
 40 41  2  0  0  0
 41 42  1  0  0  0
 42 43  2  0  0  0
 43 44  1  0  0  0
 44 45  2  0  0  0
 36 37  1  0  0  0
 37 38  2  0  0  0
  9 10  1  0  0  0
  7 13  1  0  0  0
 13 14  1  0  0  0
 14 15  1  0  0  0
 15 16  1  0  0  0
 16 17  1  0  0  0
 17 18  1  0  0  0
 17 19  1  0  0  0
 19 20  2  0  0  0
 19 21  1  0  0  0
 21 23  1  0  0  0
 23 24  2  0  0  0
 24 25  1  0  0  0
 25 26  2  0  0  0
 26 27  1  0  0  0
 27 28  2  0  0  0
 27 29  1  0  0  0
 29 30  1  0  0  0
 29 31  1  0  0  0
 29 32  1  0  0  0
 10  2  1  0  0  0
 18 13  1  0  0  0
 28 23  1  0  0  0
 10  6  2  0  0  0
 38 33  1  0  0  0
 45 40  1  0  0  0
  1 11  1  0  0  0
  1 12  1  0  0  0
 21 22  1  0  0  0
M  END
> <minimizedAffinity>
-8.20500

> <CNNscore>
0.3293907642

> <CNNaffinity>
6.9578919411

> <CNN_VS>
2.2918653488

> <CNNaffinity_variance>
0.2305239141

$$$$
[H]c1nc(N([H])[H])c2c(-c3c([H])c([H])c(Oc4c([H])c([H])c([H])c([H])c4[H])c([H])c3[H])c([H])n([C@@]3([H])C([H])([H])N(C(=O)N([H])c4c([H])c([H])c([H])c(C(F)(F)F)c4[H])C([H])([H])C([H])([H])C3([H])[H])c2n1


 45 50  0  0  0  0  0  0  0  0999 V2000
  -18.3361    9.0729  -17.2789 N   0  0  0  0  0  0  0  0  0  0  0  0
  -18.0153   10.0718  -18.2048 C   0  0  0  0  0  0  0  0  0  0  0  0
  -17.1115    9.7840  -19.1422 N   0  0  0  0  0  0  0  0  0  0  0  0
  -16.7373   10.7297  -20.0129 C   0  0  0  0  0  0  0  0  0  0  0  0
  -17.2546   11.9617  -19.9565 N   0  0  0  0  0  0  0  0  0  0  0  0
  -18.1641   12.3137  -19.0370 C   0  0  0  0  0  0  0  0  0  0  0  0
  -18.7906   13.4695  -18.7999 N   0  0  0  0  0  0  0  0  0  0  0  0
  -19.5906   13.2556  -17.7610 C   0  0  0  0  0  0  0  0  0  0  0  0
  -19.4702   11.9297  -17.3234 C   0  0  0  0  0  0  0  0  0  0  0  0
  -18.5672   11.3295  -18.1239 C   0  0  0  0  0  0  0  0  0  0  0  0
  -18.0118    9.0371  -16.3015 H   0  0  0  0  0  0  0  0  0  0  0  0
  -18.9428    8.2931  -17.5847 H   0  0  0  0  0  0  0  0  0  0  0  0
  -18.5944   14.7099  -19.5528 C   0  0  0  0  0  0  0  0  0  0  0  0
  -18.0880   15.8181  -18.6442 C   0  0  0  0  0  0  0  0  0  0  0  0
  -17.5297   16.8894  -19.5215 C   0  0  0  0  0  0  0  0  0  0  0  0
  -18.3464   17.0606  -20.8070 C   0  0  0  0  0  0  0  0  0  0  0  0
  -19.6592   16.5205  -20.6659 N   0  0  0  0  0  0  0  0  0  0  0  0
  -19.8668   15.1992  -20.1511 C   0  0  0  0  0  0  0  0  0  0  0  0
  -20.7978   17.3132  -21.0663 C   0  0  0  0  0  0  0  0  0  0  0  0
  -21.8927   16.7197  -20.8530 O   0  0  0  0  0  0  0  0  0  0  0  0
  -20.6913   18.5653  -21.6196 N   0  0  0  0  0  0  0  0  0  0  0  0
  -22.0522   18.6156  -21.7305 H   0  0  0  0  0  0  0  0  0  0  0  0
  -20.5910   19.7783  -22.1557 C   0  0  0  0  0  0  0  0  0  0  0  0
  -19.5579   20.6217  -21.6851 C   0  0  0  0  0  0  0  0  0  0  0  0
  -19.3728   21.8972  -22.1030 C   0  0  0  0  0  0  0  0  0  0  0  0
  -20.2169   22.4342  -23.0360 C   0  0  0  0  0  0  0  0  0  0  0  0
  -21.2504   21.6574  -23.5349 C   0  0  0  0  0  0  0  0  0  0  0  0
  -21.4371   20.3609  -23.1065 C   0  0  0  0  0  0  0  0  0  0  0  0
  -22.1549   22.2705  -24.5573 C   0  0  0  0  0  0  0  0  0  0  0  0
  -21.4260   23.0487  -25.4444 F   0  0  0  0  0  0  0  0  0  0  0  0
  -22.8938   21.3187  -25.2168 F   0  0  0  0  0  0  0  0  0  0  0  0
  -23.0222   23.1268  -23.9131 F   0  0  0  0  0  0  0  0  0  0  0  0
  -20.2614   11.3774  -16.2244 C   0  0  0  0  0  0  0  0  0  0  0  0
  -21.4175   10.6672  -16.3303 C   0  0  0  0  0  0  0  0  0  0  0  0
  -22.1120   10.2226  -15.2018 C   0  0  0  0  0  0  0  0  0  0  0  0
  -21.6754   10.4694  -13.9234 C   0  0  0  0  0  0  0  0  0  0  0  0
  -20.4735   11.2035  -13.8239 C   0  0  0  0  0  0  0  0  0  0  0  0
  -19.8002   11.6372  -14.9198 C   0  0  0  0  0  0  0  0  0  0  0  0
  -22.2765   10.0851  -12.7907 O   0  0  0  0  0  0  0  0  0  0  0  0
  -23.3871    9.6992  -12.2410 C   0  0  0  0  0  0  0  0  0  0  0  0
  -24.2811   10.4818  -11.5528 C   0  0  0  0  0  0  0  0  0  0  0  0
  -25.4382    9.9773  -10.9981 C   0  0  0  0  0  0  0  0  0  0  0  0
  -25.7329    8.6565  -11.1174 C   0  0  0  0  0  0  0  0  0  0  0  0
  -24.8838    7.8417  -11.7885 C   0  0  0  0  0  0  0  0  0  0  0  0
  -23.7250    8.3261  -12.3530 C   0  0  0  0  0  0  0  0  0  0  0  0
  1  2  1  0  0  0
  2  3  2  0  0  0
  3  4  1  0  0  0
  4  5  2  0  0  0
  5  6  1  0  0  0
  6  7  1  0  0  0
  7  8  1  0  0  0
  8  9  2  0  0  0
  9 33  1  0  0  0
 33 34  2  0  0  0
 34 35  1  0  0  0
 35 36  2  0  0  0
 36 39  1  0  0  0
 39 40  1  0  0  0
 40 41  2  0  0  0
 41 42  1  0  0  0
 42 43  2  0  0  0
 43 44  1  0  0  0
 44 45  2  0  0  0
 36 37  1  0  0  0
 37 38  2  0  0  0
  9 10  1  0  0  0
  7 13  1  0  0  0
 13 14  1  0  0  0
 14 15  1  0  0  0
 15 16  1  0  0  0
 16 17  1  0  0  0
 17 18  1  0  0  0
 17 19  1  0  0  0
 19 20  2  0  0  0
 19 21  1  0  0  0
 21 23  1  0  0  0
 23 24  2  0  0  0
 24 25  1  0  0  0
 25 26  2  0  0  0
 26 27  1  0  0  0
 27 28  2  0  0  0
 27 29  1  0  0  0
 29 30  1  0  0  0
 29 31  1  0  0  0
 29 32  1  0  0  0
 10  2  1  0  0  0
 18 13  1  0  0  0
 28 23  1  0  0  0
 10  6  2  0  0  0
 38 33  1  0  0  0
 45 40  1  0  0  0
  1 11  1  0  0  0
  1 12  1  0  0  0
 21 22  1  0  0  0
M  END
> <minimizedAffinity>
-8.01792

> <CNNscore>
0.2815555334

> <CNNaffinity>
6.8552985191

> <CNN_VS>
1.9301472902

> <CNNaffinity_variance>
0.2213551253

$$$$
[H]c1nc(N([H])[H])c2c(-c3c([H])c([H])c(Oc4c([H])c([H])c([H])c([H])c4[H])c([H])c3[H])c([H])n([C@@]3([H])C([H])([H])N(C(=O)N([H])c4c([H])c([H])c([H])c(C(F)(F)F)c4[H])C([H])([H])C([H])([H])C3([H])[H])c2n1


 45 50  0  0  0  0  0  0  0  0999 V2000
  -17.5546    9.6137  -17.9132 N   0  0  0  0  0  0  0  0  0  0  0  0
  -17.7757   10.7623  -18.6814 C   0  0  0  0  0  0  0  0  0  0  0  0
  -17.0369   10.9283  -19.7791 N   0  0  0  0  0  0  0  0  0  0  0  0
  -17.1799   12.0403  -20.5109 C   0  0  0  0  0  0  0  0  0  0  0  0
  -18.0521   12.9904  -20.1572 N   0  0  0  0  0  0  0  0  0  0  0  0
  -18.8210   12.8840  -19.0644 C   0  0  0  0  0  0  0  0  0  0  0  0
  -19.7321   13.7034  -18.5325 N   0  0  0  0  0  0  0  0  0  0  0  0
  -20.1891   13.0978  -17.4420 C   0  0  0  0  0  0  0  0  0  0  0  0
  -19.5521   11.8609  -17.2732 C   0  0  0  0  0  0  0  0  0  0  0  0
  -18.6833   11.7212  -18.2939 C   0  0  0  0  0  0  0  0  0  0  0  0
  -17.0461    9.5821  -17.0177 H   0  0  0  0  0  0  0  0  0  0  0  0
  -17.9185    8.7102  -18.2609 H   0  0  0  0  0  0  0  0  0  0  0  0
  -20.1128   15.0110  -19.0703 C   0  0  0  0  0  0  0  0  0  0  0  0
  -21.5843   15.0302  -19.4505 C   0  0  0  0  0  0  0  0  0  0  0  0
  -21.9871   16.4611  -19.5889 C   0  0  0  0  0  0  0  0  0  0  0  0
  -20.8714   17.3135  -20.2033 C   0  0  0  0  0  0  0  0  0  0  0  0
  -19.9284   16.5076  -20.9080 N   0  0  0  0  0  0  0  0  0  0  0  0
  -19.3506   15.3428  -20.3054 C   0  0  0  0  0  0  0  0  0  0  0  0
  -19.5358   16.8834  -22.2458 C   0  0  0  0  0  0  0  0  0  0  0  0
  -18.7230   16.0608  -22.7548 O   0  0  0  0  0  0  0  0  0  0  0  0
  -19.9951   18.0110  -22.8807 N   0  0  0  0  0  0  0  0  0  0  0  0
  -19.2207   17.6990  -23.9624 H   0  0  0  0  0  0  0  0  0  0  0  0
  -20.4384   19.1024  -23.4980 C   0  0  0  0  0  0  0  0  0  0  0  0
  -21.6906   19.0257  -24.1508 C   0  0  0  0  0  0  0  0  0  0  0  0
  -22.2371   20.0416  -24.8616 C   0  0  0  0  0  0  0  0  0  0  0  0
  -21.5651   21.2278  -24.9751 C   0  0  0  0  0  0  0  0  0  0  0  0
  -20.3317   21.3643  -24.3584 C   0  0  0  0  0  0  0  0  0  0  0  0
  -19.7777   20.3285  -23.6377 C   0  0  0  0  0  0  0  0  0  0  0  0
  -19.6224   22.6747  -24.4966 C   0  0  0  0  0  0  0  0  0  0  0  0
  -19.0665   23.0549  -23.2840 F   0  0  0  0  0  0  0  0  0  0  0  0
  -18.6758   22.6368  -25.4912 F   0  0  0  0  0  0  0  0  0  0  0  0
  -20.5523   23.6410  -24.8162 F   0  0  0  0  0  0  0  0  0  0  0  0
  -19.8771   10.9378  -16.1865 C   0  0  0  0  0  0  0  0  0  0  0  0
  -20.4486    9.7085  -16.3061 C   0  0  0  0  0  0  0  0  0  0  0  0
  -20.7521    8.9279  -15.1871 C   0  0  0  0  0  0  0  0  0  0  0  0
  -20.4935    9.3463  -13.9049 C   0  0  0  0  0  0  0  0  0  0  0  0
  -19.8973   10.6210  -13.7912 C   0  0  0  0  0  0  0  0  0  0  0  0
  -19.6047   11.3800  -14.8778 C   0  0  0  0  0  0  0  0  0  0  0  0
  -20.7526    8.6676  -12.7805 O   0  0  0  0  0  0  0  0  0  0  0  0
  -21.6522    8.3482  -11.9012 C   0  0  0  0  0  0  0  0  0  0  0  0
  -22.8797    7.7838  -12.1461 C   0  0  0  0  0  0  0  0  0  0  0  0
  -23.7740    7.4827  -11.1408 C   0  0  0  0  0  0  0  0  0  0  0  0
  -23.4588    7.7453   -9.8456 C   0  0  0  0  0  0  0  0  0  0  0  0
  -22.2589    8.3007   -9.5506 C   0  0  0  0  0  0  0  0  0  0  0  0
  -21.3502    8.6057  -10.5393 C   0  0  0  0  0  0  0  0  0  0  0  0
  1  2  1  0  0  0
  2  3  2  0  0  0
  3  4  1  0  0  0
  4  5  2  0  0  0
  5  6  1  0  0  0
  6  7  1  0  0  0
  7  8  1  0  0  0
  8  9  2  0  0  0
  9 33  1  0  0  0
 33 34  2  0  0  0
 34 35  1  0  0  0
 35 36  2  0  0  0
 36 39  1  0  0  0
 39 40  1  0  0  0
 40 41  2  0  0  0
 41 42  1  0  0  0
 42 43  2  0  0  0
 43 44  1  0  0  0
 44 45  2  0  0  0
 36 37  1  0  0  0
 37 38  2  0  0  0
  9 10  1  0  0  0
  7 13  1  0  0  0
 13 14  1  0  0  0
 14 15  1  0  0  0
 15 16  1  0  0  0
 16 17  1  0  0  0
 17 18  1  0  0  0
 17 19  1  0  0  0
 19 20  2  0  0  0
 19 21  1  0  0  0
 21 23  1  0  0  0
 23 24  2  0  0  0
 24 25  1  0  0  0
 25 26  2  0  0  0
 26 27  1  0  0  0
 27 28  2  0  0  0
 27 29  1  0  0  0
 29 30  1  0  0  0
 29 31  1  0  0  0
 29 32  1  0  0  0
 10  2  1  0  0  0
 18 13  1  0  0  0
 28 23  1  0  0  0
 10  6  2  0  0  0
 38 33  1  0  0  0
 45 40  1  0  0  0
  1 11  1  0  0  0
  1 12  1  0  0  0
 21 22  1  0  0  0
M  END
> <minimizedAffinity>
-8.02077

> <CNNscore>
0.2666100860

> <CNNaffinity>
6.8902330399

> <CNN_VS>
1.8370056152

> <CNNaffinity_variance>
0.1629941016

$$$$
[H]c1nc(N([H])[H])c2c(-c3c([H])c([H])c(Oc4c([H])c([H])c([H])c([H])c4[H])c([H])c3[H])c([H])n([C@@]3([H])C([H])([H])N(C(=O)N([H])c4c([H])c([H])c([H])c(C(F)(F)F)c4[H])C([H])([H])C([H])([H])C3([H])[H])c2n1


 45 50  0  0  0  0  0  0  0  0999 V2000
  -17.0795   13.3652  -22.1738 N   0  0  0  0  0  0  0  0  0  0  0  0
  -17.0940   12.3327  -21.2294 C   0  0  0  0  0  0  0  0  0  0  0  0
  -16.4218   11.2174  -21.5167 N   0  0  0  0  0  0  0  0  0  0  0  0
  -16.4560   10.1860  -20.6637 C   0  0  0  0  0  0  0  0  0  0  0  0
  -17.1568   10.2553  -19.5267 N   0  0  0  0  0  0  0  0  0  0  0  0
  -17.8549   11.3465  -19.1826 C   0  0  0  0  0  0  0  0  0  0  0  0
  -18.6170   11.6185  -18.1198 N   0  0  0  0  0  0  0  0  0  0  0  0
  -19.0721   12.8547  -18.2917 C   0  0  0  0  0  0  0  0  0  0  0  0
  -18.5890   13.3843  -19.4960 C   0  0  0  0  0  0  0  0  0  0  0  0
  -17.8214   12.4344  -20.0659 C   0  0  0  0  0  0  0  0  0  0  0  0
  -17.8563   13.6090  -22.8052 H   0  0  0  0  0  0  0  0  0  0  0  0
  -16.2233   13.9382  -22.2651 H   0  0  0  0  0  0  0  0  0  0  0  0
  -18.8839   10.7002  -17.0109 C   0  0  0  0  0  0  0  0  0  0  0  0
  -18.7356    9.2555  -17.4593 C   0  0  0  0  0  0  0  0  0  0  0  0
  -18.6110    8.4204  -16.2280 C   0  0  0  0  0  0  0  0  0  0  0  0
  -19.4979    8.9400  -15.0912 C   0  0  0  0  0  0  0  0  0  0  0  0
  -20.5455    9.7720  -15.5867 N   0  0  0  0  0  0  0  0  0  0  0  0
  -20.2736   10.8450  -16.4969 C   0  0  0  0  0  0  0  0  0  0  0  0
  -21.9015    9.5396  -15.1483 C   0  0  0  0  0  0  0  0  0  0  0  0
  -22.7228   10.3296  -15.6941 O   0  0  0  0  0  0  0  0  0  0  0  0
  -22.2473    8.5717  -14.2377 N   0  0  0  0  0  0  0  0  0  0  0  0
  -23.5500    8.9741  -14.3273 H   0  0  0  0  0  0  0  0  0  0  0  0
  -22.5849    7.6349  -13.3561 C   0  0  0  0  0  0  0  0  0  0  0  0
  -21.7086    6.5366  -13.1959 C   0  0  0  0  0  0  0  0  0  0  0  0
  -21.9529    5.4869  -12.3747 C   0  0  0  0  0  0  0  0  0  0  0  0
  -23.1068    5.4549  -11.6405 C   0  0  0  0  0  0  0  0  0  0  0  0
  -24.0069    6.5023  -11.7553 C   0  0  0  0  0  0  0  0  0  0  0  0
  -23.7562    7.5676  -12.5928 C   0  0  0  0  0  0  0  0  0  0  0  0
  -25.2582    6.4414  -10.9367 C   0  0  0  0  0  0  0  0  0  0  0  0
  -25.2178    7.3834   -9.9194 F   0  0  0  0  0  0  0  0  0  0  0  0
  -26.3807    6.5919  -11.7140 F   0  0  0  0  0  0  0  0  0  0  0  0
  -25.3158    5.2091  -10.3214 F   0  0  0  0  0  0  0  0  0  0  0  0
  -18.8775   14.7473  -19.9408 C   0  0  0  0  0  0  0  0  0  0  0  0
  -18.0114   15.7967  -19.9633 C   0  0  0  0  0  0  0  0  0  0  0  0
  -18.4129   17.0714  -20.3727 C   0  0  0  0  0  0  0  0  0  0  0  0
  -19.6963   17.3448  -20.7778 C   0  0  0  0  0  0  0  0  0  0  0  0
  -20.5864   16.2491  -20.7546 C   0  0  0  0  0  0  0  0  0  0  0  0
  -20.1970   15.0118  -20.3547 C   0  0  0  0  0  0  0  0  0  0  0  0
  -20.1659   18.5316  -21.1816 O   0  0  0  0  0  0  0  0  0  0  0  0
  -19.8693   19.7590  -21.4817 C   0  0  0  0  0  0  0  0  0  0  0  0
  -19.3048   20.6965  -20.6524 C   0  0  0  0  0  0  0  0  0  0  0  0
  -19.0292   21.9835  -21.0631 C   0  0  0  0  0  0  0  0  0  0  0  0
  -19.3183   22.3715  -22.3326 C   0  0  0  0  0  0  0  0  0  0  0  0
  -19.8749   21.4835  -23.1910 C   0  0  0  0  0  0  0  0  0  0  0  0
  -20.1547   20.1925  -22.8018 C   0  0  0  0  0  0  0  0  0  0  0  0
  1  2  1  0  0  0
  2  3  2  0  0  0
  3  4  1  0  0  0
  4  5  2  0  0  0
  5  6  1  0  0  0
  6  7  1  0  0  0
  7  8  1  0  0  0
  8  9  2  0  0  0
  9 33  1  0  0  0
 33 34  2  0  0  0
 34 35  1  0  0  0
 35 36  2  0  0  0
 36 39  1  0  0  0
 39 40  1  0  0  0
 40 41  2  0  0  0
 41 42  1  0  0  0
 42 43  2  0  0  0
 43 44  1  0  0  0
 44 45  2  0  0  0
 36 37  1  0  0  0
 37 38  2  0  0  0
  9 10  1  0  0  0
  7 13  1  0  0  0
 13 14  1  0  0  0
 14 15  1  0  0  0
 15 16  1  0  0  0
 16 17  1  0  0  0
 17 18  1  0  0  0
 17 19  1  0  0  0
 19 20  2  0  0  0
 19 21  1  0  0  0
 21 23  1  0  0  0
 23 24  2  0  0  0
 24 25  1  0  0  0
 25 26  2  0  0  0
 26 27  1  0  0  0
 27 28  2  0  0  0
 27 29  1  0  0  0
 29 30  1  0  0  0
 29 31  1  0  0  0
 29 32  1  0  0  0
 10  2  1  0  0  0
 18 13  1  0  0  0
 28 23  1  0  0  0
 10  6  2  0  0  0
 38 33  1  0  0  0
 45 40  1  0  0  0
  1 11  1  0  0  0
  1 12  1  0  0  0
 21 22  1  0  0  0
M  END
> <minimizedAffinity>
-7.90343

> <CNNscore>
0.2634186447

> <CNNaffinity>
6.9073371887

> <CNN_VS>
1.8195214272

> <CNNaffinity_variance>
0.2808991671

$$$$
[H]c1nc(N([H])[H])c2c(-c3c([H])c([H])c(Oc4c([H])c([H])c([H])c([H])c4[H])c([H])c3[H])c([H])n([C@@]3([H])C([H])([H])N(C(=O)N([H])c4c([H])c([H])c([H])c(C(F)(F)F)c4[H])C([H])([H])C([H])([H])C3([H])[H])c2n1


 45 50  0  0  0  0  0  0  0  0999 V2000
  -17.4537   13.2913  -22.2659 N   0  0  0  0  0  0  0  0  0  0  0  0
  -17.3347   12.3279  -21.2580 C   0  0  0  0  0  0  0  0  0  0  0  0
  -16.5076   11.3038  -21.4708 N   0  0  0  0  0  0  0  0  0  0  0  0
  -16.4070   10.3330  -20.5542 C   0  0  0  0  0  0  0  0  0  0  0  0
  -17.1258   10.3726  -19.4271 N   0  0  0  0  0  0  0  0  0  0  0  0
  -17.9759   11.3728  -19.1561 C   0  0  0  0  0  0  0  0  0  0  0  0
  -18.7831   11.5993  -18.1161 N   0  0  0  0  0  0  0  0  0  0  0  0
  -19.4062   12.7452  -18.3683 C   0  0  0  0  0  0  0  0  0  0  0  0
  -18.9867   13.2621  -19.6016 C   0  0  0  0  0  0  0  0  0  0  0  0
  -18.0848   12.3974  -20.1065 C   0  0  0  0  0  0  0  0  0  0  0  0
  -18.2486   13.3824  -22.9150 H   0  0  0  0  0  0  0  0  0  0  0  0
  -16.6861   13.9732  -22.3895 H   0  0  0  0  0  0  0  0  0  0  0  0
  -18.9323   10.7232  -16.9525 C   0  0  0  0  0  0  0  0  0  0  0  0
  -18.9833    9.2650  -17.3781 C   0  0  0  0  0  0  0  0  0  0  0  0
  -18.7203    8.4394  -16.1623 C   0  0  0  0  0  0  0  0  0  0  0  0
  -19.3539    9.0498  -14.9073 C   0  0  0  0  0  0  0  0  0  0  0  0
  -20.3979    9.9625  -15.2424 N   0  0  0  0  0  0  0  0  0  0  0  0
  -20.1970   10.9951  -16.2156 C   0  0  0  0  0  0  0  0  0  0  0  0
  -21.6738    9.8548  -14.5750 C   0  0  0  0  0  0  0  0  0  0  0  0
  -22.5076   10.7054  -14.9966 O   0  0  0  0  0  0  0  0  0  0  0  0
  -21.9383    8.9333  -13.5920 N   0  0  0  0  0  0  0  0  0  0  0  0
  -23.1993    9.4458  -13.4718 H   0  0  0  0  0  0  0  0  0  0  0  0
  -22.1973    8.0417  -12.6397 C   0  0  0  0  0  0  0  0  0  0  0  0
  -23.5470    7.6736  -12.4331 C   0  0  0  0  0  0  0  0  0  0  0  0
  -23.9590    6.8196  -11.4653 C   0  0  0  0  0  0  0  0  0  0  0  0
  -23.0410    6.2602  -10.6191 C   0  0  0  0  0  0  0  0  0  0  0  0
  -21.7019    6.5831  -10.7702 C   0  0  0  0  0  0  0  0  0  0  0  0
  -21.2863    7.4535  -11.7545 C   0  0  0  0  0  0  0  0  0  0  0  0
  -20.7208    5.9525   -9.8326 C   0  0  0  0  0  0  0  0  0  0  0  0
  -19.9720    4.9886  -10.4914 F   0  0  0  0  0  0  0  0  0  0  0  0
  -19.9147    6.8908   -9.2354 F   0  0  0  0  0  0  0  0  0  0  0  0
  -21.4235    5.2911   -8.8480 F   0  0  0  0  0  0  0  0  0  0  0  0
  -19.4592   14.5400  -20.1333 C   0  0  0  0  0  0  0  0  0  0  0  0
  -18.6901   15.5763  -20.5652 C   0  0  0  0  0  0  0  0  0  0  0  0
  -19.2558   16.7719  -21.0171 C   0  0  0  0  0  0  0  0  0  0  0  0
  -20.6132   16.9760  -21.0564 C   0  0  0  0  0  0  0  0  0  0  0  0
  -21.4027   15.8940  -20.6099 C   0  0  0  0  0  0  0  0  0  0  0  0
  -20.8533   14.7338  -20.1689 C   0  0  0  0  0  0  0  0  0  0  0  0
  -21.2379   18.0855  -21.4699 O   0  0  0  0  0  0  0  0  0  0  0  0
  -21.9791   18.6217  -22.3905 C   0  0  0  0  0  0  0  0  0  0  0  0
  -22.1414   18.1778  -23.6797 C   0  0  0  0  0  0  0  0  0  0  0  0
  -22.9518   18.8206  -24.5913 C   0  0  0  0  0  0  0  0  0  0  0  0
  -23.6285   19.9424  -24.2312 C   0  0  0  0  0  0  0  0  0  0  0  0
  -23.5035   20.4205  -22.9699 C   0  0  0  0  0  0  0  0  0  0  0  0
  -22.7022   19.7916  -22.0433 C   0  0  0  0  0  0  0  0  0  0  0  0
  1  2  1  0  0  0
  2  3  2  0  0  0
  3  4  1  0  0  0
  4  5  2  0  0  0
  5  6  1  0  0  0
  6  7  1  0  0  0
  7  8  1  0  0  0
  8  9  2  0  0  0
  9 33  1  0  0  0
 33 34  2  0  0  0
 34 35  1  0  0  0
 35 36  2  0  0  0
 36 39  1  0  0  0
 39 40  1  0  0  0
 40 41  2  0  0  0
 41 42  1  0  0  0
 42 43  2  0  0  0
 43 44  1  0  0  0
 44 45  2  0  0  0
 36 37  1  0  0  0
 37 38  2  0  0  0
  9 10  1  0  0  0
  7 13  1  0  0  0
 13 14  1  0  0  0
 14 15  1  0  0  0
 15 16  1  0  0  0
 16 17  1  0  0  0
 17 18  1  0  0  0
 17 19  1  0  0  0
 19 20  2  0  0  0
 19 21  1  0  0  0
 21 23  1  0  0  0
 23 24  2  0  0  0
 24 25  1  0  0  0
 25 26  2  0  0  0
 26 27  1  0  0  0
 27 28  2  0  0  0
 27 29  1  0  0  0
 29 30  1  0  0  0
 29 31  1  0  0  0
 29 32  1  0  0  0
 10  2  1  0  0  0
 18 13  1  0  0  0
 28 23  1  0  0  0
 10  6  2  0  0  0
 38 33  1  0  0  0
 45 40  1  0  0  0
  1 11  1  0  0  0
  1 12  1  0  0  0
 21 22  1  0  0  0
M  END
> <minimizedAffinity>
-8.23671

> <CNNscore>
0.2418117374

> <CNNaffinity>
6.9940290451

> <CNN_VS>
1.6912382841

> <CNNaffinity_variance>
0.2917787433

$$$$
[H]c1c([H])c(Cl)c(-c2c([H])c3c([H])nc(N([H])c4c([H])c([H])c(N5C([H])([H])C([H])([H])N(C([H])([H])[H])C([H])([H])C5([H])[H])c([H])c4[H])nc3n(C([H])([H])[H])c2=O)c(Cl)c1[H]


 35 39  0  0  0  0  0  0  0  0999 V2000
  -16.9918   10.5550  -19.5582 C   0  0  0  0  0  0  0  0  0  0  0  0
  -15.9881   10.1209  -20.3900 N   0  0  0  0  0  0  0  0  0  0  0  0
  -15.6842   10.7154  -21.5432 C   0  0  0  0  0  0  0  0  0  0  0  0
  -16.3719   11.8130  -21.9667 C   0  0  0  0  0  0  0  0  0  0  0  0
  -16.0804   12.4578  -23.1665 C   0  0  0  0  0  0  0  0  0  0  0  0
  -16.7994   13.5649  -23.5599 C   0  0  0  0  0  0  0  0  0  0  0  0
  -17.7989   13.9809  -22.7107 C   0  0  0  0  0  0  0  0  0  0  0  0
  -18.4694   14.9920  -23.0510 O   0  0  0  0  0  0  0  0  0  0  0  0
  -18.0774   13.3561  -21.5534 N   0  0  0  0  0  0  0  0  0  0  0  0
  -19.1457   13.8213  -20.6707 C   0  0  0  0  0  0  0  0  0  0  0  0
  -17.3861   12.2707  -21.1495 C   0  0  0  0  0  0  0  0  0  0  0  0
  -17.6400   11.6312  -20.0086 N   0  0  0  0  0  0  0  0  0  0  0  0
  -16.4824   14.2280  -24.8184 C   0  0  0  0  0  0  0  0  0  0  0  0
  -16.9279   13.6926  -26.0084 C   0  0  0  0  0  0  0  0  0  0  0  0
  -17.8756   12.2208  -26.0557 Cl  0  0  0  0  0  0  0  0  0  0  0  0
  -16.6407   14.3029  -27.2214 C   0  0  0  0  0  0  0  0  0  0  0  0
  -15.8927   15.4763  -27.2734 C   0  0  0  0  0  0  0  0  0  0  0  0
  -15.4459   16.0129  -26.0790 C   0  0  0  0  0  0  0  0  0  0  0  0
  -15.7466   15.3852  -24.8923 C   0  0  0  0  0  0  0  0  0  0  0  0
  -15.1598   16.1017  -23.4089 Cl  0  0  0  0  0  0  0  0  0  0  0  0
  -17.2562    9.8573  -18.3587 N   0  0  0  0  0  0  0  0  0  0  0  0
  -16.4549    9.2285  -18.0316 H   0  0  0  0  0  0  0  0  0  0  0  0
  -20.6985    9.7774  -15.8733 C   0  0  0  0  0  0  0  0  0  0  0  0
  -19.8333    8.7140  -15.9954 C   0  0  0  0  0  0  0  0  0  0  0  0
  -18.7234    8.7522  -16.8080 C   0  0  0  0  0  0  0  0  0  0  0  0
  -18.4136    9.8949  -17.5640 C   0  0  0  0  0  0  0  0  0  0  0  0
  -19.2859   10.9428  -17.4290 C   0  0  0  0  0  0  0  0  0  0  0  0
  -20.4174   10.8998  -16.5990 C   0  0  0  0  0  0  0  0  0  0  0  0
  -24.6290   10.4754  -12.4622 C   0  0  0  0  0  0  0  0  0  0  0  0
  -24.1813    9.4371  -13.3897 N   0  0  0  0  0  0  0  0  0  0  0  0
  -22.8350    9.0837  -12.9841 C   0  0  0  0  0  0  0  0  0  0  0  0
  -21.8589   10.0448  -13.6320 C   0  0  0  0  0  0  0  0  0  0  0  0
  -21.8420    9.7543  -15.0501 N   0  0  0  0  0  0  0  0  0  0  0  0
  -23.1543    9.4185  -15.6178 C   0  0  0  0  0  0  0  0  0  0  0  0
  -24.2197   10.0010  -14.7149 C   0  0  0  0  0  0  0  0  0  0  0  0
 29 30  1  0  0  0
 30 31  1  0  0  0
 31 32  1  0  0  0
 32 33  1  0  0  0
 33 34  1  0  0  0
 34 35  1  0  0  0
 33 23  1  0  0  0
 23 24  2  0  0  0
 24 25  1  0  0  0
 25 26  2  0  0  0
 26 21  1  0  0  0
 21  1  1  0  0  0
  1  2  2  0  0  0
  2  3  1  0  0  0
  3  4  2  0  0  0
  4  5  1  0  0  0
  5  6  2  0  0  0
  6 13  1  0  0  0
 13 14  2  0  0  0
 14 15  1  0  0  0
 14 16  1  0  0  0
 16 17  2  0  0  0
 17 18  1  0  0  0
 18 19  2  0  0  0
 19 20  1  0  0  0
  6  7  1  0  0  0
  7  8  2  0  0  0
  7  9  1  0  0  0
  9 10  1  0  0  0
  9 11  1  0  0  0
 11 12  2  0  0  0
 26 27  1  0  0  0
 27 28  2  0  0  0
 35 30  1  0  0  0
 28 23  1  0  0  0
 12  1  1  0  0  0
 11  4  1  0  0  0
 19 13  1  0  0  0
 21 22  1  0  0  0
M  END
> <minimizedAffinity>
-10.98444

> <CNNscore>
0.9896225929

> <CNNaffinity>
7.9736542702

> <CNN_VS>
7.8909082413

> <CNNaffinity_variance>
0.0228086356

$$$$
[H]c1c([H])c(Cl)c(-c2c([H])c3c([H])nc(N([H])c4c([H])c([H])c(N5C([H])([H])C([H])([H])N(C([H])([H])[H])C([H])([H])C5([H])[H])c([H])c4[H])nc3n(C([H])([H])[H])c2=O)c(Cl)c1[H]


 35 39  0  0  0  0  0  0  0  0999 V2000
  -16.9591   10.5860  -19.5655 C   0  0  0  0  0  0  0  0  0  0  0  0
  -15.9575   10.1494  -20.3986 N   0  0  0  0  0  0  0  0  0  0  0  0
  -15.6633   10.7342  -21.5593 C   0  0  0  0  0  0  0  0  0  0  0  0
  -16.3595   11.8238  -21.9897 C   0  0  0  0  0  0  0  0  0  0  0  0
  -16.0783   12.4583  -23.1973 C   0  0  0  0  0  0  0  0  0  0  0  0
  -16.8056   13.5575  -23.5975 C   0  0  0  0  0  0  0  0  0  0  0  0
  -17.8029   13.9762  -22.7469 C   0  0  0  0  0  0  0  0  0  0  0  0
  -18.4808   14.9802  -23.0933 O   0  0  0  0  0  0  0  0  0  0  0  0
  -18.0714   13.3612  -21.5821 N   0  0  0  0  0  0  0  0  0  0  0  0
  -19.1375   13.8291  -20.6980 C   0  0  0  0  0  0  0  0  0  0  0  0
  -17.3718   12.2838  -21.1713 C   0  0  0  0  0  0  0  0  0  0  0  0
  -17.6158   11.6540  -20.0229 N   0  0  0  0  0  0  0  0  0  0  0  0
  -16.4993   14.2100  -24.8641 C   0  0  0  0  0  0  0  0  0  0  0  0
  -15.7713   15.3809  -24.8755 C   0  0  0  0  0  0  0  0  0  0  0  0
  -15.1954   16.1188  -23.3955 Cl  0  0  0  0  0  0  0  0  0  0  0  0
  -15.4653   16.0235  -26.0670 C   0  0  0  0  0  0  0  0  0  0  0  0
  -15.8849   15.5044  -27.2891 C   0  0  0  0  0  0  0  0  0  0  0  0
  -16.6154   14.3294  -27.2770 C   0  0  0  0  0  0  0  0  0  0  0  0
  -16.9032   13.7154  -26.0799 C   0  0  0  0  0  0  0  0  0  0  0  0
  -17.8292   12.2323  -26.1160 Cl  0  0  0  0  0  0  0  0  0  0  0  0
  -17.2129    9.8985  -18.3579 N   0  0  0  0  0  0  0  0  0  0  0  0
  -16.4012    9.2881  -18.0220 H   0  0  0  0  0  0  0  0  0  0  0  0
  -20.6593    9.7867  -15.8793 C   0  0  0  0  0  0  0  0  0  0  0  0
  -19.7874    8.7292  -16.0045 C   0  0  0  0  0  0  0  0  0  0  0  0
  -18.6763    8.7777  -16.8148 C   0  0  0  0  0  0  0  0  0  0  0  0
  -18.3720    9.9256  -17.5652 C   0  0  0  0  0  0  0  0  0  0  0  0
  -19.2509   10.9676  -17.4271 C   0  0  0  0  0  0  0  0  0  0  0  0
  -20.3837   10.9140  -16.5994 C   0  0  0  0  0  0  0  0  0  0  0  0
  -25.1254    8.8856  -13.2688 C   0  0  0  0  0  0  0  0  0  0  0  0
  -24.1308    9.9538  -13.3625 N   0  0  0  0  0  0  0  0  0  0  0  0
  -24.0956   10.3545  -14.7554 C   0  0  0  0  0  0  0  0  0  0  0  0
  -23.1457    9.4421  -15.5047 C   0  0  0  0  0  0  0  0  0  0  0  0
  -21.8041    9.7529  -15.0584 N   0  0  0  0  0  0  0  0  0  0  0  0
  -21.6930   10.0444  -13.6231 C   0  0  0  0  0  0  0  0  0  0  0  0
  -22.8727    9.4076  -12.9217 C   0  0  0  0  0  0  0  0  0  0  0  0
 29 30  1  0  0  0
 30 31  1  0  0  0
 31 32  1  0  0  0
 32 33  1  0  0  0
 33 34  1  0  0  0
 34 35  1  0  0  0
 33 23  1  0  0  0
 23 24  2  0  0  0
 24 25  1  0  0  0
 25 26  2  0  0  0
 26 21  1  0  0  0
 21  1  1  0  0  0
  1  2  2  0  0  0
  2  3  1  0  0  0
  3  4  2  0  0  0
  4  5  1  0  0  0
  5  6  2  0  0  0
  6 13  1  0  0  0
 13 14  2  0  0  0
 14 15  1  0  0  0
 14 16  1  0  0  0
 16 17  2  0  0  0
 17 18  1  0  0  0
 18 19  2  0  0  0
 19 20  1  0  0  0
  6  7  1  0  0  0
  7  8  2  0  0  0
  7  9  1  0  0  0
  9 10  1  0  0  0
  9 11  1  0  0  0
 11 12  2  0  0  0
 26 27  1  0  0  0
 27 28  2  0  0  0
 35 30  1  0  0  0
 28 23  1  0  0  0
 12  1  1  0  0  0
 11  4  1  0  0  0
 19 13  1  0  0  0
 21 22  1  0  0  0
M  END
> <minimizedAffinity>
-10.97739

> <CNNscore>
0.9887724519

> <CNNaffinity>
7.9726014137

> <CNN_VS>
7.8830885887

> <CNNaffinity_variance>
0.0261176731

$$$$
[H]c1c([H])c(Cl)c(-c2c([H])c3c([H])nc(N([H])c4c([H])c([H])c(N5C([H])([H])C([H])([H])N(C([H])([H])[H])C([H])([H])C5([H])[H])c([H])c4[H])nc3n(C([H])([H])[H])c2=O)c(Cl)c1[H]


 35 39  0  0  0  0  0  0  0  0999 V2000
  -18.8082   12.4656  -18.7904 C   0  0  0  0  0  0  0  0  0  0  0  0
  -17.8407   11.6659  -19.3491 N   0  0  0  0  0  0  0  0  0  0  0  0
  -17.2885   11.9062  -20.5378 C   0  0  0  0  0  0  0  0  0  0  0  0
  -17.6657   12.9859  -21.2787 C   0  0  0  0  0  0  0  0  0  0  0  0
  -17.1095   13.2656  -22.5247 C   0  0  0  0  0  0  0  0  0  0  0  0
  -17.5182   14.3674  -23.2434 C   0  0  0  0  0  0  0  0  0  0  0  0
  -18.4876   15.1530  -22.6635 C   0  0  0  0  0  0  0  0  0  0  0  0
  -18.8764   16.1664  -23.3037 O   0  0  0  0  0  0  0  0  0  0  0  0
  -19.0223   14.8800  -21.4607 N   0  0  0  0  0  0  0  0  0  0  0  0
  -20.0512   15.7335  -20.8693 C   0  0  0  0  0  0  0  0  0  0  0  0
  -18.6367   13.8067  -20.7406 C   0  0  0  0  0  0  0  0  0  0  0  0
  -19.1490   13.5110  -19.5468 N   0  0  0  0  0  0  0  0  0  0  0  0
  -16.9267   14.6461  -24.5458 C   0  0  0  0  0  0  0  0  0  0  0  0
  -16.0398   15.6922  -24.6881 C   0  0  0  0  0  0  0  0  0  0  0  0
  -15.5958   16.7104  -23.3344 Cl  0  0  0  0  0  0  0  0  0  0  0  0
  -15.4616   15.9802  -25.9165 C   0  0  0  0  0  0  0  0  0  0  0  0
  -15.7602   15.2202  -27.0445 C   0  0  0  0  0  0  0  0  0  0  0  0
  -16.6503   14.1706  -26.9011 C   0  0  0  0  0  0  0  0  0  0  0  0
  -17.2072   13.9095  -25.6704 C   0  0  0  0  0  0  0  0  0  0  0  0
  -18.3266   12.5723  -25.5392 Cl  0  0  0  0  0  0  0  0  0  0  0  0
  -19.3500   12.1301  -17.5297 N   0  0  0  0  0  0  0  0  0  0  0  0
  -19.6095   12.9738  -16.9254 H   0  0  0  0  0  0  0  0  0  0  0  0
  -20.2533    8.3466  -15.8258 C   0  0  0  0  0  0  0  0  0  0  0  0
  -21.0105    9.4737  -15.6009 C   0  0  0  0  0  0  0  0  0  0  0  0
  -20.7037   10.6947  -16.1564 C   0  0  0  0  0  0  0  0  0  0  0  0
  -19.5866   10.8539  -16.9930 C   0  0  0  0  0  0  0  0  0  0  0  0
  -18.8456    9.7212  -17.2054 C   0  0  0  0  0  0  0  0  0  0  0  0
  -19.1618    8.4771  -16.6365 C   0  0  0  0  0  0  0  0  0  0  0  0
  -21.4218    4.1236  -12.9323 C   0  0  0  0  0  0  0  0  0  0  0  0
  -21.0125    4.4055  -14.3077 N   0  0  0  0  0  0  0  0  0  0  0  0
  -19.7421    5.0984  -14.2192 C   0  0  0  0  0  0  0  0  0  0  0  0
  -20.0028    6.5782  -14.0227 C   0  0  0  0  0  0  0  0  0  0  0  0
  -20.5495    7.0898  -15.2617 N   0  0  0  0  0  0  0  0  0  0  0  0
  -21.4846    6.1794  -15.9355 C   0  0  0  0  0  0  0  0  0  0  0  0
  -22.0387    5.2246  -14.9007 C   0  0  0  0  0  0  0  0  0  0  0  0
 29 30  1  0  0  0
 30 31  1  0  0  0
 31 32  1  0  0  0
 32 33  1  0  0  0
 33 34  1  0  0  0
 34 35  1  0  0  0
 33 23  1  0  0  0
 23 24  2  0  0  0
 24 25  1  0  0  0
 25 26  2  0  0  0
 26 21  1  0  0  0
 21  1  1  0  0  0
  1  2  2  0  0  0
  2  3  1  0  0  0
  3  4  2  0  0  0
  4  5  1  0  0  0
  5  6  2  0  0  0
  6 13  1  0  0  0
 13 14  2  0  0  0
 14 15  1  0  0  0
 14 16  1  0  0  0
 16 17  2  0  0  0
 17 18  1  0  0  0
 18 19  2  0  0  0
 19 20  1  0  0  0
  6  7  1  0  0  0
  7  8  2  0  0  0
  7  9  1  0  0  0
  9 10  1  0  0  0
  9 11  1  0  0  0
 11 12  2  0  0  0
 26 27  1  0  0  0
 27 28  2  0  0  0
 35 30  1  0  0  0
 28 23  1  0  0  0
 12  1  1  0  0  0
 11  4  1  0  0  0
 19 13  1  0  0  0
 21 22  1  0  0  0
M  END
> <minimizedAffinity>
-9.93743

> <CNNscore>
0.5102404952

> <CNNaffinity>
7.3297624588

> <CNN_VS>
3.7399415970

> <CNNaffinity_variance>
0.2775796950

$$$$
[H]c1c([H])c(Cl)c(-c2c([H])c3c([H])nc(N([H])c4c([H])c([H])c(N5C([H])([H])C([H])([H])N(C([H])([H])[H])C([H])([H])C5([H])[H])c([H])c4[H])nc3n(C([H])([H])[H])c2=O)c(Cl)c1[H]


 35 39  0  0  0  0  0  0  0  0999 V2000
  -18.7939   11.7946  -18.9326 C   0  0  0  0  0  0  0  0  0  0  0  0
  -19.5277   12.8826  -19.3392 N   0  0  0  0  0  0  0  0  0  0  0  0
  -19.2688   13.5656  -20.4538 C   0  0  0  0  0  0  0  0  0  0  0  0
  -18.2356   13.2095  -21.2680 C   0  0  0  0  0  0  0  0  0  0  0  0
  -17.9374   13.9018  -22.4393 C   0  0  0  0  0  0  0  0  0  0  0  0
  -16.8837   13.5106  -23.2357 C   0  0  0  0  0  0  0  0  0  0  0  0
  -16.1639   12.4186  -22.8081 C   0  0  0  0  0  0  0  0  0  0  0  0
  -15.1955   12.0433  -23.5217 O   0  0  0  0  0  0  0  0  0  0  0  0
  -16.4547   11.7529  -21.6770 N   0  0  0  0  0  0  0  0  0  0  0  0
  -15.6719   10.5953  -21.2479 C   0  0  0  0  0  0  0  0  0  0  0  0
  -17.4816   12.1191  -20.8829 C   0  0  0  0  0  0  0  0  0  0  0  0
  -17.7926   11.4789  -19.7566 N   0  0  0  0  0  0  0  0  0  0  0  0
  -16.5843   14.2457  -24.4579 C   0  0  0  0  0  0  0  0  0  0  0  0
  -16.9739   13.7367  -25.6788 C   0  0  0  0  0  0  0  0  0  0  0  0
  -17.8289   12.2140  -25.8085 Cl  0  0  0  0  0  0  0  0  0  0  0  0
  -16.7019   14.4155  -26.8584 C   0  0  0  0  0  0  0  0  0  0  0  0
  -16.0261   15.6329  -26.8449 C   0  0  0  0  0  0  0  0  0  0  0  0
  -15.6355   16.1430  -25.6195 C   0  0  0  0  0  0  0  0  0  0  0  0
  -15.9194   15.4472  -24.4671 C   0  0  0  0  0  0  0  0  0  0  0  0
  -15.4053   16.1326  -22.9426 Cl  0  0  0  0  0  0  0  0  0  0  0  0
  -19.1294   11.1357  -17.7289 N   0  0  0  0  0  0  0  0  0  0  0  0
  -18.5547   10.2540  -17.5369 H   0  0  0  0  0  0  0  0  0  0  0  0
  -22.0903   12.0098  -14.8131 C   0  0  0  0  0  0  0  0  0  0  0  0
  -21.8008   10.7313  -15.2322 C   0  0  0  0  0  0  0  0  0  0  0  0
  -20.8412   10.4627  -16.1813 C   0  0  0  0  0  0  0  0  0  0  0  0
  -20.0985   11.4949  -16.7780 C   0  0  0  0  0  0  0  0  0  0  0  0
  -20.4003   12.7602  -16.3477 C   0  0  0  0  0  0  0  0  0  0  0  0
  -21.3804   13.0301  -15.3792 C   0  0  0  0  0  0  0  0  0  0  0  0
  -25.2630   13.8689  -11.0648 C   0  0  0  0  0  0  0  0  0  0  0  0
  -25.1226   12.6384  -11.8426 N   0  0  0  0  0  0  0  0  0  0  0  0
  -23.7885   12.1384  -11.5738 C   0  0  0  0  0  0  0  0  0  0  0  0
  -22.8124   12.8129  -12.5164 C   0  0  0  0  0  0  0  0  0  0  0  0
  -23.0724   12.3037  -13.8463 N   0  0  0  0  0  0  0  0  0  0  0  0
  -24.4946   12.1014  -14.1526 C   0  0  0  0  0  0  0  0  0  0  0  0
  -25.3044   12.9849  -13.2291 C   0  0  0  0  0  0  0  0  0  0  0  0
 29 30  1  0  0  0
 30 31  1  0  0  0
 31 32  1  0  0  0
 32 33  1  0  0  0
 33 34  1  0  0  0
 34 35  1  0  0  0
 33 23  1  0  0  0
 23 24  2  0  0  0
 24 25  1  0  0  0
 25 26  2  0  0  0
 26 21  1  0  0  0
 21  1  1  0  0  0
  1  2  2  0  0  0
  2  3  1  0  0  0
  3  4  2  0  0  0
  4  5  1  0  0  0
  5  6  2  0  0  0
  6 13  1  0  0  0
 13 14  2  0  0  0
 14 15  1  0  0  0
 14 16  1  0  0  0
 16 17  2  0  0  0
 17 18  1  0  0  0
 18 19  2  0  0  0
 19 20  1  0  0  0
  6  7  1  0  0  0
  7  8  2  0  0  0
  7  9  1  0  0  0
  9 10  1  0  0  0
  9 11  1  0  0  0
 11 12  2  0  0  0
 26 27  1  0  0  0
 27 28  2  0  0  0
 35 30  1  0  0  0
 28 23  1  0  0  0
 12  1  1  0  0  0
 11  4  1  0  0  0
 19 13  1  0  0  0
 21 22  1  0  0  0
M  END
> <minimizedAffinity>
-9.35832

> <CNNscore>
0.3927334249

> <CNNaffinity>
6.9250564575

> <CNN_VS>
2.7197010517

> <CNNaffinity_variance>
0.1764394343

$$$$
[H]c1c([H])c(Cl)c(-c2c([H])c3c([H])nc(N([H])c4c([H])c([H])c(N5C([H])([H])C([H])([H])N(C([H])([H])[H])C([H])([H])C5([H])[H])c([H])c4[H])nc3n(C([H])([H])[H])c2=O)c(Cl)c1[H]


 35 39  0  0  0  0  0  0  0  0999 V2000
  -18.7512   11.7221  -18.8512 C   0  0  0  0  0  0  0  0  0  0  0  0
  -19.4970   12.8026  -19.2564 N   0  0  0  0  0  0  0  0  0  0  0  0
  -19.2529   13.4825  -20.3761 C   0  0  0  0  0  0  0  0  0  0  0  0
  -18.2238   13.1310  -21.1975 C   0  0  0  0  0  0  0  0  0  0  0  0
  -17.9410   13.8203  -22.3743 C   0  0  0  0  0  0  0  0  0  0  0  0
  -16.8910   13.4338  -23.1779 C   0  0  0  0  0  0  0  0  0  0  0  0
  -16.1590   12.3495  -22.7516 C   0  0  0  0  0  0  0  0  0  0  0  0
  -15.1938   11.9786  -23.4717 O   0  0  0  0  0  0  0  0  0  0  0  0
  -16.4350   11.6866  -21.6152 N   0  0  0  0  0  0  0  0  0  0  0  0
  -15.6395   10.5371  -21.1876 C   0  0  0  0  0  0  0  0  0  0  0  0
  -17.4580   12.0482  -20.8140 C   0  0  0  0  0  0  0  0  0  0  0  0
  -17.7545   11.4107  -19.6823 N   0  0  0  0  0  0  0  0  0  0  0  0
  -16.6078   14.1657  -24.4059 C   0  0  0  0  0  0  0  0  0  0  0  0
  -15.9186   15.3588  -24.3513 C   0  0  0  0  0  0  0  0  0  0  0  0
  -15.3654   16.0312  -22.8320 Cl  0  0  0  0  0  0  0  0  0  0  0  0
  -15.6353   16.0766  -25.5049 C   0  0  0  0  0  0  0  0  0  0  0  0
  -16.0392   15.6131  -26.7543 C   0  0  0  0  0  0  0  0  0  0  0  0
  -16.7307   14.4160  -26.8083 C   0  0  0  0  0  0  0  0  0  0  0  0
  -16.9967   13.7269  -25.6477 C   0  0  0  0  0  0  0  0  0  0  0  0
  -17.8736   12.2186  -25.7671 Cl  0  0  0  0  0  0  0  0  0  0  0  0
  -19.0713   11.0661  -17.6418 N   0  0  0  0  0  0  0  0  0  0  0  0
  -18.4283   10.2444  -17.4054 H   0  0  0  0  0  0  0  0  0  0  0  0
  -22.1561   12.1690  -14.9399 C   0  0  0  0  0  0  0  0  0  0  0  0
  -21.3195   13.0819  -15.5406 C   0  0  0  0  0  0  0  0  0  0  0  0
  -20.3210   12.7100  -16.4114 C   0  0  0  0  0  0  0  0  0  0  0  0
  -20.1028   11.3608  -16.7354 C   0  0  0  0  0  0  0  0  0  0  0  0
  -20.9455   10.4672  -16.1283 C   0  0  0  0  0  0  0  0  0  0  0  0
  -21.9631   10.8506  -15.2401 C   0  0  0  0  0  0  0  0  0  0  0  0
  -26.2276   12.6392  -11.6574 C   0  0  0  0  0  0  0  0  0  0  0  0
  -25.2594   13.5242  -12.3043 N   0  0  0  0  0  0  0  0  0  0  0  0
  -25.4131   13.3200  -13.7314 C   0  0  0  0  0  0  0  0  0  0  0  0
  -24.5682   12.1342  -14.1513 C   0  0  0  0  0  0  0  0  0  0  0  0
  -23.1803   12.5312  -14.0424 N   0  0  0  0  0  0  0  0  0  0  0  0
  -22.8790   13.3763  -12.8796 C   0  0  0  0  0  0  0  0  0  0  0  0
  -23.9511   13.1417  -11.8379 C   0  0  0  0  0  0  0  0  0  0  0  0
 29 30  1  0  0  0
 30 31  1  0  0  0
 31 32  1  0  0  0
 32 33  1  0  0  0
 33 34  1  0  0  0
 34 35  1  0  0  0
 33 23  1  0  0  0
 23 24  2  0  0  0
 24 25  1  0  0  0
 25 26  2  0  0  0
 26 21  1  0  0  0
 21  1  1  0  0  0
  1  2  2  0  0  0
  2  3  1  0  0  0
  3  4  2  0  0  0
  4  5  1  0  0  0
  5  6  2  0  0  0
  6 13  1  0  0  0
 13 14  2  0  0  0
 14 15  1  0  0  0
 14 16  1  0  0  0
 16 17  2  0  0  0
 17 18  1  0  0  0
 18 19  2  0  0  0
 19 20  1  0  0  0
  6  7  1  0  0  0
  7  8  2  0  0  0
  7  9  1  0  0  0
  9 10  1  0  0  0
  9 11  1  0  0  0
 11 12  2  0  0  0
 26 27  1  0  0  0
 27 28  2  0  0  0
 35 30  1  0  0  0
 28 23  1  0  0  0
 12  1  1  0  0  0
 11  4  1  0  0  0
 19 13  1  0  0  0
 21 22  1  0  0  0
M  END
> <minimizedAffinity>
-9.36666

> <CNNscore>
0.3717282414

> <CNNaffinity>
6.9342031479

> <CNN_VS>
2.5776391029

> <CNNaffinity_variance>
0.1551069319

$$$$
[H]c1c([H])c(Cl)c(-c2c([H])c3c([H])nc(N([H])c4c([H])c([H])c(N5C([H])([H])C([H])([H])N(C([H])([H])[H])C([H])([H])C5([H])[H])c([H])c4[H])nc3n(C([H])([H])[H])c2=O)c(Cl)c1[H]


 35 39  0  0  0  0  0  0  0  0999 V2000
  -18.8570   10.3354  -17.5370 C   0  0  0  0  0  0  0  0  0  0  0  0
  -17.6565   10.0061  -18.1185 N   0  0  0  0  0  0  0  0  0  0  0  0
  -17.0811   10.7352  -19.0740 C   0  0  0  0  0  0  0  0  0  0  0  0
  -17.6702   11.8744  -19.5348 C   0  0  0  0  0  0  0  0  0  0  0  0
  -17.0963   12.6590  -20.5325 C   0  0  0  0  0  0  0  0  0  0  0  0
  -17.7238   13.8039  -20.9715 C   0  0  0  0  0  0  0  0  0  0  0  0
  -18.9243   14.1131  -20.3744 C   0  0  0  0  0  0  0  0  0  0  0  0
  -19.5156   15.1565  -20.7609 O   0  0  0  0  0  0  0  0  0  0  0  0
  -19.4751   13.3535  -19.4118 N   0  0  0  0  0  0  0  0  0  0  0  0
  -20.7524   13.7074  -18.7951 C   0  0  0  0  0  0  0  0  0  0  0  0
  -18.8778   12.2288  -18.9673 C   0  0  0  0  0  0  0  0  0  0  0  0
  -19.4002   11.4566  -18.0156 N   0  0  0  0  0  0  0  0  0  0  0  0
  -17.1105   14.6137  -22.0165 C   0  0  0  0  0  0  0  0  0  0  0  0
  -17.0885   14.1557  -23.3169 C   0  0  0  0  0  0  0  0  0  0  0  0
  -17.7837   12.6102  -23.7581 Cl  0  0  0  0  0  0  0  0  0  0  0  0
  -16.5111   14.9059  -24.3318 C   0  0  0  0  0  0  0  0  0  0  0  0
  -15.9356   16.1460  -24.0672 C   0  0  0  0  0  0  0  0  0  0  0  0
  -15.9580   16.6051  -22.7622 C   0  0  0  0  0  0  0  0  0  0  0  0
  -16.5377   15.8387  -21.7775 C   0  0  0  0  0  0  0  0  0  0  0  0
  -16.5416   16.4615  -20.1434 Cl  0  0  0  0  0  0  0  0  0  0  0  0
  -19.4028    9.4983  -16.5387 N   0  0  0  0  0  0  0  0  0  0  0  0
  -19.4050    8.4588  -16.7912 H   0  0  0  0  0  0  0  0  0  0  0  0
  -21.1075   10.7351  -12.8511 C   0  0  0  0  0  0  0  0  0  0  0  0
  -21.3737   11.3570  -14.0497 C   0  0  0  0  0  0  0  0  0  0  0  0
  -20.8109   10.9481  -15.2370 C   0  0  0  0  0  0  0  0  0  0  0  0
  -19.9241    9.8598  -15.2855 C   0  0  0  0  0  0  0  0  0  0  0  0
  -19.6719    9.2534  -14.0831 C   0  0  0  0  0  0  0  0  0  0  0  0
  -20.2480    9.6739  -12.8737 C   0  0  0  0  0  0  0  0  0  0  0  0
  -23.8577   12.6402   -8.8040 C   0  0  0  0  0  0  0  0  0  0  0  0
  -22.5738   11.9716   -9.0125 N   0  0  0  0  0  0  0  0  0  0  0  0
  -21.8218   12.8120   -9.9237 C   0  0  0  0  0  0  0  0  0  0  0  0
  -22.2054   12.4592  -11.3466 C   0  0  0  0  0  0  0  0  0  0  0  0
  -21.6707   11.1431  -11.6256 N   0  0  0  0  0  0  0  0  0  0  0  0
  -21.7543   10.2020  -10.5011 C   0  0  0  0  0  0  0  0  0  0  0  0
  -22.8525   10.6743   -9.5737 C   0  0  0  0  0  0  0  0  0  0  0  0
 29 30  1  0  0  0
 30 31  1  0  0  0
 31 32  1  0  0  0
 32 33  1  0  0  0
 33 34  1  0  0  0
 34 35  1  0  0  0
 33 23  1  0  0  0
 23 24  2  0  0  0
 24 25  1  0  0  0
 25 26  2  0  0  0
 26 21  1  0  0  0
 21  1  1  0  0  0
  1  2  2  0  0  0
  2  3  1  0  0  0
  3  4  2  0  0  0
  4  5  1  0  0  0
  5  6  2  0  0  0
  6 13  1  0  0  0
 13 14  2  0  0  0
 14 15  1  0  0  0
 14 16  1  0  0  0
 16 17  2  0  0  0
 17 18  1  0  0  0
 18 19  2  0  0  0
 19 20  1  0  0  0
  6  7  1  0  0  0
  7  8  2  0  0  0
  7  9  1  0  0  0
  9 10  1  0  0  0
  9 11  1  0  0  0
 11 12  2  0  0  0
 26 27  1  0  0  0
 27 28  2  0  0  0
 35 30  1  0  0  0
 28 23  1  0  0  0
 12  1  1  0  0  0
 11  4  1  0  0  0
 19 13  1  0  0  0
 21 22  1  0  0  0
M  END
> <minimizedAffinity>
-8.07500

> <CNNscore>
0.3297190964

> <CNNaffinity>
6.8806543350

> <CNN_VS>
2.2686831951

> <CNNaffinity_variance>
0.2035352737

$$$$
[H]c1c([H])c(Cl)c(-c2c([H])c3c([H])nc(N([H])c4c([H])c([H])c(N5C([H])([H])C([H])([H])N(C([H])([H])[H])C([H])([H])C5([H])[H])c([H])c4[H])nc3n(C([H])([H])[H])c2=O)c(Cl)c1[H]


 35 39  0  0  0  0  0  0  0  0999 V2000
  -19.2179   13.1605  -18.9203 C   0  0  0  0  0  0  0  0  0  0  0  0
  -19.7966   14.2534  -19.5188 N   0  0  0  0  0  0  0  0  0  0  0  0
  -19.4565   14.6903  -20.7310 C   0  0  0  0  0  0  0  0  0  0  0  0
  -18.4920   14.0581  -21.4571 C   0  0  0  0  0  0  0  0  0  0  0  0
  -18.1123   14.4888  -22.7261 C   0  0  0  0  0  0  0  0  0  0  0  0
  -17.1323   13.8224  -23.4283 C   0  0  0  0  0  0  0  0  0  0  0  0
  -16.5679   12.7312  -22.8087 C   0  0  0  0  0  0  0  0  0  0  0  0
  -15.6693   12.1067  -23.4332 O   0  0  0  0  0  0  0  0  0  0  0  0
  -16.9369   12.3184  -21.5837 N   0  0  0  0  0  0  0  0  0  0  0  0
  -16.3193   11.1547  -20.9502 C   0  0  0  0  0  0  0  0  0  0  0  0
  -17.8940   12.9562  -20.8790 C   0  0  0  0  0  0  0  0  0  0  0  0
  -18.2795   12.5703  -19.6635 N   0  0  0  0  0  0  0  0  0  0  0  0
  -16.7461   14.2859  -24.7549 C   0  0  0  0  0  0  0  0  0  0  0  0
  -15.9386   15.3958  -24.8869 C   0  0  0  0  0  0  0  0  0  0  0  0
  -15.3548   16.2780  -23.4915 Cl  0  0  0  0  0  0  0  0  0  0  0  0
  -15.5555   15.8591  -26.1378 C   0  0  0  0  0  0  0  0  0  0  0  0
  -15.9756   15.2162  -27.2994 C   0  0  0  0  0  0  0  0  0  0  0  0
  -16.7858   14.1026  -27.1662 C   0  0  0  0  0  0  0  0  0  0  0  0
  -17.1490   13.6670  -25.9128 C   0  0  0  0  0  0  0  0  0  0  0  0
  -18.1741   12.2551  -25.7957 Cl  0  0  0  0  0  0  0  0  0  0  0  0
  -19.6294   12.7731  -17.6257 N   0  0  0  0  0  0  0  0  0  0  0  0
  -19.8481   13.5913  -16.9720 H   0  0  0  0  0  0  0  0  0  0  0  0
  -20.2979    8.9103  -15.9931 C   0  0  0  0  0  0  0  0  0  0  0  0
  -21.1401    9.9765  -15.7735 C   0  0  0  0  0  0  0  0  0  0  0  0
  -20.9090   11.2243  -16.3056 C   0  0  0  0  0  0  0  0  0  0  0  0
  -19.7861   11.4756  -17.1112 C   0  0  0  0  0  0  0  0  0  0  0  0
  -18.9600   10.4024  -17.3189 C   0  0  0  0  0  0  0  0  0  0  0  0
  -19.1992    9.1308  -16.7739 C   0  0  0  0  0  0  0  0  0  0  0  0
  -21.0535    3.8417  -14.8483 C   0  0  0  0  0  0  0  0  0  0  0  0
  -21.0945    5.1217  -14.1421 N   0  0  0  0  0  0  0  0  0  0  0  0
  -22.0800    5.9331  -14.8295 C   0  0  0  0  0  0  0  0  0  0  0  0
  -21.4130    6.6304  -15.9979 C   0  0  0  0  0  0  0  0  0  0  0  0
  -20.5162    7.6274  -15.4526 N   0  0  0  0  0  0  0  0  0  0  0  0
  -19.8034    7.2057  -14.2396 C   0  0  0  0  0  0  0  0  0  0  0  0
  -19.7739    5.6931  -14.2139 C   0  0  0  0  0  0  0  0  0  0  0  0
 29 30  1  0  0  0
 30 31  1  0  0  0
 31 32  1  0  0  0
 32 33  1  0  0  0
 33 34  1  0  0  0
 34 35  1  0  0  0
 33 23  1  0  0  0
 23 24  2  0  0  0
 24 25  1  0  0  0
 25 26  2  0  0  0
 26 21  1  0  0  0
 21  1  1  0  0  0
  1  2  2  0  0  0
  2  3  1  0  0  0
  3  4  2  0  0  0
  4  5  1  0  0  0
  5  6  2  0  0  0
  6 13  1  0  0  0
 13 14  2  0  0  0
 14 15  1  0  0  0
 14 16  1  0  0  0
 16 17  2  0  0  0
 17 18  1  0  0  0
 18 19  2  0  0  0
 19 20  1  0  0  0
  6  7  1  0  0  0
  7  8  2  0  0  0
  7  9  1  0  0  0
  9 10  1  0  0  0
  9 11  1  0  0  0
 11 12  2  0  0  0
 26 27  1  0  0  0
 27 28  2  0  0  0
 35 30  1  0  0  0
 28 23  1  0  0  0
 12  1  1  0  0  0
 11  4  1  0  0  0
 19 13  1  0  0  0
 21 22  1  0  0  0
M  END
> <minimizedAffinity>
-10.29024

> <CNNscore>
0.3096068203

> <CNNaffinity>
7.2428069115

> <CNN_VS>
2.2424223423

> <CNNaffinity_variance>
0.1707640588

$$$$
[H]c1c([H])c(Cl)c(-c2c([H])c3c([H])nc(N([H])c4c([H])c([H])c(N5C([H])([H])C([H])([H])N(C([H])([H])[H])C([H])([H])C5([H])[H])c([H])c4[H])nc3n(C([H])([H])[H])c2=O)c(Cl)c1[H]


 35 39  0  0  0  0  0  0  0  0999 V2000
  -18.2463    9.7816  -17.8334 C   0  0  0  0  0  0  0  0  0  0  0  0
  -18.5092    8.6469  -17.1046 N   0  0  0  0  0  0  0  0  0  0  0  0
  -19.4406    8.5867  -16.1536 C   0  0  0  0  0  0  0  0  0  0  0  0
  -20.1995    9.6766  -15.8480 C   0  0  0  0  0  0  0  0  0  0  0  0
  -21.1806    9.6480  -14.8597 C   0  0  0  0  0  0  0  0  0  0  0  0
  -21.9267   10.7717  -14.5801 C   0  0  0  0  0  0  0  0  0  0  0  0
  -21.6455   11.8953  -15.3228 C   0  0  0  0  0  0  0  0  0  0  0  0
  -22.3163   12.9348  -15.0836 O   0  0  0  0  0  0  0  0  0  0  0  0
  -20.6978   11.9192  -16.2759 N   0  0  0  0  0  0  0  0  0  0  0  0
  -20.4213   13.1283  -17.0496 C   0  0  0  0  0  0  0  0  0  0  0  0
  -19.9560   10.8307  -16.5656 C   0  0  0  0  0  0  0  0  0  0  0  0
  -19.0102   10.8251  -17.5039 N   0  0  0  0  0  0  0  0  0  0  0  0
  -22.9492   10.7256  -13.5427 C   0  0  0  0  0  0  0  0  0  0  0  0
  -24.2215   10.2922  -13.8506 C   0  0  0  0  0  0  0  0  0  0  0  0
  -24.6530    9.7886  -15.4713 Cl  0  0  0  0  0  0  0  0  0  0  0  0
  -25.2146   10.2383  -12.8826 C   0  0  0  0  0  0  0  0  0  0  0  0
  -24.9559   10.6209  -11.5689 C   0  0  0  0  0  0  0  0  0  0  0  0
  -23.6791   11.0556  -11.2606 C   0  0  0  0  0  0  0  0  0  0  0  0
  -22.7155   11.0981  -12.2416 C   0  0  0  0  0  0  0  0  0  0  0  0
  -21.1167   11.6547  -11.8032 Cl  0  0  0  0  0  0  0  0  0  0  0  0
  -17.2310    9.7619  -18.8154 N   0  0  0  0  0  0  0  0  0  0  0  0
  -16.5225    8.9690  -18.6976 H   0  0  0  0  0  0  0  0  0  0  0  0
  -16.5317   12.2621  -22.1759 C   0  0  0  0  0  0  0  0  0  0  0  0
  -15.7672   11.1539  -21.8900 C   0  0  0  0  0  0  0  0  0  0  0  0
  -16.0026   10.3547  -20.7949 C   0  0  0  0  0  0  0  0  0  0  0  0
  -17.0500   10.6338  -19.9015 C   0  0  0  0  0  0  0  0  0  0  0  0
  -17.8000   11.7402  -20.2028 C   0  0  0  0  0  0  0  0  0  0  0  0
  -17.5564   12.5533  -21.3212 C   0  0  0  0  0  0  0  0  0  0  0  0
  -16.3068   15.9111  -25.9451 C   0  0  0  0  0  0  0  0  0  0  0  0
  -15.7600   14.5758  -25.7065 N   0  0  0  0  0  0  0  0  0  0  0  0
  -16.8989   13.6978  -25.5222 C   0  0  0  0  0  0  0  0  0  0  0  0
  -17.3295   13.7508  -24.0702 C   0  0  0  0  0  0  0  0  0  0  0  0
  -16.3022   13.0943  -23.2896 N   0  0  0  0  0  0  0  0  0  0  0  0
  -14.9308   13.3595  -23.7438 C   0  0  0  0  0  0  0  0  0  0  0  0
  -14.9372   14.6544  -24.5265 C   0  0  0  0  0  0  0  0  0  0  0  0
 29 30  1  0  0  0
 30 31  1  0  0  0
 31 32  1  0  0  0
 32 33  1  0  0  0
 33 34  1  0  0  0
 34 35  1  0  0  0
 33 23  1  0  0  0
 23 24  2  0  0  0
 24 25  1  0  0  0
 25 26  2  0  0  0
 26 21  1  0  0  0
 21  1  1  0  0  0
  1  2  2  0  0  0
  2  3  1  0  0  0
  3  4  2  0  0  0
  4  5  1  0  0  0
  5  6  2  0  0  0
  6 13  1  0  0  0
 13 14  2  0  0  0
 14 15  1  0  0  0
 14 16  1  0  0  0
 16 17  2  0  0  0
 17 18  1  0  0  0
 18 19  2  0  0  0
 19 20  1  0  0  0
  6  7  1  0  0  0
  7  8  2  0  0  0
  7  9  1  0  0  0
  9 10  1  0  0  0
  9 11  1  0  0  0
 11 12  2  0  0  0
 26 27  1  0  0  0
 27 28  2  0  0  0
 35 30  1  0  0  0
 28 23  1  0  0  0
 12  1  1  0  0  0
 11  4  1  0  0  0
 19 13  1  0  0  0
 21 22  1  0  0  0
M  END
> <minimizedAffinity>
-9.18228

> <CNNscore>
0.2447080761

> <CNNaffinity>
6.4979934692

> <CNN_VS>
1.5901114941

> <CNNaffinity_variance>
0.0959377661

$$$$
[H]c1c([H])c(Cl)c(-c2c([H])c3c([H])nc(N([H])c4c([H])c([H])c(N5C([H])([H])C([H])([H])N(C([H])([H])[H])C([H])([H])C5([H])[H])c([H])c4[H])nc3n(C([H])([H])[H])c2=O)c(Cl)c1[H]


 35 39  0  0  0  0  0  0  0  0999 V2000
  -18.2019    9.8605  -17.9547 C   0  0  0  0  0  0  0  0  0  0  0  0
  -18.4422    8.7015  -17.2571 N   0  0  0  0  0  0  0  0  0  0  0  0
  -19.3618    8.6012  -16.2980 C   0  0  0  0  0  0  0  0  0  0  0  0
  -20.1307    9.6717  -15.9517 C   0  0  0  0  0  0  0  0  0  0  0  0
  -21.1000    9.6012  -14.9538 C   0  0  0  0  0  0  0  0  0  0  0  0
  -21.8568   10.7064  -14.6326 C   0  0  0  0  0  0  0  0  0  0  0  0
  -21.5984   11.8550  -15.3446 C   0  0  0  0  0  0  0  0  0  0  0  0
  -22.2794   12.8783  -15.0672 O   0  0  0  0  0  0  0  0  0  0  0  0
  -20.6621   11.9194  -16.3071 N   0  0  0  0  0  0  0  0  0  0  0  0
  -20.4097   13.1543  -17.0475 C   0  0  0  0  0  0  0  0  0  0  0  0
  -19.9100   10.8495  -16.6373 C   0  0  0  0  0  0  0  0  0  0  0  0
  -18.9751   10.8839  -17.5858 N   0  0  0  0  0  0  0  0  0  0  0  0
  -22.8667   10.6164  -13.5857 C   0  0  0  0  0  0  0  0  0  0  0  0
  -22.5382   10.9343  -12.2848 C   0  0  0  0  0  0  0  0  0  0  0  0
  -20.9234   11.4496  -11.8452 Cl  0  0  0  0  0  0  0  0  0  0  0  0
  -23.4798   10.8574  -11.2682 C   0  0  0  0  0  0  0  0  0  0  0  0
  -24.7870   10.4563  -11.5314 C   0  0  0  0  0  0  0  0  0  0  0  0
  -25.1161   10.1375  -12.8369 C   0  0  0  0  0  0  0  0  0  0  0  0
  -24.1610   10.2234  -13.8234 C   0  0  0  0  0  0  0  0  0  0  0  0
  -24.6248    9.8102  -15.4581 Cl  0  0  0  0  0  0  0  0  0  0  0  0
  -17.1978    9.8830  -18.9480 N   0  0  0  0  0  0  0  0  0  0  0  0
  -16.4617    9.1137  -18.8447 H   0  0  0  0  0  0  0  0  0  0  0  0
  -16.6240   12.4303  -22.2970 C   0  0  0  0  0  0  0  0  0  0  0  0
  -15.8293   11.3369  -22.0378 C   0  0  0  0  0  0  0  0  0  0  0  0
  -16.0241   10.5221  -20.9462 C   0  0  0  0  0  0  0  0  0  0  0  0
  -17.0588   10.7691  -20.0288 C   0  0  0  0  0  0  0  0  0  0  0  0
  -17.8393   11.8611  -20.3037 C   0  0  0  0  0  0  0  0  0  0  0  0
  -17.6371   12.6902  -21.4186 C   0  0  0  0  0  0  0  0  0  0  0  0
  -15.0438   15.3371  -26.3744 C   0  0  0  0  0  0  0  0  0  0  0  0
  -16.2664   15.1550  -25.5927 N   0  0  0  0  0  0  0  0  0  0  0  0
  -15.9197   15.4638  -24.2193 C   0  0  0  0  0  0  0  0  0  0  0  0
  -15.3495   14.2212  -23.5656 C   0  0  0  0  0  0  0  0  0  0  0  0
  -16.4363   13.2781  -23.4068 N   0  0  0  0  0  0  0  0  0  0  0  0
  -17.3841   13.2479  -24.5284 C   0  0  0  0  0  0  0  0  0  0  0  0
  -16.6781   13.7839  -25.7546 C   0  0  0  0  0  0  0  0  0  0  0  0
 29 30  1  0  0  0
 30 31  1  0  0  0
 31 32  1  0  0  0
 32 33  1  0  0  0
 33 34  1  0  0  0
 34 35  1  0  0  0
 33 23  1  0  0  0
 23 24  2  0  0  0
 24 25  1  0  0  0
 25 26  2  0  0  0
 26 21  1  0  0  0
 21  1  1  0  0  0
  1  2  2  0  0  0
  2  3  1  0  0  0
  3  4  2  0  0  0
  4  5  1  0  0  0
  5  6  2  0  0  0
  6 13  1  0  0  0
 13 14  2  0  0  0
 14 15  1  0  0  0
 14 16  1  0  0  0
 16 17  2  0  0  0
 17 18  1  0  0  0
 18 19  2  0  0  0
 19 20  1  0  0  0
  6  7  1  0  0  0
  7  8  2  0  0  0
  7  9  1  0  0  0
  9 10  1  0  0  0
  9 11  1  0  0  0
 11 12  2  0  0  0
 26 27  1  0  0  0
 27 28  2  0  0  0
 35 30  1  0  0  0
 28 23  1  0  0  0
 12  1  1  0  0  0
 11  4  1  0  0  0
 19 13  1  0  0  0
 21 22  1  0  0  0
M  END
> <minimizedAffinity>
-9.13974

> <CNNscore>
0.2310136706

> <CNNaffinity>
6.5687799454

> <CNN_VS>
1.5174779892

> <CNNaffinity_variance>
0.0595711172

$$$$
[H]C([H])=C([H])C(=O)N([H])[C@]1([H])C([H])([H])C([H])([H])[C@]([H])(n2c([H])c(-c3c([H])c([H])c(Oc4c([H])c([H])c([H])c([H])c4[H])c([H])c3[H])c3c(N([H])[H])nc([H])nc32)C([H])([H])C1([H])[H]


 37 41  0  0  0  0  0  0  0  0999 V2000
  -16.6167    9.7000  -19.6754 N   0  0  0  0  0  0  0  0  0  0  0  0
  -16.4559   10.7206  -20.6455 C   0  0  0  0  0  0  0  0  0  0  0  0
  -15.5619   10.6234  -21.6407 N   0  0  0  0  0  0  0  0  0  0  0  0
  -15.4102   11.6115  -22.5305 C   0  0  0  0  0  0  0  0  0  0  0  0
  -16.1288   12.7420  -22.4852 N   0  0  0  0  0  0  0  0  0  0  0  0
  -17.0306   12.8652  -21.4997 C   0  0  0  0  0  0  0  0  0  0  0  0
  -17.8724   13.8682  -21.1982 N   0  0  0  0  0  0  0  0  0  0  0  0
  -18.5765   13.5526  -20.1247 C   0  0  0  0  0  0  0  0  0  0  0  0
  -18.2041   12.2811  -19.6705 C   0  0  0  0  0  0  0  0  0  0  0  0
  -17.2318   11.8551  -20.5370 C   0  0  0  0  0  0  0  0  0  0  0  0
  -16.9809    8.7555  -19.8433 H   0  0  0  0  0  0  0  0  0  0  0  0
  -16.3358    9.9315  -18.6867 H   0  0  0  0  0  0  0  0  0  0  0  0
  -18.7731   11.5604  -18.5489 C   0  0  0  0  0  0  0  0  0  0  0  0
  -19.7684   12.0415  -17.7247 C   0  0  0  0  0  0  0  0  0  0  0  0
  -20.3079   11.3443  -16.6689 C   0  0  0  0  0  0  0  0  0  0  0  0
  -19.8478   10.0767  -16.3849 C   0  0  0  0  0  0  0  0  0  0  0  0
  -18.8561    9.5589  -17.1813 C   0  0  0  0  0  0  0  0  0  0  0  0
  -18.3292   10.2682  -18.2307 C   0  0  0  0  0  0  0  0  0  0  0  0
  -20.3864    9.3513  -15.3121 O   0  0  0  0  0  0  0  0  0  0  0  0
  -20.4578    9.9603  -14.0675 C   0  0  0  0  0  0  0  0  0  0  0  0
  -21.5911   10.6066  -13.6142 C   0  0  0  0  0  0  0  0  0  0  0  0
  -21.6169   11.2008  -12.3640 C   0  0  0  0  0  0  0  0  0  0  0  0
  -20.5192   11.1711  -11.5270 C   0  0  0  0  0  0  0  0  0  0  0  0
  -19.3916   10.5301  -11.9736 C   0  0  0  0  0  0  0  0  0  0  0  0
  -19.3605    9.9300  -13.2321 C   0  0  0  0  0  0  0  0  0  0  0  0
  -17.9995   15.1062  -21.9268 C   0  0  0  0  0  0  0  0  0  0  0  0
  -18.2507   14.9591  -23.3836 C   0  0  0  0  0  0  0  0  0  0  0  0
  -18.4344   16.3917  -23.9221 C   0  0  0  0  0  0  0  0  0  0  0  0
  -17.0557   16.9905  -24.0801 C   0  0  0  0  0  0  0  0  0  0  0  0
  -16.1385   16.3480  -23.0845 C   0  0  0  0  0  0  0  0  0  0  0  0
  -16.8004   16.0208  -21.7635 C   0  0  0  0  0  0  0  0  0  0  0  0
  -16.5393   16.8067  -25.4089 N   0  0  0  0  0  0  0  0  0  0  0  0
  -15.7008   15.7256  -25.7838 C   0  0  0  0  0  0  0  0  0  0  0  0
  -15.3953   14.8856  -24.9056 O   0  0  0  0  0  0  0  0  0  0  0  0
  -16.7904   17.4987  -26.1355 H   0  0  0  0  0  0  0  0  0  0  0  0
  -15.1837   15.5475  -27.1257 C   0  0  0  0  0  0  0  0  0  0  0  0
  -15.9966   15.5050  -28.1617 C   0  0  0  0  0  0  0  0  0  0  0  0
  1  2  1  0  0  0
  2  3  2  0  0  0
  3  4  1  0  0  0
  4  5  2  0  0  0
  5  6  1  0  0  0
  6  7  1  0  0  0
  7  8  1  0  0  0
  8  9  2  0  0  0
  9 13  1  0  0  0
 13 14  2  0  0  0
 14 15  1  0  0  0
 15 16  2  0  0  0
 16 19  1  0  0  0
 19 20  1  0  0  0
 20 21  2  0  0  0
 21 22  1  0  0  0
 22 23  2  0  0  0
 23 24  1  0  0  0
 24 25  2  0  0  0
 16 17  1  0  0  0
 17 18  2  0  0  0
  9 10  1  0  0  0
  7 26  1  0  0  0
 26 27  1  0  0  0
 27 28  1  0  0  0
 28 29  1  0  0  0
 29 30  1  0  0  0
 30 31  1  0  0  0
 29 32  1  0  0  0
 32 33  1  0  0  0
 33 34  2  0  0  0
 33 36  1  0  0  0
 36 37  2  0  0  0
 10  2  1  0  0  0
 31 26  1  0  0  0
 10  6  2  0  0  0
 18 13  1  0  0  0
 25 20  1  0  0  0
  1 11  1  0  0  0
  1 12  1  0  0  0
 32 35  1  0  0  0
M  END
> <minimizedAffinity>
-10.23603

> <CNNscore>
0.9001125693

> <CNNaffinity>
7.5793085098

> <CNN_VS>
6.8222308159

> <CNNaffinity_variance>
0.0291548483

$$$$
[H]C([H])=C([H])C(=O)N([H])[C@]1([H])C([H])([H])C([H])([H])[C@]([H])(n2c([H])c(-c3c([H])c([H])c(Oc4c([H])c([H])c([H])c([H])c4[H])c([H])c3[H])c3c(N([H])[H])nc([H])nc32)C([H])([H])C1([H])[H]


 37 41  0  0  0  0  0  0  0  0999 V2000
  -17.3515    9.5754  -18.4672 N   0  0  0  0  0  0  0  0  0  0  0  0
  -16.8941   10.2841  -19.6061 C   0  0  0  0  0  0  0  0  0  0  0  0
  -16.0250    9.7492  -20.4767 N   0  0  0  0  0  0  0  0  0  0  0  0
  -15.5875   10.4472  -21.5314 C   0  0  0  0  0  0  0  0  0  0  0  0
  -15.9823   11.7035  -21.7813 N   0  0  0  0  0  0  0  0  0  0  0  0
  -16.8518   12.2626  -20.9262 C   0  0  0  0  0  0  0  0  0  0  0  0
  -17.4076   13.4859  -20.9115 N   0  0  0  0  0  0  0  0  0  0  0  0
  -18.2055   13.6010  -19.8637 C   0  0  0  0  0  0  0  0  0  0  0  0
  -18.1983   12.4085  -19.1292 C   0  0  0  0  0  0  0  0  0  0  0  0
  -17.3451   11.5724  -19.8003 C   0  0  0  0  0  0  0  0  0  0  0  0
  -17.9469    8.7397  -18.4716 H   0  0  0  0  0  0  0  0  0  0  0  0
  -17.0525    9.9401  -17.5251 H   0  0  0  0  0  0  0  0  0  0  0  0
  -18.9749   12.1184  -17.9400 C   0  0  0  0  0  0  0  0  0  0  0  0
  -19.5558   10.9009  -17.6542 C   0  0  0  0  0  0  0  0  0  0  0  0
  -20.2824   10.6344  -16.5172 C   0  0  0  0  0  0  0  0  0  0  0  0
  -20.4637   11.6262  -15.5778 C   0  0  0  0  0  0  0  0  0  0  0  0
  -19.9019   12.8550  -15.8231 C   0  0  0  0  0  0  0  0  0  0  0  0
  -19.1798   13.1038  -16.9627 C   0  0  0  0  0  0  0  0  0  0  0  0
  -21.2019   11.3721  -14.4126 O   0  0  0  0  0  0  0  0  0  0  0  0
  -20.7284   10.4211  -13.5202 C   0  0  0  0  0  0  0  0  0  0  0  0
  -21.3697    9.2184  -13.2975 C   0  0  0  0  0  0  0  0  0  0  0  0
  -20.8604    8.2987  -12.3967 C   0  0  0  0  0  0  0  0  0  0  0  0
  -19.6998    8.5453  -11.6906 C   0  0  0  0  0  0  0  0  0  0  0  0
  -19.0597    9.7388  -11.9090 C   0  0  0  0  0  0  0  0  0  0  0  0
  -19.5687   10.6685  -12.8153 C   0  0  0  0  0  0  0  0  0  0  0  0
  -17.1781   14.5249  -21.8848 C   0  0  0  0  0  0  0  0  0  0  0  0
  -16.6163   15.7878  -21.3402 C   0  0  0  0  0  0  0  0  0  0  0  0
  -16.3800   16.6997  -22.5604 C   0  0  0  0  0  0  0  0  0  0  0  0
  -17.7163   17.2957  -22.9390 C   0  0  0  0  0  0  0  0  0  0  0  0
  -18.7981   16.3436  -22.5281 C   0  0  0  0  0  0  0  0  0  0  0  0
  -18.4204   14.8858  -22.6770 C   0  0  0  0  0  0  0  0  0  0  0  0
  -17.9296   18.5743  -22.3178 N   0  0  0  0  0  0  0  0  0  0  0  0
  -18.8308   19.5498  -22.8164 C   0  0  0  0  0  0  0  0  0  0  0  0
  -19.4755   19.2787  -23.8562 O   0  0  0  0  0  0  0  0  0  0  0  0
  -17.3988   18.8000  -21.4593 H   0  0  0  0  0  0  0  0  0  0  0  0
  -19.0401   20.8370  -22.1847 C   0  0  0  0  0  0  0  0  0  0  0  0
  -19.5960   21.8311  -22.8471 C   0  0  0  0  0  0  0  0  0  0  0  0
  1  2  1  0  0  0
  2  3  2  0  0  0
  3  4  1  0  0  0
  4  5  2  0  0  0
  5  6  1  0  0  0
  6  7  1  0  0  0
  7  8  1  0  0  0
  8  9  2  0  0  0
  9 13  1  0  0  0
 13 14  2  0  0  0
 14 15  1  0  0  0
 15 16  2  0  0  0
 16 19  1  0  0  0
 19 20  1  0  0  0
 20 21  2  0  0  0
 21 22  1  0  0  0
 22 23  2  0  0  0
 23 24  1  0  0  0
 24 25  2  0  0  0
 16 17  1  0  0  0
 17 18  2  0  0  0
  9 10  1  0  0  0
  7 26  1  0  0  0
 26 27  1  0  0  0
 27 28  1  0  0  0
 28 29  1  0  0  0
 29 30  1  0  0  0
 30 31  1  0  0  0
 29 32  1  0  0  0
 32 33  1  0  0  0
 33 34  2  0  0  0
 33 36  1  0  0  0
 36 37  2  0  0  0
 10  2  1  0  0  0
 31 26  1  0  0  0
 10  6  2  0  0  0
 18 13  1  0  0  0
 25 20  1  0  0  0
  1 11  1  0  0  0
  1 12  1  0  0  0
 32 35  1  0  0  0
M  END
> <minimizedAffinity>
-8.55530

> <CNNscore>
0.8565533161

> <CNNaffinity>
7.4760103226

> <CNN_VS>
6.4036016464

> <CNNaffinity_variance>
0.1052530259

$$$$
[H]C([H])=C([H])C(=O)N([H])[C@]1([H])C([H])([H])C([H])([H])[C@]([H])(n2c([H])c(-c3c([H])c([H])c(Oc4c([H])c([H])c([H])c([H])c4[H])c([H])c3[H])c3c(N([H])[H])nc([H])nc32)C([H])([H])C1([H])[H]


 37 41  0  0  0  0  0  0  0  0999 V2000
  -16.5214    9.7568  -19.6590 N   0  0  0  0  0  0  0  0  0  0  0  0
  -16.4104   10.7478  -20.6659 C   0  0  0  0  0  0  0  0  0  0  0  0
  -15.5666   10.6208  -21.7009 N   0  0  0  0  0  0  0  0  0  0  0  0
  -15.4606   11.5819  -22.6263 C   0  0  0  0  0  0  0  0  0  0  0  0
  -16.1778   12.7132  -22.5793 N   0  0  0  0  0  0  0  0  0  0  0  0
  -17.0299   12.8658  -21.5545 C   0  0  0  0  0  0  0  0  0  0  0  0
  -17.8572   13.8774  -21.2419 N   0  0  0  0  0  0  0  0  0  0  0  0
  -18.5068   13.5941  -20.1258 C   0  0  0  0  0  0  0  0  0  0  0  0
  -18.1105   12.3368  -19.6528 C   0  0  0  0  0  0  0  0  0  0  0  0
  -17.1817   11.8851  -20.5532 C   0  0  0  0  0  0  0  0  0  0  0  0
  -16.8921    8.8077  -19.7803 H   0  0  0  0  0  0  0  0  0  0  0  0
  -16.1923   10.0178  -18.6928 H   0  0  0  0  0  0  0  0  0  0  0  0
  -18.6222   11.6501  -18.4833 C   0  0  0  0  0  0  0  0  0  0  0  0
  -18.4343   10.3120  -18.2084 C   0  0  0  0  0  0  0  0  0  0  0  0
  -18.9164    9.6732  -17.0898 C   0  0  0  0  0  0  0  0  0  0  0  0
  -19.6407   10.3857  -16.1588 C   0  0  0  0  0  0  0  0  0  0  0  0
  -19.8518   11.7221  -16.3937 C   0  0  0  0  0  0  0  0  0  0  0  0
  -19.3634   12.3437  -17.5150 C   0  0  0  0  0  0  0  0  0  0  0  0
  -20.1401    9.7505  -15.0124 O   0  0  0  0  0  0  0  0  0  0  0  0
  -20.8621    8.5756  -15.1649 C   0  0  0  0  0  0  0  0  0  0  0  0
  -20.2917    7.3243  -15.0374 C   0  0  0  0  0  0  0  0  0  0  0  0
  -21.0516    6.1783  -15.1983 C   0  0  0  0  0  0  0  0  0  0  0  0
  -22.3996    6.2401  -15.4903 C   0  0  0  0  0  0  0  0  0  0  0  0
  -22.9700    7.4812  -15.6178 C   0  0  0  0  0  0  0  0  0  0  0  0
  -22.2089    8.6386  -15.4567 C   0  0  0  0  0  0  0  0  0  0  0  0
  -18.0222   15.0930  -22.0000 C   0  0  0  0  0  0  0  0  0  0  0  0
  -18.2401   14.9041  -23.4573 C   0  0  0  0  0  0  0  0  0  0  0  0
  -18.4732   16.3158  -24.0309 C   0  0  0  0  0  0  0  0  0  0  0  0
  -17.1178   16.9682  -24.1780 C   0  0  0  0  0  0  0  0  0  0  0  0
  -16.1932   16.3864  -23.1524 C   0  0  0  0  0  0  0  0  0  0  0  0
  -16.8652   16.0603  -21.8362 C   0  0  0  0  0  0  0  0  0  0  0  0
  -16.5699   16.7777  -25.4932 N   0  0  0  0  0  0  0  0  0  0  0  0
  -15.6984   15.7116  -25.8347 C   0  0  0  0  0  0  0  0  0  0  0  0
  -15.3914   14.8920  -24.9379 O   0  0  0  0  0  0  0  0  0  0  0  0
  -16.8221   17.4528  -26.2350 H   0  0  0  0  0  0  0  0  0  0  0  0
  -15.1496   15.5264  -27.1629 C   0  0  0  0  0  0  0  0  0  0  0  0
  -15.9284   15.5594  -28.2252 C   0  0  0  0  0  0  0  0  0  0  0  0
  1  2  1  0  0  0
  2  3  2  0  0  0
  3  4  1  0  0  0
  4  5  2  0  0  0
  5  6  1  0  0  0
  6  7  1  0  0  0
  7  8  1  0  0  0
  8  9  2  0  0  0
  9 13  1  0  0  0
 13 14  2  0  0  0
 14 15  1  0  0  0
 15 16  2  0  0  0
 16 19  1  0  0  0
 19 20  1  0  0  0
 20 21  2  0  0  0
 21 22  1  0  0  0
 22 23  2  0  0  0
 23 24  1  0  0  0
 24 25  2  0  0  0
 16 17  1  0  0  0
 17 18  2  0  0  0
  9 10  1  0  0  0
  7 26  1  0  0  0
 26 27  1  0  0  0
 27 28  1  0  0  0
 28 29  1  0  0  0
 29 30  1  0  0  0
 30 31  1  0  0  0
 29 32  1  0  0  0
 32 33  1  0  0  0
 33 34  2  0  0  0
 33 36  1  0  0  0
 36 37  2  0  0  0
 10  2  1  0  0  0
 31 26  1  0  0  0
 10  6  2  0  0  0
 18 13  1  0  0  0
 25 20  1  0  0  0
  1 11  1  0  0  0
  1 12  1  0  0  0
 32 35  1  0  0  0
M  END
> <minimizedAffinity>
-10.20743

> <CNNscore>
0.8531452417

> <CNNaffinity>
7.6223640442

> <CNN_VS>
6.5029835701

> <CNNaffinity_variance>
0.0735947862

$$$$
[H]C([H])=C([H])C(=O)N([H])[C@]1([H])C([H])([H])C([H])([H])[C@]([H])(n2c([H])c(-c3c([H])c([H])c(Oc4c([H])c([H])c([H])c([H])c4[H])c([H])c3[H])c3c(N([H])[H])nc([H])nc32)C([H])([H])C1([H])[H]


 37 41  0  0  0  0  0  0  0  0999 V2000
  -17.2466    9.6094  -18.6451 N   0  0  0  0  0  0  0  0  0  0  0  0
  -16.7974   10.3304  -19.7794 C   0  0  0  0  0  0  0  0  0  0  0  0
  -15.9075    9.8185  -20.6427 N   0  0  0  0  0  0  0  0  0  0  0  0
  -15.4786   10.5283  -21.6932 C   0  0  0  0  0  0  0  0  0  0  0  0
  -15.9029   11.7743  -21.9457 N   0  0  0  0  0  0  0  0  0  0  0  0
  -16.7937   12.3105  -21.0979 C   0  0  0  0  0  0  0  0  0  0  0  0
  -17.3804   13.5193  -21.0873 N   0  0  0  0  0  0  0  0  0  0  0  0
  -18.1900   13.6133  -20.0464 C   0  0  0  0  0  0  0  0  0  0  0  0
  -18.1591   12.4207  -19.3126 C   0  0  0  0  0  0  0  0  0  0  0  0
  -17.2792   11.6071  -19.9768 C   0  0  0  0  0  0  0  0  0  0  0  0
  -17.8206    8.7589  -18.6552 H   0  0  0  0  0  0  0  0  0  0  0  0
  -16.9652    9.9807  -17.7001 H   0  0  0  0  0  0  0  0  0  0  0  0
  -18.9384   12.1101  -18.1305 C   0  0  0  0  0  0  0  0  0  0  0  0
  -19.2503   10.8368  -17.7028 C   0  0  0  0  0  0  0  0  0  0  0  0
  -19.9825   10.5539  -16.5733 C   0  0  0  0  0  0  0  0  0  0  0  0
  -20.4531   11.5865  -15.7915 C   0  0  0  0  0  0  0  0  0  0  0  0
  -20.1653   12.8713  -16.1815 C   0  0  0  0  0  0  0  0  0  0  0  0
  -19.4333   13.1358  -17.3112 C   0  0  0  0  0  0  0  0  0  0  0  0
  -21.2014   11.3165  -14.6364 O   0  0  0  0  0  0  0  0  0  0  0  0
  -21.7596   10.0552  -14.4861 C   0  0  0  0  0  0  0  0  0  0  0  0
  -21.3103    9.1442  -13.5503 C   0  0  0  0  0  0  0  0  0  0  0  0
  -21.8980    7.8960  -13.4360 C   0  0  0  0  0  0  0  0  0  0  0  0
  -22.9489    7.5150  -14.2465 C   0  0  0  0  0  0  0  0  0  0  0  0
  -23.3981    8.4171  -15.1773 C   0  0  0  0  0  0  0  0  0  0  0  0
  -22.8095    9.6757  -15.2965 C   0  0  0  0  0  0  0  0  0  0  0  0
  -17.1688   14.5647  -22.0579 C   0  0  0  0  0  0  0  0  0  0  0  0
  -16.6005   15.8253  -21.5149 C   0  0  0  0  0  0  0  0  0  0  0  0
  -16.3858   16.7450  -22.7332 C   0  0  0  0  0  0  0  0  0  0  0  0
  -17.7293   17.3407  -23.0862 C   0  0  0  0  0  0  0  0  0  0  0  0
  -18.8024   16.3841  -22.6634 C   0  0  0  0  0  0  0  0  0  0  0  0
  -18.4246   14.9279  -22.8273 C   0  0  0  0  0  0  0  0  0  0  0  0
  -17.9347   18.6151  -22.4538 N   0  0  0  0  0  0  0  0  0  0  0  0
  -18.8511   19.5889  -22.9274 C   0  0  0  0  0  0  0  0  0  0  0  0
  -19.5173   19.3202  -23.9541 O   0  0  0  0  0  0  0  0  0  0  0  0
  -17.3861   18.8390  -21.6060 H   0  0  0  0  0  0  0  0  0  0  0  0
  -19.0523   20.8719  -22.2845 C   0  0  0  0  0  0  0  0  0  0  0  0
  -19.7058   21.8382  -22.8970 C   0  0  0  0  0  0  0  0  0  0  0  0
  1  2  1  0  0  0
  2  3  2  0  0  0
  3  4  1  0  0  0
  4  5  2  0  0  0
  5  6  1  0  0  0
  6  7  1  0  0  0
  7  8  1  0  0  0
  8  9  2  0  0  0
  9 13  1  0  0  0
 13 14  2  0  0  0
 14 15  1  0  0  0
 15 16  2  0  0  0
 16 19  1  0  0  0
 19 20  1  0  0  0
 20 21  2  0  0  0
 21 22  1  0  0  0
 22 23  2  0  0  0
 23 24  1  0  0  0
 24 25  2  0  0  0
 16 17  1  0  0  0
 17 18  2  0  0  0
  9 10  1  0  0  0
  7 26  1  0  0  0
 26 27  1  0  0  0
 27 28  1  0  0  0
 28 29  1  0  0  0
 29 30  1  0  0  0
 30 31  1  0  0  0
 29 32  1  0  0  0
 32 33  1  0  0  0
 33 34  2  0  0  0
 33 36  1  0  0  0
 36 37  2  0  0  0
 10  2  1  0  0  0
 31 26  1  0  0  0
 10  6  2  0  0  0
 18 13  1  0  0  0
 25 20  1  0  0  0
  1 11  1  0  0  0
  1 12  1  0  0  0
 32 35  1  0  0  0
M  END
> <minimizedAffinity>
-8.65454

> <CNNscore>
0.8431738615

> <CNNaffinity>
7.4146585464

> <CNN_VS>
6.2518463135

> <CNNaffinity_variance>
0.1009230390

$$$$
[H]C([H])=C([H])C(=O)N([H])[C@]1([H])C([H])([H])C([H])([H])[C@]([H])(n2c([H])c(-c3c([H])c([H])c(Oc4c([H])c([H])c([H])c([H])c4[H])c([H])c3[H])c3c(N([H])[H])nc([H])nc32)C([H])([H])C1([H])[H]


 37 41  0  0  0  0  0  0  0  0999 V2000
  -17.6843    9.3626  -17.7125 N   0  0  0  0  0  0  0  0  0  0  0  0
  -17.3670   10.1433  -18.8519 C   0  0  0  0  0  0  0  0  0  0  0  0
  -16.4565    9.7493  -19.7547 N   0  0  0  0  0  0  0  0  0  0  0  0
  -16.1548   10.5156  -20.8097 C   0  0  0  0  0  0  0  0  0  0  0  0
  -16.7326   11.7051  -21.0282 N   0  0  0  0  0  0  0  0  0  0  0  0
  -17.6474   12.1232  -20.1404 C   0  0  0  0  0  0  0  0  0  0  0  0
  -18.3719   13.2538  -20.0906 N   0  0  0  0  0  0  0  0  0  0  0  0
  -19.1467   13.2405  -19.0194 C   0  0  0  0  0  0  0  0  0  0  0  0
  -18.9471   12.0526  -18.3048 C   0  0  0  0  0  0  0  0  0  0  0  0
  -18.0033   11.3558  -19.0127 C   0  0  0  0  0  0  0  0  0  0  0  0
  -18.1539    8.4502  -17.7140 H   0  0  0  0  0  0  0  0  0  0  0  0
  -17.4128    9.7550  -16.7732 H   0  0  0  0  0  0  0  0  0  0  0  0
  -19.6386   11.6397  -17.0996 C   0  0  0  0  0  0  0  0  0  0  0  0
  -20.2682   10.4250  -16.9276 C   0  0  0  0  0  0  0  0  0  0  0  0
  -20.9130   10.0401  -15.7752 C   0  0  0  0  0  0  0  0  0  0  0  0
  -20.9535   10.8999  -14.6990 C   0  0  0  0  0  0  0  0  0  0  0  0
  -20.3388   12.1211  -14.8277 C   0  0  0  0  0  0  0  0  0  0  0  0
  -19.6999   12.4890  -15.9846 C   0  0  0  0  0  0  0  0  0  0  0  0
  -21.6066   10.5240  -13.5161 O   0  0  0  0  0  0  0  0  0  0  0  0
  -20.9296   10.6568  -12.3123 C   0  0  0  0  0  0  0  0  0  0  0  0
  -19.7499    9.9925  -12.0394 C   0  0  0  0  0  0  0  0  0  0  0  0
  -19.1087   10.1555  -10.8233 C   0  0  0  0  0  0  0  0  0  0  0  0
  -19.6190   10.9824   -9.8424 C   0  0  0  0  0  0  0  0  0  0  0  0
  -20.7906   11.6440  -10.1095 C   0  0  0  0  0  0  0  0  0  0  0  0
  -21.4404   11.4833  -11.3329 C   0  0  0  0  0  0  0  0  0  0  0  0
  -18.3224   14.3267  -21.0529 C   0  0  0  0  0  0  0  0  0  0  0  0
  -18.3069   13.8991  -22.4756 C   0  0  0  0  0  0  0  0  0  0  0  0
  -18.3415   15.1996  -23.3025 C   0  0  0  0  0  0  0  0  0  0  0  0
  -16.9383   15.7609  -23.3123 C   0  0  0  0  0  0  0  0  0  0  0  0
  -16.2408   15.3266  -22.0593 C   0  0  0  0  0  0  0  0  0  0  0  0
  -17.1441   15.2595  -20.8469 C   0  0  0  0  0  0  0  0  0  0  0  0
  -16.1933   15.3248  -24.4617 N   0  0  0  0  0  0  0  0  0  0  0  0
  -16.1168   16.0585  -25.6735 C   0  0  0  0  0  0  0  0  0  0  0  0
  -16.7338   17.1470  -25.7425 O   0  0  0  0  0  0  0  0  0  0  0  0
  -15.6831   14.4268  -24.4069 H   0  0  0  0  0  0  0  0  0  0  0  0
  -15.3640   15.6119  -26.8283 C   0  0  0  0  0  0  0  0  0  0  0  0
  -15.9469   15.4756  -28.0020 C   0  0  0  0  0  0  0  0  0  0  0  0
  1  2  1  0  0  0
  2  3  2  0  0  0
  3  4  1  0  0  0
  4  5  2  0  0  0
  5  6  1  0  0  0
  6  7  1  0  0  0
  7  8  1  0  0  0
  8  9  2  0  0  0
  9 13  1  0  0  0
 13 14  2  0  0  0
 14 15  1  0  0  0
 15 16  2  0  0  0
 16 19  1  0  0  0
 19 20  1  0  0  0
 20 21  2  0  0  0
 21 22  1  0  0  0
 22 23  2  0  0  0
 23 24  1  0  0  0
 24 25  2  0  0  0
 16 17  1  0  0  0
 17 18  2  0  0  0
  9 10  1  0  0  0
  7 26  1  0  0  0
 26 27  1  0  0  0
 27 28  1  0  0  0
 28 29  1  0  0  0
 29 30  1  0  0  0
 30 31  1  0  0  0
 29 32  1  0  0  0
 32 33  1  0  0  0
 33 34  2  0  0  0
 33 36  1  0  0  0
 36 37  2  0  0  0
 10  2  1  0  0  0
 31 26  1  0  0  0
 10  6  2  0  0  0
 18 13  1  0  0  0
 25 20  1  0  0  0
  1 11  1  0  0  0
  1 12  1  0  0  0
 32 35  1  0  0  0
M  END
> <minimizedAffinity>
-9.13272

> <CNNscore>
0.7317198515

> <CNNaffinity>
7.3795614243

> <CNN_VS>
5.3997716904

> <CNNaffinity_variance>
0.2016609162

$$$$
[H]C([H])=C([H])C(=O)N([H])[C@]1([H])C([H])([H])C([H])([H])[C@]([H])(n2c([H])c(-c3c([H])c([H])c(Oc4c([H])c([H])c([H])c([H])c4[H])c([H])c3[H])c3c(N([H])[H])nc([H])nc32)C([H])([H])C1([H])[H]


 37 41  0  0  0  0  0  0  0  0999 V2000
  -17.7510    9.3444  -17.4567 N   0  0  0  0  0  0  0  0  0  0  0  0
  -17.7977   10.2181  -18.5716 C   0  0  0  0  0  0  0  0  0  0  0  0
  -17.0194   10.0402  -19.6495 N   0  0  0  0  0  0  0  0  0  0  0  0
  -17.0628   10.8932  -20.6799 C   0  0  0  0  0  0  0  0  0  0  0  0
  -17.8721   11.9614  -20.7008 N   0  0  0  0  0  0  0  0  0  0  0  0
  -18.6617   12.1628  -19.6350 C   0  0  0  0  0  0  0  0  0  0  0  0
  -19.5516   13.1343  -19.3710 N   0  0  0  0  0  0  0  0  0  0  0  0
  -20.0951   12.9309  -18.1831 C   0  0  0  0  0  0  0  0  0  0  0  0
  -19.5576   11.7724  -17.6080 C   0  0  0  0  0  0  0  0  0  0  0  0
  -18.6568   11.2954  -18.5237 C   0  0  0  0  0  0  0  0  0  0  0  0
  -18.0439    8.3611  -17.4441 H   0  0  0  0  0  0  0  0  0  0  0  0
  -17.3804    9.7409  -16.5537 H   0  0  0  0  0  0  0  0  0  0  0  0
  -19.9248   11.1868  -16.3339 C   0  0  0  0  0  0  0  0  0  0  0  0
  -20.6522   10.0257  -16.1792 C   0  0  0  0  0  0  0  0  0  0  0  0
  -20.9863    9.4738  -14.9645 C   0  0  0  0  0  0  0  0  0  0  0  0
  -20.5848   10.0951  -13.8018 C   0  0  0  0  0  0  0  0  0  0  0  0
  -19.8579   11.2551  -13.9102 C   0  0  0  0  0  0  0  0  0  0  0  0
  -19.5332   11.7918  -15.1302 C   0  0  0  0  0  0  0  0  0  0  0  0
  -20.9165    9.5465  -12.5543 O   0  0  0  0  0  0  0  0  0  0  0  0
  -19.9596    9.5535  -11.5497 C   0  0  0  0  0  0  0  0  0  0  0  0
  -18.8801    8.6921  -11.5378 C   0  0  0  0  0  0  0  0  0  0  0  0
  -17.9493    8.7349  -10.5140 C   0  0  0  0  0  0  0  0  0  0  0  0
  -18.0621    9.6336   -9.4719 C   0  0  0  0  0  0  0  0  0  0  0  0
  -19.1329   10.4910   -9.4800 C   0  0  0  0  0  0  0  0  0  0  0  0
  -20.0733   10.4519  -10.5090 C   0  0  0  0  0  0  0  0  0  0  0  0
  -19.8751   14.2371  -20.2422 C   0  0  0  0  0  0  0  0  0  0  0  0
  -18.8713   15.3317  -20.2751 C   0  0  0  0  0  0  0  0  0  0  0  0
  -19.3853   16.3378  -21.3238 C   0  0  0  0  0  0  0  0  0  0  0  0
  -20.4655   17.1617  -20.6616 C   0  0  0  0  0  0  0  0  0  0  0  0
  -21.1086   16.3346  -19.5903 C   0  0  0  0  0  0  0  0  0  0  0  0
  -21.2212   14.8653  -19.9351 C   0  0  0  0  0  0  0  0  0  0  0  0
  -19.9438   18.3750  -20.0943 N   0  0  0  0  0  0  0  0  0  0  0  0
  -20.6233   19.6195  -20.1396 C   0  0  0  0  0  0  0  0  0  0  0  0
  -21.7402   19.6601  -20.7062 O   0  0  0  0  0  0  0  0  0  0  0  0
  -19.0222   18.3439  -19.6258 H   0  0  0  0  0  0  0  0  0  0  0  0
  -20.0905   20.8388  -19.5657 C   0  0  0  0  0  0  0  0  0  0  0  0
  -19.2756   20.7974  -18.5312 C   0  0  0  0  0  0  0  0  0  0  0  0
  1  2  1  0  0  0
  2  3  2  0  0  0
  3  4  1  0  0  0
  4  5  2  0  0  0
  5  6  1  0  0  0
  6  7  1  0  0  0
  7  8  1  0  0  0
  8  9  2  0  0  0
  9 13  1  0  0  0
 13 14  2  0  0  0
 14 15  1  0  0  0
 15 16  2  0  0  0
 16 19  1  0  0  0
 19 20  1  0  0  0
 20 21  2  0  0  0
 21 22  1  0  0  0
 22 23  2  0  0  0
 23 24  1  0  0  0
 24 25  2  0  0  0
 16 17  1  0  0  0
 17 18  2  0  0  0
  9 10  1  0  0  0
  7 26  1  0  0  0
 26 27  1  0  0  0
 27 28  1  0  0  0
 28 29  1  0  0  0
 29 30  1  0  0  0
 30 31  1  0  0  0
 29 32  1  0  0  0
 32 33  1  0  0  0
 33 34  2  0  0  0
 33 36  1  0  0  0
 36 37  2  0  0  0
 10  2  1  0  0  0
 31 26  1  0  0  0
 10  6  2  0  0  0
 18 13  1  0  0  0
 25 20  1  0  0  0
  1 11  1  0  0  0
  1 12  1  0  0  0
 32 35  1  0  0  0
M  END
> <minimizedAffinity>
-7.67898

> <CNNscore>
0.7038289309

> <CNNaffinity>
7.0806069374

> <CNN_VS>
4.9835362434

> <CNNaffinity_variance>
0.1178387180

$$$$
[H]C([H])=C([H])C(=O)N([H])[C@]1([H])C([H])([H])C([H])([H])[C@]([H])(n2c([H])c(-c3c([H])c([H])c(Oc4c([H])c([H])c([H])c([H])c4[H])c([H])c3[H])c3c(N([H])[H])nc([H])nc32)C([H])([H])C1([H])[H]


 37 41  0  0  0  0  0  0  0  0999 V2000
  -17.6567    9.4358  -17.5645 N   0  0  0  0  0  0  0  0  0  0  0  0
  -17.7127   10.3221  -18.6689 C   0  0  0  0  0  0  0  0  0  0  0  0
  -16.9239   10.1725  -19.7435 N   0  0  0  0  0  0  0  0  0  0  0  0
  -16.9767   11.0372  -20.7636 C   0  0  0  0  0  0  0  0  0  0  0  0
  -17.8063   12.0899  -20.7770 N   0  0  0  0  0  0  0  0  0  0  0  0
  -18.6067   12.2630  -19.7144 C   0  0  0  0  0  0  0  0  0  0  0  0
  -19.5168   13.2140  -19.4446 N   0  0  0  0  0  0  0  0  0  0  0  0
  -20.0643   12.9855  -18.2631 C   0  0  0  0  0  0  0  0  0  0  0  0
  -19.5085   11.8305  -17.6985 C   0  0  0  0  0  0  0  0  0  0  0  0
  -18.5926   11.3822  -18.6137 C   0  0  0  0  0  0  0  0  0  0  0  0
  -17.9307    8.4470  -17.5659 H   0  0  0  0  0  0  0  0  0  0  0  0
  -17.2998    9.8280  -16.6542 H   0  0  0  0  0  0  0  0  0  0  0  0
  -19.8729   11.2223  -16.4343 C   0  0  0  0  0  0  0  0  0  0  0  0
  -19.6380   11.7779  -15.1943 C   0  0  0  0  0  0  0  0  0  0  0  0
  -19.9975   11.1958  -14.0011 C   0  0  0  0  0  0  0  0  0  0  0  0
  -20.6369    9.9751  -14.0053 C   0  0  0  0  0  0  0  0  0  0  0  0
  -20.8902    9.3858  -15.2195 C   0  0  0  0  0  0  0  0  0  0  0  0
  -20.5249    9.9806  -16.4005 C   0  0  0  0  0  0  0  0  0  0  0  0
  -21.0106    9.3668  -12.7980 O   0  0  0  0  0  0  0  0  0  0  0  0
  -20.2394    8.3193  -12.3152 C   0  0  0  0  0  0  0  0  0  0  0  0
  -18.9361    8.4837  -11.8888 C   0  0  0  0  0  0  0  0  0  0  0  0
  -18.2038    7.4089  -11.4143 C   0  0  0  0  0  0  0  0  0  0  0  0
  -18.7432    6.1396  -11.3486 C   0  0  0  0  0  0  0  0  0  0  0  0
  -20.0376    5.9721  -11.7711 C   0  0  0  0  0  0  0  0  0  0  0  0
  -20.7794    7.0516  -12.2500 C   0  0  0  0  0  0  0  0  0  0  0  0
  -19.8556   14.3211  -20.3044 C   0  0  0  0  0  0  0  0  0  0  0  0
  -18.8684   15.4311  -20.3238 C   0  0  0  0  0  0  0  0  0  0  0  0
  -19.3959   16.4405  -21.3625 C   0  0  0  0  0  0  0  0  0  0  0  0
  -20.4896   17.2408  -20.6934 C   0  0  0  0  0  0  0  0  0  0  0  0
  -21.1218   16.3925  -19.6322 C   0  0  0  0  0  0  0  0  0  0  0  0
  -21.2116   14.9255  -19.9931 C   0  0  0  0  0  0  0  0  0  0  0  0
  -19.9873   18.4557  -20.1121 N   0  0  0  0  0  0  0  0  0  0  0  0
  -20.4365   19.7490  -20.4835 C   0  0  0  0  0  0  0  0  0  0  0  0
  -21.3205   19.8338  -21.3674 O   0  0  0  0  0  0  0  0  0  0  0  0
  -19.2577   18.3881  -19.3820 H   0  0  0  0  0  0  0  0  0  0  0  0
  -19.9248   20.9694  -19.8930 C   0  0  0  0  0  0  0  0  0  0  0  0
  -19.3577   20.9573  -18.7038 C   0  0  0  0  0  0  0  0  0  0  0  0
  1  2  1  0  0  0
  2  3  2  0  0  0
  3  4  1  0  0  0
  4  5  2  0  0  0
  5  6  1  0  0  0
  6  7  1  0  0  0
  7  8  1  0  0  0
  8  9  2  0  0  0
  9 13  1  0  0  0
 13 14  2  0  0  0
 14 15  1  0  0  0
 15 16  2  0  0  0
 16 19  1  0  0  0
 19 20  1  0  0  0
 20 21  2  0  0  0
 21 22  1  0  0  0
 22 23  2  0  0  0
 23 24  1  0  0  0
 24 25  2  0  0  0
 16 17  1  0  0  0
 17 18  2  0  0  0
  9 10  1  0  0  0
  7 26  1  0  0  0
 26 27  1  0  0  0
 27 28  1  0  0  0
 28 29  1  0  0  0
 29 30  1  0  0  0
 30 31  1  0  0  0
 29 32  1  0  0  0
 32 33  1  0  0  0
 33 34  2  0  0  0
 33 36  1  0  0  0
 36 37  2  0  0  0
 10  2  1  0  0  0
 31 26  1  0  0  0
 10  6  2  0  0  0
 18 13  1  0  0  0
 25 20  1  0  0  0
  1 11  1  0  0  0
  1 12  1  0  0  0
 32 35  1  0  0  0
M  END
> <minimizedAffinity>
-7.23554

> <CNNscore>
0.6282243133

> <CNNaffinity>
7.0294241905

> <CNN_VS>
4.4160552025

> <CNNaffinity_variance>
0.1765591204

$$$$
[H]C([H])=C([H])C(=O)N([H])[C@]1([H])C([H])([H])C([H])([H])[C@]([H])(n2c([H])c(-c3c([H])c([H])c(Oc4c([H])c([H])c([H])c([H])c4[H])c([H])c3[H])c3c(N([H])[H])nc([H])nc32)C([H])([H])C1([H])[H]


 37 41  0  0  0  0  0  0  0  0999 V2000
  -17.0028   10.1320  -20.5454 N   0  0  0  0  0  0  0  0  0  0  0  0
  -16.8834   11.3868  -21.1933 C   0  0  0  0  0  0  0  0  0  0  0  0
  -16.2173   11.5319  -22.3485 N   0  0  0  0  0  0  0  0  0  0  0  0
  -16.0961   12.7317  -22.9288 C   0  0  0  0  0  0  0  0  0  0  0  0
  -16.6230   13.8460  -22.4024 N   0  0  0  0  0  0  0  0  0  0  0  0
  -17.2949   13.7292  -21.2471 C   0  0  0  0  0  0  0  0  0  0  0  0
  -17.9113   14.6532  -20.4910 N   0  0  0  0  0  0  0  0  0  0  0  0
  -18.4376   14.0776  -19.4235 C   0  0  0  0  0  0  0  0  0  0  0  0
  -18.1727   12.7025  -19.4474 C   0  0  0  0  0  0  0  0  0  0  0  0
  -17.4534   12.4899  -20.5940 C   0  0  0  0  0  0  0  0  0  0  0  0
  -17.5241    9.3184  -20.8905 H   0  0  0  0  0  0  0  0  0  0  0  0
  -16.5096   10.0224  -19.6208 H   0  0  0  0  0  0  0  0  0  0  0  0
  -18.6169   11.7175  -18.4811 C   0  0  0  0  0  0  0  0  0  0  0  0
  -18.0018   10.5052  -18.2500 C   0  0  0  0  0  0  0  0  0  0  0  0
  -18.4267    9.5824  -17.3229 C   0  0  0  0  0  0  0  0  0  0  0  0
  -19.5386    9.8522  -16.5549 C   0  0  0  0  0  0  0  0  0  0  0  0
  -20.1822   11.0490  -16.7530 C   0  0  0  0  0  0  0  0  0  0  0  0
  -19.7446   11.9585  -17.6822 C   0  0  0  0  0  0  0  0  0  0  0  0
  -19.9861    8.9226  -15.6048 O   0  0  0  0  0  0  0  0  0  0  0  0
  -20.2489    9.3639  -14.3159 C   0  0  0  0  0  0  0  0  0  0  0  0
  -19.2660    9.8491  -13.4757 C   0  0  0  0  0  0  0  0  0  0  0  0
  -19.5747   10.2787  -12.1963 C   0  0  0  0  0  0  0  0  0  0  0  0
  -20.8675   10.2399  -11.7132 C   0  0  0  0  0  0  0  0  0  0  0  0
  -21.8467    9.7586  -12.5448 C   0  0  0  0  0  0  0  0  0  0  0  0
  -21.5410    9.3246  -13.8343 C   0  0  0  0  0  0  0  0  0  0  0  0
  -17.9947   16.0621  -20.7873 C   0  0  0  0  0  0  0  0  0  0  0  0
  -17.5287   16.9643  -19.7028 C   0  0  0  0  0  0  0  0  0  0  0  0
  -17.6294   18.3919  -20.2756 C   0  0  0  0  0  0  0  0  0  0  0  0
  -19.0796   18.8082  -20.1872 C   0  0  0  0  0  0  0  0  0  0  0  0
  -19.9349   17.5800  -20.2606 C   0  0  0  0  0  0  0  0  0  0  0  0
  -19.3904   16.5081  -21.1797 C   0  0  0  0  0  0  0  0  0  0  0  0
  -19.3593   19.5259  -18.9735 N   0  0  0  0  0  0  0  0  0  0  0  0
  -19.4643   20.9388  -18.9024 C   0  0  0  0  0  0  0  0  0  0  0  0
  -19.3041   21.5949  -19.9579 O   0  0  0  0  0  0  0  0  0  0  0  0
  -19.4922   18.9864  -18.1012 H   0  0  0  0  0  0  0  0  0  0  0  0
  -19.7462   21.6553  -17.6748 C   0  0  0  0  0  0  0  0  0  0  0  0
  -20.9771   21.7449  -17.2135 C   0  0  0  0  0  0  0  0  0  0  0  0
  1  2  1  0  0  0
  2  3  2  0  0  0
  3  4  1  0  0  0
  4  5  2  0  0  0
  5  6  1  0  0  0
  6  7  1  0  0  0
  7  8  1  0  0  0
  8  9  2  0  0  0
  9 13  1  0  0  0
 13 14  2  0  0  0
 14 15  1  0  0  0
 15 16  2  0  0  0
 16 19  1  0  0  0
 19 20  1  0  0  0
 20 21  2  0  0  0
 21 22  1  0  0  0
 22 23  2  0  0  0
 23 24  1  0  0  0
 24 25  2  0  0  0
 16 17  1  0  0  0
 17 18  2  0  0  0
  9 10  1  0  0  0
  7 26  1  0  0  0
 26 27  1  0  0  0
 27 28  1  0  0  0
 28 29  1  0  0  0
 29 30  1  0  0  0
 30 31  1  0  0  0
 29 32  1  0  0  0
 32 33  1  0  0  0
 33 34  2  0  0  0
 33 36  1  0  0  0
 36 37  2  0  0  0
 10  2  1  0  0  0
 31 26  1  0  0  0
 10  6  2  0  0  0
 18 13  1  0  0  0
 25 20  1  0  0  0
  1 11  1  0  0  0
  1 12  1  0  0  0
 32 35  1  0  0  0
M  END
> <minimizedAffinity>
-8.17583

> <CNNscore>
0.5977579355

> <CNNaffinity>
7.2742967606

> <CNN_VS>
4.3482685089

> <CNNaffinity_variance>
0.2397780418

$$$$
[H]C([H])=C([H])C(=O)N([H])[C@]1([H])C([H])([H])C([H])([H])[C@]([H])(n2c([H])c(-c3c([H])c([H])c(Oc4c([H])c([H])c([H])c([H])c4[H])c([H])c3[H])c3c(N([H])[H])nc([H])nc32)C([H])([H])C1([H])[H]


 37 41  0  0  0  0  0  0  0  0999 V2000
  -17.7819    9.3830  -17.6354 N   0  0  0  0  0  0  0  0  0  0  0  0
  -17.4448   10.1749  -18.7612 C   0  0  0  0  0  0  0  0  0  0  0  0
  -16.5161    9.7915  -19.6499 N   0  0  0  0  0  0  0  0  0  0  0  0
  -16.1962   10.5681  -20.6919 C   0  0  0  0  0  0  0  0  0  0  0  0
  -16.7729   11.7581  -20.9106 N   0  0  0  0  0  0  0  0  0  0  0  0
  -17.7057   12.1659  -20.0368 C   0  0  0  0  0  0  0  0  0  0  0  0
  -18.4340   13.2941  -19.9906 N   0  0  0  0  0  0  0  0  0  0  0  0
  -19.2292   13.2691  -18.9347 C   0  0  0  0  0  0  0  0  0  0  0  0
  -19.0403   12.0752  -18.2273 C   0  0  0  0  0  0  0  0  0  0  0  0
  -18.0812   11.3872  -18.9232 C   0  0  0  0  0  0  0  0  0  0  0  0
  -18.2490    8.4695  -17.6543 H   0  0  0  0  0  0  0  0  0  0  0  0
  -17.5296    9.7674  -16.6874 H   0  0  0  0  0  0  0  0  0  0  0  0
  -19.7537   11.6495  -17.0394 C   0  0  0  0  0  0  0  0  0  0  0  0
  -20.7369   10.6831  -17.0130 C   0  0  0  0  0  0  0  0  0  0  0  0
  -21.4003   10.2801  -15.8776 C   0  0  0  0  0  0  0  0  0  0  0  0
  -21.0887   10.8588  -14.6663 C   0  0  0  0  0  0  0  0  0  0  0  0
  -20.1148   11.8267  -14.6474 C   0  0  0  0  0  0  0  0  0  0  0  0
  -19.4627   12.2166  -15.7897 C   0  0  0  0  0  0  0  0  0  0  0  0
  -21.7552   10.4602  -13.4983 O   0  0  0  0  0  0  0  0  0  0  0  0
  -23.1425   10.4436  -13.4977 C   0  0  0  0  0  0  0  0  0  0  0  0
  -23.9049   11.5679  -13.7474 C   0  0  0  0  0  0  0  0  0  0  0  0
  -25.2878   11.5043  -13.7363 C   0  0  0  0  0  0  0  0  0  0  0  0
  -25.9549   10.3235  -13.4774 C   0  0  0  0  0  0  0  0  0  0  0  0
  -25.2013    9.2045  -13.2290 C   0  0  0  0  0  0  0  0  0  0  0  0
  -23.8080    9.2633  -13.2390 C   0  0  0  0  0  0  0  0  0  0  0  0
  -18.3688   14.3760  -20.9419 C   0  0  0  0  0  0  0  0  0  0  0  0
  -18.3430   13.9621  -22.3685 C   0  0  0  0  0  0  0  0  0  0  0  0
  -18.3617   15.2707  -23.1830 C   0  0  0  0  0  0  0  0  0  0  0  0
  -16.9549   15.8230  -23.1746 C   0  0  0  0  0  0  0  0  0  0  0  0
  -16.2717   15.3722  -21.9194 C   0  0  0  0  0  0  0  0  0  0  0  0
  -17.1866   15.2991  -20.7161 C   0  0  0  0  0  0  0  0  0  0  0  0
  -16.2022   15.3933  -24.3213 N   0  0  0  0  0  0  0  0  0  0  0  0
  -16.1280   16.1274  -25.5329 C   0  0  0  0  0  0  0  0  0  0  0  0
  -16.7544   17.2103  -25.6044 O   0  0  0  0  0  0  0  0  0  0  0  0
  -15.6842   14.4999  -24.2645 H   0  0  0  0  0  0  0  0  0  0  0  0
  -15.3673   15.6872  -26.6851 C   0  0  0  0  0  0  0  0  0  0  0  0
  -15.9586   15.4770  -27.8436 C   0  0  0  0  0  0  0  0  0  0  0  0
  1  2  1  0  0  0
  2  3  2  0  0  0
  3  4  1  0  0  0
  4  5  2  0  0  0
  5  6  1  0  0  0
  6  7  1  0  0  0
  7  8  1  0  0  0
  8  9  2  0  0  0
  9 13  1  0  0  0
 13 14  2  0  0  0
 14 15  1  0  0  0
 15 16  2  0  0  0
 16 19  1  0  0  0
 19 20  1  0  0  0
 20 21  2  0  0  0
 21 22  1  0  0  0
 22 23  2  0  0  0
 23 24  1  0  0  0
 24 25  2  0  0  0
 16 17  1  0  0  0
 17 18  2  0  0  0
  9 10  1  0  0  0
  7 26  1  0  0  0
 26 27  1  0  0  0
 27 28  1  0  0  0
 28 29  1  0  0  0
 29 30  1  0  0  0
 30 31  1  0  0  0
 29 32  1  0  0  0
 32 33  1  0  0  0
 33 34  2  0  0  0
 33 36  1  0  0  0
 36 37  2  0  0  0
 10  2  1  0  0  0
 31 26  1  0  0  0
 10  6  2  0  0  0
 18 13  1  0  0  0
 25 20  1  0  0  0
  1 11  1  0  0  0
  1 12  1  0  0  0
 32 35  1  0  0  0
M  END
> <minimizedAffinity>
-8.01806

> <CNNscore>
0.5472684503

> <CNNaffinity>
7.1860380173

> <CNN_VS>
3.9326918125

> <CNNaffinity_variance>
0.3708988130

$$$$
[H]C([H])=C([H])C(=O)N1C([H])([H])C([H])([H])C([H])([H])[C@@]([H])(n2nc(-c3c([H])c([H])c(Oc4c([H])c([H])c([H])c([H])c4[H])c([H])c3[H])c3c(N([H])[H])nc([H])nc32)C1([H])[H]


 35 39  0  0  0  0  0  0  0  0999 V2000
  -16.7954   10.1132  -18.5841 N   0  0  0  0  0  0  0  0  0  0  0  0
  -16.3960   10.5839  -19.8619 C   0  0  0  0  0  0  0  0  0  0  0  0
  -15.4698    9.9435  -20.5869 N   0  0  0  0  0  0  0  0  0  0  0  0
  -15.1302   10.3807  -21.8098 C   0  0  0  0  0  0  0  0  0  0  0  0
  -15.6929   11.4631  -22.3583 N   0  0  0  0  0  0  0  0  0  0  0  0
  -16.6391   12.1599  -21.6776 C   0  0  0  0  0  0  0  0  0  0  0  0
  -17.3675   13.2324  -21.9488 N   0  0  0  0  0  0  0  0  0  0  0  0
  -18.1543   13.4926  -20.9403 N   0  0  0  0  0  0  0  0  0  0  0  0
  -17.9647   12.5870  -19.9605 C   0  0  0  0  0  0  0  0  0  0  0  0
  -17.0046   11.7147  -20.3938 C   0  0  0  0  0  0  0  0  0  0  0  0
  -17.7576    9.7013  -18.4715 H   0  0  0  0  0  0  0  0  0  0  0  0
  -16.1971   10.1455  -17.7352 H   0  0  0  0  0  0  0  0  0  0  0  0
  -17.3353   14.0387  -23.1536 C   0  0  0  0  0  0  0  0  0  0  0  0
  -15.9740   14.4978  -23.5362 C   0  0  0  0  0  0  0  0  0  0  0  0
  -15.7011   15.9352  -23.1718 C   0  0  0  0  0  0  0  0  0  0  0  0
  -16.6642   16.4903  -22.1949 C   0  0  0  0  0  0  0  0  0  0  0  0
  -18.0251   16.4003  -22.7876 N   0  0  0  0  0  0  0  0  0  0  0  0
  -18.4118   15.0859  -23.2218 C   0  0  0  0  0  0  0  0  0  0  0  0
  -18.8024   17.5800  -22.8766 C   0  0  0  0  0  0  0  0  0  0  0  0
  -18.2174   18.6726  -22.4293 O   0  0  0  0  0  0  0  0  0  0  0  0
  -20.1170   17.7935  -23.3688 C   0  0  0  0  0  0  0  0  0  0  0  0
  -20.8341   18.8595  -23.3965 C   0  0  0  0  0  0  0  0  0  0  0  0
  -18.6906   12.5398  -18.6855 C   0  0  0  0  0  0  0  0  0  0  0  0
  -18.5558   13.5960  -17.7806 C   0  0  0  0  0  0  0  0  0  0  0  0
  -19.1703   13.5437  -16.5596 C   0  0  0  0  0  0  0  0  0  0  0  0
  -19.9417   12.4767  -16.1513 C   0  0  0  0  0  0  0  0  0  0  0  0
  -20.0690   11.4344  -17.0553 C   0  0  0  0  0  0  0  0  0  0  0  0
  -19.4575   11.4757  -18.2811 C   0  0  0  0  0  0  0  0  0  0  0  0
  -20.5567   12.4459  -14.9063 O   0  0  0  0  0  0  0  0  0  0  0  0
  -20.5359   11.3637  -14.0595 C   0  0  0  0  0  0  0  0  0  0  0  0
  -19.4239   11.0145  -13.3174 C   0  0  0  0  0  0  0  0  0  0  0  0
  -19.4331    9.9211  -12.4745 C   0  0  0  0  0  0  0  0  0  0  0  0
  -20.5752    9.1438  -12.3570 C   0  0  0  0  0  0  0  0  0  0  0  0
  -21.6792    9.4768  -13.0832 C   0  0  0  0  0  0  0  0  0  0  0  0
  -21.6591   10.5657  -13.9179 C   0  0  0  0  0  0  0  0  0  0  0  0
  1  2  1  0  0  0
  2  3  2  0  0  0
  3  4  1  0  0  0
  4  5  2  0  0  0
  5  6  1  0  0  0
  6  7  1  0  0  0
  7  8  1  0  0  0
  8  9  2  0  0  0
  9 23  1  0  0  0
 23 24  2  0  0  0
 24 25  1  0  0  0
 25 26  2  0  0  0
 26 29  1  0  0  0
 29 30  1  0  0  0
 30 31  2  0  0  0
 31 32  1  0  0  0
 32 33  2  0  0  0
 33 34  1  0  0  0
 34 35  2  0  0  0
 26 27  1  0  0  0
 27 28  2  0  0  0
  9 10  1  0  0  0
  7 13  1  0  0  0
 13 14  1  0  0  0
 14 15  1  0  0  0
 15 16  1  0  0  0
 16 17  1  0  0  0
 17 18  1  0  0  0
 17 19  1  0  0  0
 19 20  2  0  0  0
 19 21  1  0  0  0
 21 22  2  0  0  0
 10  2  1  0  0  0
 18 13  1  0  0  0
 10  6  2  0  0  0
 28 23  1  0  0  0
 35 30  1  0  0  0
  1 11  1  0  0  0
  1 12  1  0  0  0
M  END
> <minimizedAffinity>
-8.42154

> <CNNscore>
0.7452245355

> <CNNaffinity>
7.3739509583

> <CNN_VS>
5.4952492714

> <CNNaffinity_variance>
0.0704744905

$$$$
[H]C([H])=C([H])C(=O)N1C([H])([H])C([H])([H])C([H])([H])[C@@]([H])(n2nc(-c3c([H])c([H])c(Oc4c([H])c([H])c([H])c([H])c4[H])c([H])c3[H])c3c(N([H])[H])nc([H])nc32)C1([H])[H]


 35 39  0  0  0  0  0  0  0  0999 V2000
  -17.2794    9.6436  -18.1777 N   0  0  0  0  0  0  0  0  0  0  0  0
  -16.9444   10.3388  -19.3687 C   0  0  0  0  0  0  0  0  0  0  0  0
  -16.0499    9.8504  -20.2375 N   0  0  0  0  0  0  0  0  0  0  0  0
  -15.7719   10.5020  -21.3777 C   0  0  0  0  0  0  0  0  0  0  0  0
  -16.3669   11.6561  -21.6991 N   0  0  0  0  0  0  0  0  0  0  0  0
  -17.2839   12.2075  -20.8629 C   0  0  0  0  0  0  0  0  0  0  0  0
  -18.0310   13.3003  -20.9057 N   0  0  0  0  0  0  0  0  0  0  0  0
  -18.7703   13.3664  -19.8320 N   0  0  0  0  0  0  0  0  0  0  0  0
  -18.5286   12.3046  -19.0382 C   0  0  0  0  0  0  0  0  0  0  0  0
  -17.5847   11.5369  -19.6630 C   0  0  0  0  0  0  0  0  0  0  0  0
  -18.2325    9.2043  -18.0960 H   0  0  0  0  0  0  0  0  0  0  0  0
  -16.6415    9.5340  -17.3649 H   0  0  0  0  0  0  0  0  0  0  0  0
  -18.0614   14.3074  -21.9485 C   0  0  0  0  0  0  0  0  0  0  0  0
  -16.7164   14.7147  -22.4334 C   0  0  0  0  0  0  0  0  0  0  0  0
  -16.2503   16.0340  -21.8716 C   0  0  0  0  0  0  0  0  0  0  0  0
  -17.0223   16.4792  -20.6902 C   0  0  0  0  0  0  0  0  0  0  0  0
  -18.4473   16.6113  -21.0941 N   0  0  0  0  0  0  0  0  0  0  0  0
  -19.0213   15.4346  -21.6872 C   0  0  0  0  0  0  0  0  0  0  0  0
  -19.1004   17.8474  -20.8721 C   0  0  0  0  0  0  0  0  0  0  0  0
  -18.3527   18.7881  -20.3316 O   0  0  0  0  0  0  0  0  0  0  0  0
  -20.4354   18.2549  -21.1329 C   0  0  0  0  0  0  0  0  0  0  0  0
  -21.0033   18.5953  -22.2342 C   0  0  0  0  0  0  0  0  0  0  0  0
  -19.1924   12.0219  -17.7599 C   0  0  0  0  0  0  0  0  0  0  0  0
  -19.7008   10.7427  -17.5198 C   0  0  0  0  0  0  0  0  0  0  0  0
  -20.3806   10.4741  -16.3634 C   0  0  0  0  0  0  0  0  0  0  0  0
  -20.6034   11.4197  -15.3855 C   0  0  0  0  0  0  0  0  0  0  0  0
  -20.0959   12.6850  -15.6330 C   0  0  0  0  0  0  0  0  0  0  0  0
  -19.4137   12.9656  -16.7881 C   0  0  0  0  0  0  0  0  0  0  0  0
  -21.2964   11.1237  -14.2187 O   0  0  0  0  0  0  0  0  0  0  0  0
  -20.6999   10.8839  -13.0041 C   0  0  0  0  0  0  0  0  0  0  0  0
  -19.6429   10.0077  -12.8486 C   0  0  0  0  0  0  0  0  0  0  0  0
  -19.0637    9.7873  -11.6149 C   0  0  0  0  0  0  0  0  0  0  0  0
  -19.5404   10.4512  -10.4949 C   0  0  0  0  0  0  0  0  0  0  0  0
  -20.5825   11.3182  -10.6338 C   0  0  0  0  0  0  0  0  0  0  0  0
  -21.1507   11.5298  -11.8648 C   0  0  0  0  0  0  0  0  0  0  0  0
  1  2  1  0  0  0
  2  3  2  0  0  0
  3  4  1  0  0  0
  4  5  2  0  0  0
  5  6  1  0  0  0
  6  7  1  0  0  0
  7  8  1  0  0  0
  8  9  2  0  0  0
  9 23  1  0  0  0
 23 24  2  0  0  0
 24 25  1  0  0  0
 25 26  2  0  0  0
 26 29  1  0  0  0
 29 30  1  0  0  0
 30 31  2  0  0  0
 31 32  1  0  0  0
 32 33  2  0  0  0
 33 34  1  0  0  0
 34 35  2  0  0  0
 26 27  1  0  0  0
 27 28  2  0  0  0
  9 10  1  0  0  0
  7 13  1  0  0  0
 13 14  1  0  0  0
 14 15  1  0  0  0
 15 16  1  0  0  0
 16 17  1  0  0  0
 17 18  1  0  0  0
 17 19  1  0  0  0
 19 20  2  0  0  0
 19 21  1  0  0  0
 21 22  2  0  0  0
 10  2  1  0  0  0
 18 13  1  0  0  0
 10  6  2  0  0  0
 28 23  1  0  0  0
 35 30  1  0  0  0
  1 11  1  0  0  0
  1 12  1  0  0  0
M  END
> <minimizedAffinity>
-8.48108

> <CNNscore>
0.7079180479

> <CNNaffinity>
7.2366418839

> <CNN_VS>
5.1229496002

> <CNNaffinity_variance>
0.0924053490

$$$$
[H]C([H])=C([H])C(=O)N1C([H])([H])C([H])([H])C([H])([H])[C@@]([H])(n2nc(-c3c([H])c([H])c(Oc4c([H])c([H])c([H])c([H])c4[H])c([H])c3[H])c3c(N([H])[H])nc([H])nc32)C1([H])[H]


 35 39  0  0  0  0  0  0  0  0999 V2000
  -17.4534    9.5014  -18.1668 N   0  0  0  0  0  0  0  0  0  0  0  0
  -17.1290   10.2975  -19.2959 C   0  0  0  0  0  0  0  0  0  0  0  0
  -16.2372    9.8900  -20.2081 N   0  0  0  0  0  0  0  0  0  0  0  0
  -15.9692   10.6380  -21.2901 C   0  0  0  0  0  0  0  0  0  0  0  0
  -16.5718   11.8120  -21.5085 N   0  0  0  0  0  0  0  0  0  0  0  0
  -17.4865   12.2850  -20.6232 C   0  0  0  0  0  0  0  0  0  0  0  0
  -18.2393   13.3734  -20.5685 N   0  0  0  0  0  0  0  0  0  0  0  0
  -18.9726   13.3436  -19.4891 N   0  0  0  0  0  0  0  0  0  0  0  0
  -18.7208   12.2193  -18.7901 C   0  0  0  0  0  0  0  0  0  0  0  0
  -17.7769   11.5128  -19.4833 C   0  0  0  0  0  0  0  0  0  0  0  0
  -18.4038    9.0516  -18.1176 H   0  0  0  0  0  0  0  0  0  0  0  0
  -16.8101    9.3264  -17.3699 H   0  0  0  0  0  0  0  0  0  0  0  0
  -18.2809   14.4657  -21.5214 C   0  0  0  0  0  0  0  0  0  0  0  0
  -16.9412   14.9127  -21.9857 C   0  0  0  0  0  0  0  0  0  0  0  0
  -16.4671   16.1793  -21.3193 C   0  0  0  0  0  0  0  0  0  0  0  0
  -17.2246   16.5223  -20.0951 C   0  0  0  0  0  0  0  0  0  0  0  0
  -18.6542   16.6885  -20.4694 N   0  0  0  0  0  0  0  0  0  0  0  0
  -19.2364   15.5666  -21.1536 C   0  0  0  0  0  0  0  0  0  0  0  0
  -19.3032   17.9013  -20.1352 C   0  0  0  0  0  0  0  0  0  0  0  0
  -18.5481   18.7924  -19.5255 O   0  0  0  0  0  0  0  0  0  0  0  0
  -20.6407   18.3296  -20.3445 C   0  0  0  0  0  0  0  0  0  0  0  0
  -21.6871   18.1836  -19.6130 C   0  0  0  0  0  0  0  0  0  0  0  0
  -19.3757   11.8250  -17.5369 C   0  0  0  0  0  0  0  0  0  0  0  0
  -19.4171   12.7283  -16.4716 C   0  0  0  0  0  0  0  0  0  0  0  0
  -19.9639   12.3599  -15.2730 C   0  0  0  0  0  0  0  0  0  0  0  0
  -20.4953   11.1092  -15.0419 C   0  0  0  0  0  0  0  0  0  0  0  0
  -20.4491   10.2207  -16.1041 C   0  0  0  0  0  0  0  0  0  0  0  0
  -19.9034   10.5786  -17.3092 C   0  0  0  0  0  0  0  0  0  0  0  0
  -21.0458   10.7576  -13.8161 O   0  0  0  0  0  0  0  0  0  0  0  0
  -20.3162   10.3174  -12.7378 C   0  0  0  0  0  0  0  0  0  0  0  0
  -19.5097    9.1966  -12.7865 C   0  0  0  0  0  0  0  0  0  0  0  0
  -18.7881    8.7785  -11.6862 C   0  0  0  0  0  0  0  0  0  0  0  0
  -18.8619    9.4869  -10.4966 C   0  0  0  0  0  0  0  0  0  0  0  0
  -19.6537   10.5943  -10.4346 C   0  0  0  0  0  0  0  0  0  0  0  0
  -20.3666   11.0009  -11.5343 C   0  0  0  0  0  0  0  0  0  0  0  0
  1  2  1  0  0  0
  2  3  2  0  0  0
  3  4  1  0  0  0
  4  5  2  0  0  0
  5  6  1  0  0  0
  6  7  1  0  0  0
  7  8  1  0  0  0
  8  9  2  0  0  0
  9 23  1  0  0  0
 23 24  2  0  0  0
 24 25  1  0  0  0
 25 26  2  0  0  0
 26 29  1  0  0  0
 29 30  1  0  0  0
 30 31  2  0  0  0
 31 32  1  0  0  0
 32 33  2  0  0  0
 33 34  1  0  0  0
 34 35  2  0  0  0
 26 27  1  0  0  0
 27 28  2  0  0  0
  9 10  1  0  0  0
  7 13  1  0  0  0
 13 14  1  0  0  0
 14 15  1  0  0  0
 15 16  1  0  0  0
 16 17  1  0  0  0
 17 18  1  0  0  0
 17 19  1  0  0  0
 19 20  2  0  0  0
 19 21  1  0  0  0
 21 22  2  0  0  0
 10  2  1  0  0  0
 18 13  1  0  0  0
 10  6  2  0  0  0
 28 23  1  0  0  0
 35 30  1  0  0  0
  1 11  1  0  0  0
  1 12  1  0  0  0
M  END
> <minimizedAffinity>
-8.33311

> <CNNscore>
0.6915056705

> <CNNaffinity>
7.2017774582

> <CNN_VS>
4.9800701141

> <CNNaffinity_variance>
0.1101265773

$$$$
[H]C([H])=C([H])C(=O)N1C([H])([H])C([H])([H])C([H])([H])[C@@]([H])(n2nc(-c3c([H])c([H])c(Oc4c([H])c([H])c([H])c([H])c4[H])c([H])c3[H])c3c(N([H])[H])nc([H])nc32)C1([H])[H]


 35 39  0  0  0  0  0  0  0  0999 V2000
  -17.4386    9.6879  -18.6467 N   0  0  0  0  0  0  0  0  0  0  0  0
  -16.9213   10.4814  -19.7034 C   0  0  0  0  0  0  0  0  0  0  0  0
  -16.1022    9.9675  -20.6299 N   0  0  0  0  0  0  0  0  0  0  0  0
  -15.6515   10.7223  -21.6443 C   0  0  0  0  0  0  0  0  0  0  0  0
  -15.9938   12.0083  -21.7789 N   0  0  0  0  0  0  0  0  0  0  0  0
  -16.8211   12.5929  -20.8745 C   0  0  0  0  0  0  0  0  0  0  0  0
  -17.3368   13.8061  -20.7462 N   0  0  0  0  0  0  0  0  0  0  0  0
  -18.0957   13.8482  -19.6851 N   0  0  0  0  0  0  0  0  0  0  0  0
  -18.1023   12.6474  -19.0735 C   0  0  0  0  0  0  0  0  0  0  0  0
  -17.3005   11.8148  -19.8046 C   0  0  0  0  0  0  0  0  0  0  0  0
  -18.4619    9.4415  -18.6495 H   0  0  0  0  0  0  0  0  0  0  0  0
  -16.8712    9.3251  -17.8554 H   0  0  0  0  0  0  0  0  0  0  0  0
  -17.1228   14.9511  -21.6099 C   0  0  0  0  0  0  0  0  0  0  0  0
  -18.3770   15.6133  -22.0557 C   0  0  0  0  0  0  0  0  0  0  0  0
  -18.7734   15.2595  -23.4667 C   0  0  0  0  0  0  0  0  0  0  0  0
  -18.0754   14.0664  -23.9952 C   0  0  0  0  0  0  0  0  0  0  0  0
  -16.6135   14.3373  -23.9659 N   0  0  0  0  0  0  0  0  0  0  0  0
  -16.0946   14.7279  -22.6837 C   0  0  0  0  0  0  0  0  0  0  0  0
  -15.8764   14.1967  -25.1662 C   0  0  0  0  0  0  0  0  0  0  0  0
  -16.5838   13.8480  -26.2216 O   0  0  0  0  0  0  0  0  0  0  0  0
  -14.4925   14.3675  -25.4340 C   0  0  0  0  0  0  0  0  0  0  0  0
  -13.8287   15.4204  -25.7536 C   0  0  0  0  0  0  0  0  0  0  0  0
  -18.8648   12.3048  -17.8668 C   0  0  0  0  0  0  0  0  0  0  0  0
  -19.4792   11.0530  -17.7767 C   0  0  0  0  0  0  0  0  0  0  0  0
  -20.2487   10.7365  -16.6909 C   0  0  0  0  0  0  0  0  0  0  0  0
  -20.4637   11.6058  -15.6429 C   0  0  0  0  0  0  0  0  0  0  0  0
  -19.8507   12.8444  -15.7417 C   0  0  0  0  0  0  0  0  0  0  0  0
  -19.0780   13.1725  -16.8249 C   0  0  0  0  0  0  0  0  0  0  0  0
  -21.2490   11.2621  -14.5500 O   0  0  0  0  0  0  0  0  0  0  0  0
  -20.7644   11.0713  -13.2782 C   0  0  0  0  0  0  0  0  0  0  0  0
  -19.6333   10.3238  -13.0119 C   0  0  0  0  0  0  0  0  0  0  0  0
  -19.1702   10.1498  -11.7230 C   0  0  0  0  0  0  0  0  0  0  0  0
  -19.8425   10.7308  -10.6587 C   0  0  0  0  0  0  0  0  0  0  0  0
  -20.9597   11.4707  -10.9070 C   0  0  0  0  0  0  0  0  0  0  0  0
  -21.4111   11.6372  -12.1920 C   0  0  0  0  0  0  0  0  0  0  0  0
  1  2  1  0  0  0
  2  3  2  0  0  0
  3  4  1  0  0  0
  4  5  2  0  0  0
  5  6  1  0  0  0
  6  7  1  0  0  0
  7  8  1  0  0  0
  8  9  2  0  0  0
  9 23  1  0  0  0
 23 24  2  0  0  0
 24 25  1  0  0  0
 25 26  2  0  0  0
 26 29  1  0  0  0
 29 30  1  0  0  0
 30 31  2  0  0  0
 31 32  1  0  0  0
 32 33  2  0  0  0
 33 34  1  0  0  0
 34 35  2  0  0  0
 26 27  1  0  0  0
 27 28  2  0  0  0
  9 10  1  0  0  0
  7 13  1  0  0  0
 13 14  1  0  0  0
 14 15  1  0  0  0
 15 16  1  0  0  0
 16 17  1  0  0  0
 17 18  1  0  0  0
 17 19  1  0  0  0
 19 20  2  0  0  0
 19 21  1  0  0  0
 21 22  2  0  0  0
 10  2  1  0  0  0
 18 13  1  0  0  0
 10  6  2  0  0  0
 28 23  1  0  0  0
 35 30  1  0  0  0
  1 11  1  0  0  0
  1 12  1  0  0  0
M  END
> <minimizedAffinity>
-8.34926

> <CNNscore>
0.6863499284

> <CNNaffinity>
7.4016098976

> <CNN_VS>
5.0800943375

> <CNNaffinity_variance>
0.2433789670

$$$$
[H]C([H])=C([H])C(=O)N1C([H])([H])C([H])([H])C([H])([H])[C@@]([H])(n2nc(-c3c([H])c([H])c(Oc4c([H])c([H])c([H])c([H])c4[H])c([H])c3[H])c3c(N([H])[H])nc([H])nc32)C1([H])[H]


 35 39  0  0  0  0  0  0  0  0999 V2000
  -16.7385   10.0027  -18.7221 N   0  0  0  0  0  0  0  0  0  0  0  0
  -16.4393   10.6203  -19.9643 C   0  0  0  0  0  0  0  0  0  0  0  0
  -15.5627   10.0818  -20.8218 N   0  0  0  0  0  0  0  0  0  0  0  0
  -15.3188   10.6588  -22.0090 C   0  0  0  0  0  0  0  0  0  0  0  0
  -15.9313   11.7852  -22.3901 N   0  0  0  0  0  0  0  0  0  0  0  0
  -16.8316   12.3843  -21.5687 C   0  0  0  0  0  0  0  0  0  0  0  0
  -17.5887   13.4669  -21.6640 N   0  0  0  0  0  0  0  0  0  0  0  0
  -18.3015   13.5985  -20.5785 N   0  0  0  0  0  0  0  0  0  0  0  0
  -18.0310   12.5929  -19.7231 C   0  0  0  0  0  0  0  0  0  0  0  0
  -17.0967   11.7921  -20.3201 C   0  0  0  0  0  0  0  0  0  0  0  0
  -17.6855    9.5634  -18.5875 H   0  0  0  0  0  0  0  0  0  0  0  0
  -16.0795    9.9511  -17.9205 H   0  0  0  0  0  0  0  0  0  0  0  0
  -17.6537   14.4030  -22.7696 C   0  0  0  0  0  0  0  0  0  0  0  0
  -16.3276   14.9135  -23.2066 C   0  0  0  0  0  0  0  0  0  0  0  0
  -16.0253   16.3034  -22.7066 C   0  0  0  0  0  0  0  0  0  0  0  0
  -16.9058   16.7378  -21.5994 C   0  0  0  0  0  0  0  0  0  0  0  0
  -18.3102   16.7030  -22.0869 N   0  0  0  0  0  0  0  0  0  0  0  0
  -18.7316   15.4421  -22.6331 C   0  0  0  0  0  0  0  0  0  0  0  0
  -19.0915   17.8786  -21.9802 C   0  0  0  0  0  0  0  0  0  0  0  0
  -18.4715   18.9193  -21.4619 O   0  0  0  0  0  0  0  0  0  0  0  0
  -20.4415   18.1347  -22.3379 C   0  0  0  0  0  0  0  0  0  0  0  0
  -20.9779   18.3199  -23.4909 C   0  0  0  0  0  0  0  0  0  0  0  0
  -18.6603   12.3905  -18.4125 C   0  0  0  0  0  0  0  0  0  0  0  0
  -19.2009   11.1411  -18.0974 C   0  0  0  0  0  0  0  0  0  0  0  0
  -19.8497   10.9478  -16.9087 C   0  0  0  0  0  0  0  0  0  0  0  0
  -20.0092   11.9435  -15.9688 C   0  0  0  0  0  0  0  0  0  0  0  0
  -19.4701   13.1786  -16.2906 C   0  0  0  0  0  0  0  0  0  0  0  0
  -18.8185   13.3839  -17.4786 C   0  0  0  0  0  0  0  0  0  0  0  0
  -20.6717   11.7236  -14.7680 O   0  0  0  0  0  0  0  0  0  0  0  0
  -21.5512   10.6910  -14.5471 C   0  0  0  0  0  0  0  0  0  0  0  0
  -21.2639    9.6281  -13.7121 C   0  0  0  0  0  0  0  0  0  0  0  0
  -22.1681    8.6046  -13.5097 C   0  0  0  0  0  0  0  0  0  0  0  0
  -23.3975    8.6266  -14.1504 C   0  0  0  0  0  0  0  0  0  0  0  0
  -23.6939    9.6689  -14.9768 C   0  0  0  0  0  0  0  0  0  0  0  0
  -22.7878   10.6809  -15.1707 C   0  0  0  0  0  0  0  0  0  0  0  0
  1  2  1  0  0  0
  2  3  2  0  0  0
  3  4  1  0  0  0
  4  5  2  0  0  0
  5  6  1  0  0  0
  6  7  1  0  0  0
  7  8  1  0  0  0
  8  9  2  0  0  0
  9 23  1  0  0  0
 23 24  2  0  0  0
 24 25  1  0  0  0
 25 26  2  0  0  0
 26 29  1  0  0  0
 29 30  1  0  0  0
 30 31  2  0  0  0
 31 32  1  0  0  0
 32 33  2  0  0  0
 33 34  1  0  0  0
 34 35  2  0  0  0
 26 27  1  0  0  0
 27 28  2  0  0  0
  9 10  1  0  0  0
  7 13  1  0  0  0
 13 14  1  0  0  0
 14 15  1  0  0  0
 15 16  1  0  0  0
 16 17  1  0  0  0
 17 18  1  0  0  0
 17 19  1  0  0  0
 19 20  2  0  0  0
 19 21  1  0  0  0
 21 22  2  0  0  0
 10  2  1  0  0  0
 18 13  1  0  0  0
 10  6  2  0  0  0
 28 23  1  0  0  0
 35 30  1  0  0  0
  1 11  1  0  0  0
  1 12  1  0  0  0
M  END
> <minimizedAffinity>
-8.20677

> <CNNscore>
0.6859511137

> <CNNaffinity>
7.3111467361

> <CNN_VS>
5.0150890350

> <CNNaffinity_variance>
0.1239969283

$$$$
[H]C([H])=C([H])C(=O)N1C([H])([H])C([H])([H])C([H])([H])[C@@]([H])(n2nc(-c3c([H])c([H])c(Oc4c([H])c([H])c([H])c([H])c4[H])c([H])c3[H])c3c(N([H])[H])nc([H])nc32)C1([H])[H]


 35 39  0  0  0  0  0  0  0  0999 V2000
  -17.6253    9.4839  -17.6626 N   0  0  0  0  0  0  0  0  0  0  0  0
  -17.6397   10.3898  -18.7550 C   0  0  0  0  0  0  0  0  0  0  0  0
  -16.8333   10.2266  -19.8117 N   0  0  0  0  0  0  0  0  0  0  0  0
  -16.8857   11.0712  -20.8537 C   0  0  0  0  0  0  0  0  0  0  0  0
  -17.7349   12.1040  -20.8885 N   0  0  0  0  0  0  0  0  0  0  0  0
  -18.5806   12.3278  -19.8497 C   0  0  0  0  0  0  0  0  0  0  0  0
  -19.5169   13.2310  -19.6015 N   0  0  0  0  0  0  0  0  0  0  0  0
  -20.0578   12.9911  -18.4380 N   0  0  0  0  0  0  0  0  0  0  0  0
  -19.4855   11.9078  -17.8767 C   0  0  0  0  0  0  0  0  0  0  0  0
  -18.5363   11.4518  -18.7494 C   0  0  0  0  0  0  0  0  0  0  0  0
  -18.4491    8.8440  -17.5215 H   0  0  0  0  0  0  0  0  0  0  0  0
  -16.8470    9.4040  -16.9789 H   0  0  0  0  0  0  0  0  0  0  0  0
  -19.9178   14.3404  -20.4449 C   0  0  0  0  0  0  0  0  0  0  0  0
  -18.7815   15.1522  -20.9546 C   0  0  0  0  0  0  0  0  0  0  0  0
  -18.5867   16.4473  -20.2076 C   0  0  0  0  0  0  0  0  0  0  0  0
  -19.2952   16.4931  -18.9092 C   0  0  0  0  0  0  0  0  0  0  0  0
  -20.7475   16.3086  -19.1702 N   0  0  0  0  0  0  0  0  0  0  0  0
  -21.0847   15.1260  -19.9143 C   0  0  0  0  0  0  0  0  0  0  0  0
  -21.6504   17.2840  -18.6832 C   0  0  0  0  0  0  0  0  0  0  0  0
  -21.0949   18.2945  -18.0459 O   0  0  0  0  0  0  0  0  0  0  0  0
  -23.0659   17.3640  -18.7622 C   0  0  0  0  0  0  0  0  0  0  0  0
  -23.8231   17.8718  -19.6679 C   0  0  0  0  0  0  0  0  0  0  0  0
  -19.8519   11.3189  -16.5830 C   0  0  0  0  0  0  0  0  0  0  0  0
  -19.5608   12.0141  -15.4064 C   0  0  0  0  0  0  0  0  0  0  0  0
  -19.8335   11.4562  -14.1875 C   0  0  0  0  0  0  0  0  0  0  0  0
  -20.3976   10.2068  -14.0420 C   0  0  0  0  0  0  0  0  0  0  0  0
  -20.6822    9.5254  -15.2143 C   0  0  0  0  0  0  0  0  0  0  0  0
  -20.4129   10.0743  -16.4409 C   0  0  0  0  0  0  0  0  0  0  0  0
  -20.6661    9.6606  -12.7935 O   0  0  0  0  0  0  0  0  0  0  0  0
  -19.7498    9.5757  -11.7727 C   0  0  0  0  0  0  0  0  0  0  0  0
  -18.7918    8.5821  -11.7069 C   0  0  0  0  0  0  0  0  0  0  0  0
  -17.8841    8.5226  -10.6683 C   0  0  0  0  0  0  0  0  0  0  0  0
  -17.9193    9.4729   -9.6593 C   0  0  0  0  0  0  0  0  0  0  0  0
  -18.8590   10.4584   -9.7117 C   0  0  0  0  0  0  0  0  0  0  0  0
  -19.7564   10.5081  -10.7486 C   0  0  0  0  0  0  0  0  0  0  0  0
  1  2  1  0  0  0
  2  3  2  0  0  0
  3  4  1  0  0  0
  4  5  2  0  0  0
  5  6  1  0  0  0
  6  7  1  0  0  0
  7  8  1  0  0  0
  8  9  2  0  0  0
  9 23  1  0  0  0
 23 24  2  0  0  0
 24 25  1  0  0  0
 25 26  2  0  0  0
 26 29  1  0  0  0
 29 30  1  0  0  0
 30 31  2  0  0  0
 31 32  1  0  0  0
 32 33  2  0  0  0
 33 34  1  0  0  0
 34 35  2  0  0  0
 26 27  1  0  0  0
 27 28  2  0  0  0
  9 10  1  0  0  0
  7 13  1  0  0  0
 13 14  1  0  0  0
 14 15  1  0  0  0
 15 16  1  0  0  0
 16 17  1  0  0  0
 17 18  1  0  0  0
 17 19  1  0  0  0
 19 20  2  0  0  0
 19 21  1  0  0  0
 21 22  2  0  0  0
 10  2  1  0  0  0
 18 13  1  0  0  0
 10  6  2  0  0  0
 28 23  1  0  0  0
 35 30  1  0  0  0
  1 11  1  0  0  0
  1 12  1  0  0  0
M  END
> <minimizedAffinity>
-7.75583

> <CNNscore>
0.5938426852

> <CNNaffinity>
7.0497307777

> <CNN_VS>
4.1864309311

> <CNNaffinity_variance>
0.3090041280

$$$$
[H]C([H])=C([H])C(=O)N1C([H])([H])C([H])([H])C([H])([H])[C@@]([H])(n2nc(-c3c([H])c([H])c(Oc4c([H])c([H])c([H])c([H])c4[H])c([H])c3[H])c3c(N([H])[H])nc([H])nc32)C1([H])[H]


 35 39  0  0  0  0  0  0  0  0999 V2000
  -17.2224    9.8883  -19.5343 N   0  0  0  0  0  0  0  0  0  0  0  0
  -16.7450   10.8075  -20.5044 C   0  0  0  0  0  0  0  0  0  0  0  0
  -15.8241   10.4552  -21.4107 N   0  0  0  0  0  0  0  0  0  0  0  0
  -15.4106   11.3255  -22.3453 C   0  0  0  0  0  0  0  0  0  0  0  0
  -15.8917   12.5716  -22.4174 N   0  0  0  0  0  0  0  0  0  0  0  0
  -16.8277   12.9946  -21.5291 C   0  0  0  0  0  0  0  0  0  0  0  0
  -17.4862   14.1304  -21.3545 N   0  0  0  0  0  0  0  0  0  0  0  0
  -18.3000   14.0122  -20.3409 N   0  0  0  0  0  0  0  0  0  0  0  0
  -18.2001   12.7779  -19.8093 C   0  0  0  0  0  0  0  0  0  0  0  0
  -17.2700   12.0940  -20.5425 C   0  0  0  0  0  0  0  0  0  0  0  0
  -18.2088    9.5300  -19.6150 H   0  0  0  0  0  0  0  0  0  0  0  0
  -16.6595    9.5361  -18.7351 H   0  0  0  0  0  0  0  0  0  0  0  0
  -17.3606   15.3504  -22.1282 C   0  0  0  0  0  0  0  0  0  0  0  0
  -18.6602   15.9202  -22.5714 C   0  0  0  0  0  0  0  0  0  0  0  0
  -18.9791   15.6338  -24.0169 C   0  0  0  0  0  0  0  0  0  0  0  0
  -18.1526   14.5545  -24.6019 C   0  0  0  0  0  0  0  0  0  0  0  0
  -16.7258   14.9612  -24.5015 N   0  0  0  0  0  0  0  0  0  0  0  0
  -16.2849   15.3053  -23.1775 C   0  0  0  0  0  0  0  0  0  0  0  0
  -15.9441   14.9794  -25.6815 C   0  0  0  0  0  0  0  0  0  0  0  0
  -16.5832   14.6423  -26.7833 O   0  0  0  0  0  0  0  0  0  0  0  0
  -14.5764   15.3008  -25.8871 C   0  0  0  0  0  0  0  0  0  0  0  0
  -13.5155   14.8140  -25.3495 C   0  0  0  0  0  0  0  0  0  0  0  0
  -18.9807   12.2677  -18.6757 C   0  0  0  0  0  0  0  0  0  0  0  0
  -19.9687   13.0747  -18.1053 C   0  0  0  0  0  0  0  0  0  0  0  0
  -20.6635   12.6463  -17.0076 C   0  0  0  0  0  0  0  0  0  0  0  0
  -20.4423   11.4252  -16.4074 C   0  0  0  0  0  0  0  0  0  0  0  0
  -19.4606   10.6326  -16.9800 C   0  0  0  0  0  0  0  0  0  0  0  0
  -18.7579   11.0517  -18.0795 C   0  0  0  0  0  0  0  0  0  0  0  0
  -21.1608   11.0111  -15.2932 O   0  0  0  0  0  0  0  0  0  0  0  0
  -21.5992    9.7247  -15.0892 C   0  0  0  0  0  0  0  0  0  0  0  0
  -22.7836    9.2448  -15.6147 C   0  0  0  0  0  0  0  0  0  0  0  0
  -23.1981    7.9467  -15.3925 C   0  0  0  0  0  0  0  0  0  0  0  0
  -22.4212    7.0906  -14.6271 C   0  0  0  0  0  0  0  0  0  0  0  0
  -21.2506    7.5508  -14.1027 C   0  0  0  0  0  0  0  0  0  0  0  0
  -20.8482    8.8428  -14.3298 C   0  0  0  0  0  0  0  0  0  0  0  0
  1  2  1  0  0  0
  2  3  2  0  0  0
  3  4  1  0  0  0
  4  5  2  0  0  0
  5  6  1  0  0  0
  6  7  1  0  0  0
  7  8  1  0  0  0
  8  9  2  0  0  0
  9 23  1  0  0  0
 23 24  2  0  0  0
 24 25  1  0  0  0
 25 26  2  0  0  0
 26 29  1  0  0  0
 29 30  1  0  0  0
 30 31  2  0  0  0
 31 32  1  0  0  0
 32 33  2  0  0  0
 33 34  1  0  0  0
 34 35  2  0  0  0
 26 27  1  0  0  0
 27 28  2  0  0  0
  9 10  1  0  0  0
  7 13  1  0  0  0
 13 14  1  0  0  0
 14 15  1  0  0  0
 15 16  1  0  0  0
 16 17  1  0  0  0
 17 18  1  0  0  0
 17 19  1  0  0  0
 19 20  2  0  0  0
 19 21  1  0  0  0
 21 22  2  0  0  0
 10  2  1  0  0  0
 18 13  1  0  0  0
 10  6  2  0  0  0
 28 23  1  0  0  0
 35 30  1  0  0  0
  1 11  1  0  0  0
  1 12  1  0  0  0
M  END
> <minimizedAffinity>
-8.70896

> <CNNscore>
0.5775155425

> <CNNaffinity>
7.3435659409

> <CNN_VS>
4.2410235405

> <CNNaffinity_variance>
0.2745484412

$$$$
[H]C([H])=C([H])C(=O)N1C([H])([H])C([H])([H])C([H])([H])[C@@]([H])(n2nc(-c3c([H])c([H])c(Oc4c([H])c([H])c([H])c([H])c4[H])c([H])c3[H])c3c(N([H])[H])nc([H])nc32)C1([H])[H]


 35 39  0  0  0  0  0  0  0  0999 V2000
  -16.8044   10.1240  -18.5038 N   0  0  0  0  0  0  0  0  0  0  0  0
  -16.5049   10.6722  -19.7780 C   0  0  0  0  0  0  0  0  0  0  0  0
  -15.6247   10.0899  -20.6025 N   0  0  0  0  0  0  0  0  0  0  0  0
  -15.3805   10.6005  -21.8197 C   0  0  0  0  0  0  0  0  0  0  0  0
  -15.9963   11.7015  -22.2643 N   0  0  0  0  0  0  0  0  0  0  0  0
  -16.9005   12.3422  -21.4793 C   0  0  0  0  0  0  0  0  0  0  0  0
  -17.6613   13.4149  -21.6364 N   0  0  0  0  0  0  0  0  0  0  0  0
  -18.3767   13.6044  -20.5612 N   0  0  0  0  0  0  0  0  0  0  0  0
  -18.1043   12.6493  -19.6505 C   0  0  0  0  0  0  0  0  0  0  0  0
  -17.1659   11.8198  -20.2000 C   0  0  0  0  0  0  0  0  0  0  0  0
  -17.7501    9.6893  -18.3464 H   0  0  0  0  0  0  0  0  0  0  0  0
  -16.1468   10.1198  -17.6993 H   0  0  0  0  0  0  0  0  0  0  0  0
  -17.7274   14.2875  -22.7927 C   0  0  0  0  0  0  0  0  0  0  0  0
  -16.3997   14.6272  -23.3689 C   0  0  0  0  0  0  0  0  0  0  0  0
  -15.9149   16.0033  -22.9885 C   0  0  0  0  0  0  0  0  0  0  0  0
  -16.6461   16.5923  -21.8447 C   0  0  0  0  0  0  0  0  0  0  0  0
  -18.0841   16.6799  -22.2132 N   0  0  0  0  0  0  0  0  0  0  0  0
  -18.6779   15.4420  -22.6385 C   0  0  0  0  0  0  0  0  0  0  0  0
  -18.7294   17.9366  -22.1217 C   0  0  0  0  0  0  0  0  0  0  0  0
  -17.9638   18.9331  -21.7256 O   0  0  0  0  0  0  0  0  0  0  0  0
  -20.0725   18.3146  -22.3848 C   0  0  0  0  0  0  0  0  0  0  0  0
  -20.6744   18.5326  -23.4990 C   0  0  0  0  0  0  0  0  0  0  0  0
  -18.7354   12.5182  -18.3317 C   0  0  0  0  0  0  0  0  0  0  0  0
  -19.5052   11.3866  -18.0497 C   0  0  0  0  0  0  0  0  0  0  0  0
  -20.1560   11.2734  -16.8518 C   0  0  0  0  0  0  0  0  0  0  0  0
  -20.0982   12.2399  -15.8706 C   0  0  0  0  0  0  0  0  0  0  0  0
  -19.3329   13.3581  -16.1599 C   0  0  0  0  0  0  0  0  0  0  0  0
  -18.6768   13.4825  -17.3567 C   0  0  0  0  0  0  0  0  0  0  0  0
  -20.7675   12.1030  -14.6613 O   0  0  0  0  0  0  0  0  0  0  0  0
  -22.0640   12.5039  -14.4446 C   0  0  0  0  0  0  0  0  0  0  0  0
  -23.0511   11.6422  -14.0059 C   0  0  0  0  0  0  0  0  0  0  0  0
  -24.3456   12.0743  -13.7970 C   0  0  0  0  0  0  0  0  0  0  0  0
  -24.6816   13.3996  -14.0275 C   0  0  0  0  0  0  0  0  0  0  0  0
  -23.7179   14.2603  -14.4605 C   0  0  0  0  0  0  0  0  0  0  0  0
  -22.4344   13.8202  -14.6648 C   0  0  0  0  0  0  0  0  0  0  0  0
  1  2  1  0  0  0
  2  3  2  0  0  0
  3  4  1  0  0  0
  4  5  2  0  0  0
  5  6  1  0  0  0
  6  7  1  0  0  0
  7  8  1  0  0  0
  8  9  2  0  0  0
  9 23  1  0  0  0
 23 24  2  0  0  0
 24 25  1  0  0  0
 25 26  2  0  0  0
 26 29  1  0  0  0
 29 30  1  0  0  0
 30 31  2  0  0  0
 31 32  1  0  0  0
 32 33  2  0  0  0
 33 34  1  0  0  0
 34 35  2  0  0  0
 26 27  1  0  0  0
 27 28  2  0  0  0
  9 10  1  0  0  0
  7 13  1  0  0  0
 13 14  1  0  0  0
 14 15  1  0  0  0
 15 16  1  0  0  0
 16 17  1  0  0  0
 17 18  1  0  0  0
 17 19  1  0  0  0
 19 20  2  0  0  0
 19 21  1  0  0  0
 21 22  2  0  0  0
 10  2  1  0  0  0
 18 13  1  0  0  0
 10  6  2  0  0  0
 28 23  1  0  0  0
 35 30  1  0  0  0
  1 11  1  0  0  0
  1 12  1  0  0  0
M  END
> <minimizedAffinity>
-7.88051

> <CNNscore>
0.5498033762

> <CNNaffinity>
7.2279639244

> <CNN_VS>
3.9739589691

> <CNNaffinity_variance>
0.2063575983

$$$$
[H]C([H])=C([H])C(=O)N1C([H])([H])C([H])([H])C([H])([H])[C@@]([H])(n2nc(-c3c([H])c([H])c(Oc4c([H])c([H])c([H])c([H])c4[H])c([H])c3[H])c3c(N([H])[H])nc([H])nc32)C1([H])[H]


 35 39  0  0  0  0  0  0  0  0999 V2000
  -17.3195   10.4249  -20.8344 N   0  0  0  0  0  0  0  0  0  0  0  0
  -17.3055   11.8148  -21.1207 C   0  0  0  0  0  0  0  0  0  0  0  0
  -16.8121   12.2886  -22.2720 N   0  0  0  0  0  0  0  0  0  0  0  0
  -16.8405   13.6029  -22.5434 C   0  0  0  0  0  0  0  0  0  0  0  0
  -17.3567   14.4933  -21.6890 N   0  0  0  0  0  0  0  0  0  0  0  0
  -17.8738   14.0810  -20.5029 C   0  0  0  0  0  0  0  0  0  0  0  0
  -18.4495   14.6999  -19.4833 N   0  0  0  0  0  0  0  0  0  0  0  0
  -18.7842   13.8254  -18.5739 N   0  0  0  0  0  0  0  0  0  0  0  0
  -18.4335   12.5868  -18.9724 C   0  0  0  0  0  0  0  0  0  0  0  0
  -17.8497   12.7062  -20.2035 C   0  0  0  0  0  0  0  0  0  0  0  0
  -18.2414    9.9172  -20.8227 H   0  0  0  0  0  0  0  0  0  0  0  0
  -16.4709    9.8606  -20.6318 H   0  0  0  0  0  0  0  0  0  0  0  0
  -18.6902   16.1224  -19.3372 C   0  0  0  0  0  0  0  0  0  0  0  0
  -18.3403   16.6589  -17.9956 C   0  0  0  0  0  0  0  0  0  0  0  0
  -19.5377   16.8772  -17.1057 C   0  0  0  0  0  0  0  0  0  0  0  0
  -20.7579   16.1845  -17.5763 C   0  0  0  0  0  0  0  0  0  0  0  0
  -21.0786   16.6902  -18.9375 N   0  0  0  0  0  0  0  0  0  0  0  0
  -20.0093   16.5831  -19.8919 C   0  0  0  0  0  0  0  0  0  0  0  0
  -22.3689   17.2226  -19.1735 C   0  0  0  0  0  0  0  0  0  0  0  0
  -23.1714   17.2331  -18.1285 O   0  0  0  0  0  0  0  0  0  0  0  0
  -22.9557   17.7526  -20.3529 C   0  0  0  0  0  0  0  0  0  0  0  0
  -23.2786   17.1762  -21.4551 C   0  0  0  0  0  0  0  0  0  0  0  0
  -18.6749   11.3462  -18.2259 C   0  0  0  0  0  0  0  0  0  0  0  0
  -19.8106   11.2422  -17.4184 C   0  0  0  0  0  0  0  0  0  0  0  0
  -20.0223   10.1215  -16.6631 C   0  0  0  0  0  0  0  0  0  0  0  0
  -19.1549    9.0503  -16.6480 C   0  0  0  0  0  0  0  0  0  0  0  0
  -18.0317    9.1631  -17.4514 C   0  0  0  0  0  0  0  0  0  0  0  0
  -17.8091   10.2812  -18.2120 C   0  0  0  0  0  0  0  0  0  0  0  0
  -19.3909    7.9221  -15.8729 O   0  0  0  0  0  0  0  0  0  0  0  0
  -19.7964    7.9559  -14.5603 C   0  0  0  0  0  0  0  0  0  0  0  0
  -20.9672    7.3669  -14.1225 C   0  0  0  0  0  0  0  0  0  0  0  0
  -21.3485    7.4174  -12.7966 C   0  0  0  0  0  0  0  0  0  0  0  0
  -20.5513    8.0697  -11.8686 C   0  0  0  0  0  0  0  0  0  0  0  0
  -19.3939    8.6552  -12.2866 C   0  0  0  0  0  0  0  0  0  0  0  0
  -19.0244    8.5989  -13.6069 C   0  0  0  0  0  0  0  0  0  0  0  0
  1  2  1  0  0  0
  2  3  2  0  0  0
  3  4  1  0  0  0
  4  5  2  0  0  0
  5  6  1  0  0  0
  6  7  1  0  0  0
  7  8  1  0  0  0
  8  9  2  0  0  0
  9 23  1  0  0  0
 23 24  2  0  0  0
 24 25  1  0  0  0
 25 26  2  0  0  0
 26 29  1  0  0  0
 29 30  1  0  0  0
 30 31  2  0  0  0
 31 32  1  0  0  0
 32 33  2  0  0  0
 33 34  1  0  0  0
 34 35  2  0  0  0
 26 27  1  0  0  0
 27 28  2  0  0  0
  9 10  1  0  0  0
  7 13  1  0  0  0
 13 14  1  0  0  0
 14 15  1  0  0  0
 15 16  1  0  0  0
 16 17  1  0  0  0
 17 18  1  0  0  0
 17 19  1  0  0  0
 19 20  2  0  0  0
 19 21  1  0  0  0
 21 22  2  0  0  0
 10  2  1  0  0  0
 18 13  1  0  0  0
 10  6  2  0  0  0
 28 23  1  0  0  0
 35 30  1  0  0  0
  1 11  1  0  0  0
  1 12  1  0  0  0
M  END
> <minimizedAffinity>
-8.09604

> <CNNscore>
0.3850220740

> <CNNaffinity>
6.9653348923

> <CNN_VS>
2.6818077564

> <CNNaffinity_variance>
0.3165148795

$$$$
[H]Oc1c([H])c([H])c(-n2nc(C(C([H])([H])[H])(C([H])([H])[H])C([H])([H])[H])c([H])c2N([H])C(=O)N([H])c2c([H])c([H])c(Oc3c([H])c([H])nc4c3nc([H])c(=O)n4[H])c3c([H])c([H])c([H])c([H])c23)c([H])c1[H]


 46 51  0  0  0  0  0  0  0  0999 V2000
  -18.5334   13.8750  -18.4491 N   0  0  0  0  0  0  0  0  0  0  0  0
  -19.4325   14.7063  -19.1688 C   0  0  0  0  0  0  0  0  0  0  0  0
  -20.5756   14.2841  -19.3666 O   0  0  0  0  0  0  0  0  0  0  0  0
  -18.9249   15.9593  -19.5993 N   0  0  0  0  0  0  0  0  0  0  0  0
  -17.5596   14.2772  -18.3075 H   0  0  0  0  0  0  0  0  0  0  0  0
  -17.9091   16.1233  -19.3104 H   0  0  0  0  0  0  0  0  0  0  0  0
  -19.5926   16.9521  -20.3506 C   0  0  0  0  0  0  0  0  0  0  0  0
  -19.4196   17.0783  -21.7139 C   0  0  0  0  0  0  0  0  0  0  0  0
  -19.9936   18.0996  -22.4693 C   0  0  0  0  0  0  0  0  0  0  0  0
  -20.7740   19.0299  -21.8133 C   0  0  0  0  0  0  0  0  0  0  0  0
  -20.9886   18.9645  -20.4490 C   0  0  0  0  0  0  0  0  0  0  0  0
  -21.7542   19.9062  -19.7796 C   0  0  0  0  0  0  0  0  0  0  0  0
  -21.9424   19.8269  -18.4097 C   0  0  0  0  0  0  0  0  0  0  0  0
  -21.3643   18.8071  -17.7192 C   0  0  0  0  0  0  0  0  0  0  0  0
  -20.5960   17.8664  -18.3963 C   0  0  0  0  0  0  0  0  0  0  0  0
  -20.3811   17.9074  -19.7459 C   0  0  0  0  0  0  0  0  0  0  0  0
  -21.3478   20.0505  -22.5545 O   0  0  0  0  0  0  0  0  0  0  0  0
  -22.0552   19.8831  -23.7315 C   0  0  0  0  0  0  0  0  0  0  0  0
  -23.1540   19.0298  -23.7966 C   0  0  0  0  0  0  0  0  0  0  0  0
  -23.8936   18.8268  -24.9401 C   0  0  0  0  0  0  0  0  0  0  0  0
  -23.4943   19.5122  -26.0300 N   0  0  0  0  0  0  0  0  0  0  0  0
  -22.4300   20.3493  -25.9991 C   0  0  0  0  0  0  0  0  0  0  0  0
  -22.1070   20.9939  -27.1429 N   0  0  0  0  0  0  0  0  0  0  0  0
  -21.0723   21.8262  -27.1618 C   0  0  0  0  0  0  0  0  0  0  0  0
  -20.7307   22.4542  -28.2137 O   0  0  0  0  0  0  0  0  0  0  0  0
  -20.3058   22.0581  -26.0365 C   0  0  0  0  0  0  0  0  0  0  0  0
  -20.6393   21.4070  -24.9010 N   0  0  0  0  0  0  0  0  0  0  0  0
  -21.6785   20.5623  -24.8562 C   0  0  0  0  0  0  0  0  0  0  0  0
  -22.6811   20.8256  -27.9985 H   0  0  0  0  0  0  0  0  0  0  0  0
  -19.6486   10.9277  -16.7653 C   0  0  0  0  0  0  0  0  0  0  0  0
  -19.6364   12.3141  -16.8531 C   0  0  0  0  0  0  0  0  0  0  0  0
  -18.8466   12.6142  -17.9178 C   0  0  0  0  0  0  0  0  0  0  0  0
  -18.3882   11.4369  -18.4663 N   0  0  0  0  0  0  0  0  0  0  0  0
  -18.8824   10.4599  -17.7576 N   0  0  0  0  0  0  0  0  0  0  0  0
  -17.5449   11.3466  -19.6036 C   0  0  0  0  0  0  0  0  0  0  0  0
  -17.7510   12.0987  -20.7440 C   0  0  0  0  0  0  0  0  0  0  0  0
  -16.9117   12.0308  -21.8513 C   0  0  0  0  0  0  0  0  0  0  0  0
  -15.8281   11.1916  -21.8285 C   0  0  0  0  0  0  0  0  0  0  0  0
  -14.9907   11.1133  -22.9164 O   0  0  0  0  0  0  0  0  0  0  0  0
  -15.6025   10.4329  -20.6997 C   0  0  0  0  0  0  0  0  0  0  0  0
  -16.4429   10.5080  -19.6085 C   0  0  0  0  0  0  0  0  0  0  0  0
  -14.1790   10.5396  -23.0023 H   0  0  0  0  0  0  0  0  0  0  0  0
  -21.8738   10.4985  -15.9433 C   0  0  0  0  0  0  0  0  0  0  0  0
  -20.4111   10.1860  -15.7320 C   0  0  0  0  0  0  0  0  0  0  0  0
  -19.9262   10.6339  -14.3735 C   0  0  0  0  0  0  0  0  0  0  0  0
  -20.1186    8.7080  -15.8763 C   0  0  0  0  0  0  0  0  0  0  0  0
 43 44  1  0  0  0
 44 45  1  0  0  0
 44 46  1  0  0  0
 44 30  1  0  0  0
 30 31  1  0  0  0
 31 32  2  0  0  0
 32  1  1  0  0  0
  1  2  1  0  0  0
  2  3  2  0  0  0
  2  4  1  0  0  0
  4  7  1  0  0  0
  7  8  2  0  0  0
  8  9  1  0  0  0
  9 10  2  0  0  0
 10 17  1  0  0  0
 17 18  1  0  0  0
 18 19  2  0  0  0
 19 20  1  0  0  0
 20 21  2  0  0  0
 21 22  1  0  0  0
 22 23  1  0  0  0
 23 24  1  0  0  0
 24 25  2  0  0  0
 24 26  1  0  0  0
 26 27  2  0  0  0
 27 28  1  0  0  0
 10 11  1  0  0  0
 11 12  2  0  0  0
 12 13  1  0  0  0
 13 14  2  0  0  0
 14 15  1  0  0  0
 15 16  2  0  0  0
 32 33  1  0  0  0
 33 34  1  0  0  0
 33 35  1  0  0  0
 35 36  2  0  0  0
 36 37  1  0  0  0
 37 38  2  0  0  0
 38 39  1  0  0  0
 38 40  1  0  0  0
 40 41  2  0  0  0
 34 30  2  0  0  0
 41 35  1  0  0  0
 16  7  1  0  0  0
 28 18  1  0  0  0
 16 11  1  0  0  0
 28 22  2  0  0  0
  1  5  1  0  0  0
  4  6  1  0  0  0
 23 29  1  0  0  0
 39 42  1  0  0  0
M  END
> <minimizedAffinity>
-10.07694

> <CNNscore>
0.0794431791

> <CNNaffinity>
6.8246307373

> <CNN_VS>
0.5421703458

> <CNNaffinity_variance>
0.0979646221

$$$$
[H]Oc1c([H])c([H])c(-n2nc(C(C([H])([H])[H])(C([H])([H])[H])C([H])([H])[H])c([H])c2N([H])C(=O)N([H])c2c([H])c([H])c(Oc3c([H])c([H])nc4c3nc([H])c(=O)n4[H])c3c([H])c([H])c([H])c([H])c23)c([H])c1[H]


 46 51  0  0  0  0  0  0  0  0999 V2000
  -20.5655   13.0518  -18.4440 N   0  0  0  0  0  0  0  0  0  0  0  0
  -20.3209   12.7912  -17.0694 C   0  0  0  0  0  0  0  0  0  0  0  0
  -19.6222   13.5953  -16.4454 O   0  0  0  0  0  0  0  0  0  0  0  0
  -20.9094   11.6152  -16.5365 N   0  0  0  0  0  0  0  0  0  0  0  0
  -21.1672   12.3302  -18.9416 H   0  0  0  0  0  0  0  0  0  0  0  0
  -21.4829   11.0694  -17.2544 H   0  0  0  0  0  0  0  0  0  0  0  0
  -20.8003   11.1123  -15.2207 C   0  0  0  0  0  0  0  0  0  0  0  0
  -19.7798   11.4936  -14.3736 C   0  0  0  0  0  0  0  0  0  0  0  0
  -19.5934   10.9508  -13.1033 C   0  0  0  0  0  0  0  0  0  0  0  0
  -20.4790    9.9819  -12.6769 C   0  0  0  0  0  0  0  0  0  0  0  0
  -21.5234    9.5518  -13.4743 C   0  0  0  0  0  0  0  0  0  0  0  0
  -22.4047    8.5649  -13.0616 C   0  0  0  0  0  0  0  0  0  0  0  0
  -23.4347    8.1409  -13.8848 C   0  0  0  0  0  0  0  0  0  0  0  0
  -23.5762    8.7066  -15.1141 C   0  0  0  0  0  0  0  0  0  0  0  0
  -22.6878    9.6951  -15.5230 C   0  0  0  0  0  0  0  0  0  0  0  0
  -21.6557   10.1417  -14.7452 C   0  0  0  0  0  0  0  0  0  0  0  0
  -20.3015    9.4343  -11.4163 O   0  0  0  0  0  0  0  0  0  0  0  0
  -19.0869    9.2955  -10.7691 C   0  0  0  0  0  0  0  0  0  0  0  0
  -18.5325   10.3475  -10.0439 C   0  0  0  0  0  0  0  0  0  0  0  0
  -17.3288   10.2639   -9.3806 C   0  0  0  0  0  0  0  0  0  0  0  0
  -16.6889    9.0805   -9.4669 N   0  0  0  0  0  0  0  0  0  0  0  0
  -17.2016    8.0387  -10.1641 C   0  0  0  0  0  0  0  0  0  0  0  0
  -16.4866    6.8914  -10.1916 N   0  0  0  0  0  0  0  0  0  0  0  0
  -16.9489    5.8416  -10.8610 C   0  0  0  0  0  0  0  0  0  0  0  0
  -16.3118    4.7422  -10.9152 O   0  0  0  0  0  0  0  0  0  0  0  0
  -18.1517    5.8842  -11.5384 C   0  0  0  0  0  0  0  0  0  0  0  0
  -18.8551    7.0367  -11.5033 N   0  0  0  0  0  0  0  0  0  0  0  0
  -18.4103    8.1097  -10.8350 C   0  0  0  0  0  0  0  0  0  0  0  0
  -15.5766    6.8494   -9.6817 H   0  0  0  0  0  0  0  0  0  0  0  0
  -19.7684   16.1599  -20.0155 C   0  0  0  0  0  0  0  0  0  0  0  0
  -20.6285   15.4185  -19.2152 C   0  0  0  0  0  0  0  0  0  0  0  0
  -20.0962   14.1694  -19.1514 C   0  0  0  0  0  0  0  0  0  0  0  0
  -18.9378   14.1506  -19.8961 N   0  0  0  0  0  0  0  0  0  0  0  0
  -18.7762   15.3454  -20.3934 N   0  0  0  0  0  0  0  0  0  0  0  0
  -18.0952   13.0205  -20.0563 C   0  0  0  0  0  0  0  0  0  0  0  0
  -17.5241   12.3607  -18.9853 C   0  0  0  0  0  0  0  0  0  0  0  0
  -16.7177   11.2374  -19.1373 C   0  0  0  0  0  0  0  0  0  0  0  0
  -16.4701   10.7473  -20.3934 C   0  0  0  0  0  0  0  0  0  0  0  0
  -15.6738    9.6385  -20.5588 O   0  0  0  0  0  0  0  0  0  0  0  0
  -17.0314   11.3894  -21.4766 C   0  0  0  0  0  0  0  0  0  0  0  0
  -17.8282   12.5033  -21.3130 C   0  0  0  0  0  0  0  0  0  0  0  0
  -15.4329    9.2027  -21.4233 H   0  0  0  0  0  0  0  0  0  0  0  0
  -21.4697   17.7891  -20.5278 C   0  0  0  0  0  0  0  0  0  0  0  0
  -19.9850   17.5926  -20.3308 C   0  0  0  0  0  0  0  0  0  0  0  0
  -19.1987   17.9273  -21.5762 C   0  0  0  0  0  0  0  0  0  0  0  0
  -19.4466   18.4302  -19.1909 C   0  0  0  0  0  0  0  0  0  0  0  0
 43 44  1  0  0  0
 44 45  1  0  0  0
 44 46  1  0  0  0
 44 30  1  0  0  0
 30 31  1  0  0  0
 31 32  2  0  0  0
 32  1  1  0  0  0
  1  2  1  0  0  0
  2  3  2  0  0  0
  2  4  1  0  0  0
  4  7  1  0  0  0
  7  8  2  0  0  0
  8  9  1  0  0  0
  9 10  2  0  0  0
 10 17  1  0  0  0
 17 18  1  0  0  0
 18 19  2  0  0  0
 19 20  1  0  0  0
 20 21  2  0  0  0
 21 22  1  0  0  0
 22 23  1  0  0  0
 23 24  1  0  0  0
 24 25  2  0  0  0
 24 26  1  0  0  0
 26 27  2  0  0  0
 27 28  1  0  0  0
 10 11  1  0  0  0
 11 12  2  0  0  0
 12 13  1  0  0  0
 13 14  2  0  0  0
 14 15  1  0  0  0
 15 16  2  0  0  0
 32 33  1  0  0  0
 33 34  1  0  0  0
 33 35  1  0  0  0
 35 36  2  0  0  0
 36 37  1  0  0  0
 37 38  2  0  0  0
 38 39  1  0  0  0
 38 40  1  0  0  0
 40 41  2  0  0  0
 34 30  2  0  0  0
 41 35  1  0  0  0
 16  7  1  0  0  0
 28 18  1  0  0  0
 16 11  1  0  0  0
 28 22  2  0  0  0
  1  5  1  0  0  0
  4  6  1  0  0  0
 23 29  1  0  0  0
 39 42  1  0  0  0
M  END
> <minimizedAffinity>
-9.47921

> <CNNscore>
0.0705993474

> <CNNaffinity>
6.7934708595

> <CNN_VS>
0.4796146154

> <CNNaffinity_variance>
0.0910029933

$$$$
[H]Oc1c([H])c([H])c(-n2nc(C(C([H])([H])[H])(C([H])([H])[H])C([H])([H])[H])c([H])c2N([H])C(=O)N([H])c2c([H])c([H])c(Oc3c([H])c([H])nc4c3nc([H])c(=O)n4[H])c3c([H])c([H])c([H])c([H])c23)c([H])c1[H]


 46 51  0  0  0  0  0  0  0  0999 V2000
  -19.6920    9.8685  -15.2319 N   0  0  0  0  0  0  0  0  0  0  0  0
  -19.7306   10.9425  -16.1606 C   0  0  0  0  0  0  0  0  0  0  0  0
  -20.4297   11.9211  -15.8819 O   0  0  0  0  0  0  0  0  0  0  0  0
  -18.9529   10.7866  -17.3370 N   0  0  0  0  0  0  0  0  0  0  0  0
  -19.0817    9.0458  -15.5163 H   0  0  0  0  0  0  0  0  0  0  0  0
  -18.4177    9.8620  -17.3680 H   0  0  0  0  0  0  0  0  0  0  0  0
  -18.8384   11.6816  -18.4242 C   0  0  0  0  0  0  0  0  0  0  0  0
  -19.6720   12.7723  -18.5653 C   0  0  0  0  0  0  0  0  0  0  0  0
  -19.6434   13.6227  -19.6694 C   0  0  0  0  0  0  0  0  0  0  0  0
  -18.7317   13.3540  -20.6701 C   0  0  0  0  0  0  0  0  0  0  0  0
  -17.8674   12.2775  -20.5945 C   0  0  0  0  0  0  0  0  0  0  0  0
  -16.9630   11.9889  -21.6044 C   0  0  0  0  0  0  0  0  0  0  0  0
  -16.1174   10.8959  -21.5117 C   0  0  0  0  0  0  0  0  0  0  0  0
  -16.1818   10.0998  -20.4103 C   0  0  0  0  0  0  0  0  0  0  0  0
  -17.0924   10.3936  -19.4012 C   0  0  0  0  0  0  0  0  0  0  0  0
  -17.9475   11.4592  -19.4522 C   0  0  0  0  0  0  0  0  0  0  0  0
  -18.6962   14.1921  -21.7731 O   0  0  0  0  0  0  0  0  0  0  0  0
  -17.7404   15.1642  -22.0077 C   0  0  0  0  0  0  0  0  0  0  0  0
  -17.3131   16.0147  -20.9909 C   0  0  0  0  0  0  0  0  0  0  0  0
  -16.3653   16.9976  -21.1685 C   0  0  0  0  0  0  0  0  0  0  0  0
  -15.8523   17.1045  -22.4106 N   0  0  0  0  0  0  0  0  0  0  0  0
  -16.2470   16.2929  -23.4204 C   0  0  0  0  0  0  0  0  0  0  0  0
  -15.6739   16.4761  -24.6313 N   0  0  0  0  0  0  0  0  0  0  0  0
  -16.0272   15.7037  -25.6523 C   0  0  0  0  0  0  0  0  0  0  0  0
  -15.5160   15.8388  -26.8089 O   0  0  0  0  0  0  0  0  0  0  0  0
  -16.9729   14.7065  -25.5156 C   0  0  0  0  0  0  0  0  0  0  0  0
  -17.5379   14.5350  -24.3007 N   0  0  0  0  0  0  0  0  0  0  0  0
  -17.1985   15.3011  -23.2550 C   0  0  0  0  0  0  0  0  0  0  0  0
  -14.9573   17.2269  -24.7441 H   0  0  0  0  0  0  0  0  0  0  0  0
  -21.2435   10.2879  -12.0409 C   0  0  0  0  0  0  0  0  0  0  0  0
  -20.4139   10.7916  -13.0349 C   0  0  0  0  0  0  0  0  0  0  0  0
  -20.3678    9.8379  -14.0023 C   0  0  0  0  0  0  0  0  0  0  0  0
  -21.1518    8.7769  -13.6063 N   0  0  0  0  0  0  0  0  0  0  0  0
  -21.6531    9.0782  -12.4405 N   0  0  0  0  0  0  0  0  0  0  0  0
  -21.3608    7.5959  -14.3640 C   0  0  0  0  0  0  0  0  0  0  0  0
  -20.5968    6.4577  -14.1932 C   0  0  0  0  0  0  0  0  0  0  0  0
  -20.8151    5.2899  -14.9170 C   0  0  0  0  0  0  0  0  0  0  0  0
  -21.8273    5.2455  -15.8403 C   0  0  0  0  0  0  0  0  0  0  0  0
  -22.0537    4.0982  -16.5639 O   0  0  0  0  0  0  0  0  0  0  0  0
  -22.6033    6.3697  -16.0259 C   0  0  0  0  0  0  0  0  0  0  0  0
  -22.3760    7.5223  -15.3030 C   0  0  0  0  0  0  0  0  0  0  0  0
  -22.7600    3.9605  -17.2550 H   0  0  0  0  0  0  0  0  0  0  0  0
  -22.6238   10.2392  -10.0652 C   0  0  0  0  0  0  0  0  0  0  0  0
  -21.5688   11.0321  -10.8002 C   0  0  0  0  0  0  0  0  0  0  0  0
  -22.0602   12.4067  -11.1879 C   0  0  0  0  0  0  0  0  0  0  0  0
  -20.3057   11.1935   -9.9821 C   0  0  0  0  0  0  0  0  0  0  0  0
 43 44  1  0  0  0
 44 45  1  0  0  0
 44 46  1  0  0  0
 44 30  1  0  0  0
 30 31  1  0  0  0
 31 32  2  0  0  0
 32  1  1  0  0  0
  1  2  1  0  0  0
  2  3  2  0  0  0
  2  4  1  0  0  0
  4  7  1  0  0  0
  7  8  2  0  0  0
  8  9  1  0  0  0
  9 10  2  0  0  0
 10 17  1  0  0  0
 17 18  1  0  0  0
 18 19  2  0  0  0
 19 20  1  0  0  0
 20 21  2  0  0  0
 21 22  1  0  0  0
 22 23  1  0  0  0
 23 24  1  0  0  0
 24 25  2  0  0  0
 24 26  1  0  0  0
 26 27  2  0  0  0
 27 28  1  0  0  0
 10 11  1  0  0  0
 11 12  2  0  0  0
 12 13  1  0  0  0
 13 14  2  0  0  0
 14 15  1  0  0  0
 15 16  2  0  0  0
 32 33  1  0  0  0
 33 34  1  0  0  0
 33 35  1  0  0  0
 35 36  2  0  0  0
 36 37  1  0  0  0
 37 38  2  0  0  0
 38 39  1  0  0  0
 38 40  1  0  0  0
 40 41  2  0  0  0
 34 30  2  0  0  0
 41 35  1  0  0  0
 16  7  1  0  0  0
 28 18  1  0  0  0
 16 11  1  0  0  0
 28 22  2  0  0  0
  1  5  1  0  0  0
  4  6  1  0  0  0
 23 29  1  0  0  0
 39 42  1  0  0  0
M  END
> <minimizedAffinity>
-10.21130

> <CNNscore>
0.0504530631

> <CNNaffinity>
6.5665984154

> <CNN_VS>
0.3313049972

> <CNNaffinity_variance>
0.1727091074

$$$$
[H]Oc1c([H])c([H])c(-n2nc(C(C([H])([H])[H])(C([H])([H])[H])C([H])([H])[H])c([H])c2N([H])C(=O)N([H])c2c([H])c([H])c(Oc3c([H])c([H])nc4c3nc([H])c(=O)n4[H])c3c([H])c([H])c([H])c([H])c23)c([H])c1[H]


 46 51  0  0  0  0  0  0  0  0999 V2000
  -18.9579   13.5388  -16.5567 N   0  0  0  0  0  0  0  0  0  0  0  0
  -19.7131   14.6507  -17.0157 C   0  0  0  0  0  0  0  0  0  0  0  0
  -20.8751   14.4478  -17.3799 O   0  0  0  0  0  0  0  0  0  0  0  0
  -19.0516   15.9059  -17.0134 N   0  0  0  0  0  0  0  0  0  0  0  0
  -17.9617   13.7601  -16.2587 H   0  0  0  0  0  0  0  0  0  0  0  0
  -18.0487   15.8521  -16.6483 H   0  0  0  0  0  0  0  0  0  0  0  0
  -19.5588   17.1526  -17.4430 C   0  0  0  0  0  0  0  0  0  0  0  0
  -19.6894   17.4683  -18.7801 C   0  0  0  0  0  0  0  0  0  0  0  0
  -20.1024   18.7188  -19.2369 C   0  0  0  0  0  0  0  0  0  0  0  0
  -20.3938   19.6873  -18.2977 C   0  0  0  0  0  0  0  0  0  0  0  0
  -20.2834   19.4400  -16.9419 C   0  0  0  0  0  0  0  0  0  0  0  0
  -20.5545   20.4132  -15.9930 C   0  0  0  0  0  0  0  0  0  0  0  0
  -20.4225   20.1450  -14.6406 C   0  0  0  0  0  0  0  0  0  0  0  0
  -20.0209   18.9062  -14.2468 C   0  0  0  0  0  0  0  0  0  0  0  0
  -19.7489   17.9346  -15.2036 C   0  0  0  0  0  0  0  0  0  0  0  0
  -19.8625   18.1560  -16.5481 C   0  0  0  0  0  0  0  0  0  0  0  0
  -20.8033   20.9347  -18.7411 O   0  0  0  0  0  0  0  0  0  0  0  0
  -20.5808   21.4454  -20.0073 C   0  0  0  0  0  0  0  0  0  0  0  0
  -19.3490   21.9935  -20.3570 C   0  0  0  0  0  0  0  0  0  0  0  0
  -19.0732   22.5142  -21.6015 C   0  0  0  0  0  0  0  0  0  0  0  0
  -20.0807   22.4694  -22.4960 N   0  0  0  0  0  0  0  0  0  0  0  0
  -21.2897   21.9431  -22.1867 C   0  0  0  0  0  0  0  0  0  0  0  0
  -22.2371   21.9416  -23.1514 N   0  0  0  0  0  0  0  0  0  0  0  0
  -23.4379   21.4349  -22.8962 C   0  0  0  0  0  0  0  0  0  0  0  0
  -24.3604   21.4119  -23.7715 O   0  0  0  0  0  0  0  0  0  0  0  0
  -23.7544   20.9024  -21.6618 C   0  0  0  0  0  0  0  0  0  0  0  0
  -22.7988   20.9111  -20.7072 N   0  0  0  0  0  0  0  0  0  0  0  0
  -21.5797   21.4164  -20.9398 C   0  0  0  0  0  0  0  0  0  0  0  0
  -22.0069   22.3412  -24.0880 H   0  0  0  0  0  0  0  0  0  0  0  0
  -20.4000   10.3460  -15.8556 C   0  0  0  0  0  0  0  0  0  0  0  0
  -20.1475   11.6510  -15.4517 C   0  0  0  0  0  0  0  0  0  0  0  0
  -19.4347   12.2225  -16.4581 C   0  0  0  0  0  0  0  0  0  0  0  0
  -19.2571   11.2865  -17.4528 N   0  0  0  0  0  0  0  0  0  0  0  0
  -19.8408   10.1879  -17.0610 N   0  0  0  0  0  0  0  0  0  0  0  0
  -18.5702   11.5194  -18.6720 C   0  0  0  0  0  0  0  0  0  0  0  0
  -19.0303   12.4047  -19.6276 C   0  0  0  0  0  0  0  0  0  0  0  0
  -18.3463   12.6540  -20.8130 C   0  0  0  0  0  0  0  0  0  0  0  0
  -17.1634   12.0070  -21.0605 C   0  0  0  0  0  0  0  0  0  0  0  0
  -16.4772   12.2427  -22.2287 O   0  0  0  0  0  0  0  0  0  0  0  0
  -16.6849   11.1203  -20.1196 C   0  0  0  0  0  0  0  0  0  0  0  0
  -17.3730   10.8805  -18.9485 C   0  0  0  0  0  0  0  0  0  0  0  0
  -15.6127   11.8283  -22.5047 H   0  0  0  0  0  0  0  0  0  0  0  0
  -22.6255    9.5367  -15.4049 C   0  0  0  0  0  0  0  0  0  0  0  0
  -21.1690    9.3770  -15.0378 C   0  0  0  0  0  0  0  0  0  0  0  0
  -20.9150    9.6812  -13.5803 C   0  0  0  0  0  0  0  0  0  0  0  0
  -20.6592    7.9814  -15.3266 C   0  0  0  0  0  0  0  0  0  0  0  0
 43 44  1  0  0  0
 44 45  1  0  0  0
 44 46  1  0  0  0
 44 30  1  0  0  0
 30 31  1  0  0  0
 31 32  2  0  0  0
 32  1  1  0  0  0
  1  2  1  0  0  0
  2  3  2  0  0  0
  2  4  1  0  0  0
  4  7  1  0  0  0
  7  8  2  0  0  0
  8  9  1  0  0  0
  9 10  2  0  0  0
 10 17  1  0  0  0
 17 18  1  0  0  0
 18 19  2  0  0  0
 19 20  1  0  0  0
 20 21  2  0  0  0
 21 22  1  0  0  0
 22 23  1  0  0  0
 23 24  1  0  0  0
 24 25  2  0  0  0
 24 26  1  0  0  0
 26 27  2  0  0  0
 27 28  1  0  0  0
 10 11  1  0  0  0
 11 12  2  0  0  0
 12 13  1  0  0  0
 13 14  2  0  0  0
 14 15  1  0  0  0
 15 16  2  0  0  0
 32 33  1  0  0  0
 33 34  1  0  0  0
 33 35  1  0  0  0
 35 36  2  0  0  0
 36 37  1  0  0  0
 37 38  2  0  0  0
 38 39  1  0  0  0
 38 40  1  0  0  0
 40 41  2  0  0  0
 34 30  2  0  0  0
 41 35  1  0  0  0
 16  7  1  0  0  0
 28 18  1  0  0  0
 16 11  1  0  0  0
 28 22  2  0  0  0
  1  5  1  0  0  0
  4  6  1  0  0  0
 23 29  1  0  0  0
 39 42  1  0  0  0
M  END
> <minimizedAffinity>
-8.73591

> <CNNscore>
0.0488992706

> <CNNaffinity>
6.8443212509

> <CNN_VS>
0.3346823156

> <CNNaffinity_variance>
0.2952875495

$$$$
[H]Oc1c([H])c([H])c(-n2nc(C(C([H])([H])[H])(C([H])([H])[H])C([H])([H])[H])c([H])c2N([H])C(=O)N([H])c2c([H])c([H])c(Oc3c([H])c([H])nc4c3nc([H])c(=O)n4[H])c3c([H])c([H])c([H])c([H])c23)c([H])c1[H]


 46 51  0  0  0  0  0  0  0  0999 V2000
  -21.5053   11.1799  -14.7289 N   0  0  0  0  0  0  0  0  0  0  0  0
  -20.4456   11.8145  -15.4300 C   0  0  0  0  0  0  0  0  0  0  0  0
  -19.4237   12.0975  -14.7977 O   0  0  0  0  0  0  0  0  0  0  0  0
  -20.6648   12.0680  -16.8087 N   0  0  0  0  0  0  0  0  0  0  0  0
  -22.3665   10.9602  -15.3122 H   0  0  0  0  0  0  0  0  0  0  0  0
  -21.6194   11.7311  -17.1516 H   0  0  0  0  0  0  0  0  0  0  0  0
  -19.7952   12.7068  -17.7206 C   0  0  0  0  0  0  0  0  0  0  0  0
  -19.9636   14.0253  -18.0916 C   0  0  0  0  0  0  0  0  0  0  0  0
  -19.1782   14.6585  -19.0535 C   0  0  0  0  0  0  0  0  0  0  0  0
  -18.1823   13.9226  -19.6630 C   0  0  0  0  0  0  0  0  0  0  0  0
  -17.9589   12.5968  -19.3405 C   0  0  0  0  0  0  0  0  0  0  0  0
  -16.9743   11.8451  -19.9624 C   0  0  0  0  0  0  0  0  0  0  0  0
  -16.7797   10.5143  -19.6320 C   0  0  0  0  0  0  0  0  0  0  0  0
  -17.5703    9.9447  -18.6824 C   0  0  0  0  0  0  0  0  0  0  0  0
  -18.5574   10.7036  -18.0633 C   0  0  0  0  0  0  0  0  0  0  0  0
  -18.7866   12.0184  -18.3601 C   0  0  0  0  0  0  0  0  0  0  0  0
  -17.3969   14.5419  -20.6221 O   0  0  0  0  0  0  0  0  0  0  0  0
  -17.8542   15.0422  -21.8280 C   0  0  0  0  0  0  0  0  0  0  0  0
  -18.4956   16.2765  -21.8993 C   0  0  0  0  0  0  0  0  0  0  0  0
  -18.9691   16.8218  -23.0716 C   0  0  0  0  0  0  0  0  0  0  0  0
  -18.7790   16.0844  -24.1840 N   0  0  0  0  0  0  0  0  0  0  0  0
  -18.1592   14.8808  -24.1477 C   0  0  0  0  0  0  0  0  0  0  0  0
  -18.0139   14.2159  -25.3161 N   0  0  0  0  0  0  0  0  0  0  0  0
  -17.4113   13.0325  -25.3314 C   0  0  0  0  0  0  0  0  0  0  0  0
  -17.2520   12.3704  -26.4056 O   0  0  0  0  0  0  0  0  0  0  0  0
  -16.9217   12.4515  -24.1781 C   0  0  0  0  0  0  0  0  0  0  0  0
  -17.0743   13.1263  -23.0180 N   0  0  0  0  0  0  0  0  0  0  0  0
  -17.6785   14.3216  -22.9761 C   0  0  0  0  0  0  0  0  0  0  0  0
  -18.3800   14.6476  -26.1933 H   0  0  0  0  0  0  0  0  0  0  0  0
  -21.5060   10.7833  -11.1781 C   0  0  0  0  0  0  0  0  0  0  0  0
  -21.5302   11.6291  -12.2798 C   0  0  0  0  0  0  0  0  0  0  0  0
  -21.4773   10.8219  -13.3721 C   0  0  0  0  0  0  0  0  0  0  0  0
  -21.4223    9.5136  -12.9451 N   0  0  0  0  0  0  0  0  0  0  0  0
  -21.4401    9.5295  -11.6411 N   0  0  0  0  0  0  0  0  0  0  0  0
  -21.3707    8.3830  -13.8006 C   0  0  0  0  0  0  0  0  0  0  0  0
  -22.4722    7.9282  -14.4995 C   0  0  0  0  0  0  0  0  0  0  0  0
  -22.4190    6.8351  -15.3583 C   0  0  0  0  0  0  0  0  0  0  0  0
  -21.2333    6.1702  -15.5345 C   0  0  0  0  0  0  0  0  0  0  0  0
  -21.1663    5.0873  -16.3793 O   0  0  0  0  0  0  0  0  0  0  0  0
  -20.1209    6.6081  -14.8479 C   0  0  0  0  0  0  0  0  0  0  0  0
  -20.1866    7.6925  -13.9980 C   0  0  0  0  0  0  0  0  0  0  0  0
  -20.3581    4.5372  -16.5784 H   0  0  0  0  0  0  0  0  0  0  0  0
  -20.1575   11.1875   -9.2212 C   0  0  0  0  0  0  0  0  0  0  0  0
  -21.5591   11.2708   -9.7786 C   0  0  0  0  0  0  0  0  0  0  0  0
  -22.5270   10.4017   -9.0110 C   0  0  0  0  0  0  0  0  0  0  0  0
  -22.0894   12.6884   -9.7751 C   0  0  0  0  0  0  0  0  0  0  0  0
 43 44  1  0  0  0
 44 45  1  0  0  0
 44 46  1  0  0  0
 44 30  1  0  0  0
 30 31  1  0  0  0
 31 32  2  0  0  0
 32  1  1  0  0  0
  1  2  1  0  0  0
  2  3  2  0  0  0
  2  4  1  0  0  0
  4  7  1  0  0  0
  7  8  2  0  0  0
  8  9  1  0  0  0
  9 10  2  0  0  0
 10 17  1  0  0  0
 17 18  1  0  0  0
 18 19  2  0  0  0
 19 20  1  0  0  0
 20 21  2  0  0  0
 21 22  1  0  0  0
 22 23  1  0  0  0
 23 24  1  0  0  0
 24 25  2  0  0  0
 24 26  1  0  0  0
 26 27  2  0  0  0
 27 28  1  0  0  0
 10 11  1  0  0  0
 11 12  2  0  0  0
 12 13  1  0  0  0
 13 14  2  0  0  0
 14 15  1  0  0  0
 15 16  2  0  0  0
 32 33  1  0  0  0
 33 34  1  0  0  0
 33 35  1  0  0  0
 35 36  2  0  0  0
 36 37  1  0  0  0
 37 38  2  0  0  0
 38 39  1  0  0  0
 38 40  1  0  0  0
 40 41  2  0  0  0
 34 30  2  0  0  0
 41 35  1  0  0  0
 16  7  1  0  0  0
 28 18  1  0  0  0
 16 11  1  0  0  0
 28 22  2  0  0  0
  1  5  1  0  0  0
  4  6  1  0  0  0
 23 29  1  0  0  0
 39 42  1  0  0  0
M  END
> <minimizedAffinity>
-9.44177

> <CNNscore>
0.0483777858

> <CNNaffinity>
6.6659789085

> <CNN_VS>
0.3224852979

> <CNNaffinity_variance>
0.1590843648

$$$$
[H]Oc1c([H])c([H])c(-n2nc(C(C([H])([H])[H])(C([H])([H])[H])C([H])([H])[H])c([H])c2N([H])C(=O)N([H])c2c([H])c([H])c(Oc3c([H])c([H])nc4c3nc([H])c(=O)n4[H])c3c([H])c([H])c([H])c([H])c23)c([H])c1[H]


 46 51  0  0  0  0  0  0  0  0999 V2000
  -18.3252   13.6872  -17.9853 N   0  0  0  0  0  0  0  0  0  0  0  0
  -19.1643   14.6800  -18.5575 C   0  0  0  0  0  0  0  0  0  0  0  0
  -20.3506   14.3943  -18.7451 O   0  0  0  0  0  0  0  0  0  0  0  0
  -18.5517   15.9223  -18.8648 N   0  0  0  0  0  0  0  0  0  0  0  0
  -17.3114   13.9759  -17.8473 H   0  0  0  0  0  0  0  0  0  0  0  0
  -17.5142   15.9539  -18.6103 H   0  0  0  0  0  0  0  0  0  0  0  0
  -19.1460   17.0567  -19.4613 C   0  0  0  0  0  0  0  0  0  0  0  0
  -19.2791   17.1792  -20.8294 C   0  0  0  0  0  0  0  0  0  0  0  0
  -19.7794   18.3211  -21.4530 C   0  0  0  0  0  0  0  0  0  0  0  0
  -20.1592   19.3809  -20.6546 C   0  0  0  0  0  0  0  0  0  0  0  0
  -20.0520   19.3269  -19.2772 C   0  0  0  0  0  0  0  0  0  0  0  0
  -20.4120   20.3943  -18.4698 C   0  0  0  0  0  0  0  0  0  0  0  0
  -20.2816   20.3209  -17.0929 C   0  0  0  0  0  0  0  0  0  0  0  0
  -19.7924   19.1812  -16.5334 C   0  0  0  0  0  0  0  0  0  0  0  0
  -19.4314   18.1144  -17.3489 C   0  0  0  0  0  0  0  0  0  0  0  0
  -19.5402   18.1442  -18.7116 C   0  0  0  0  0  0  0  0  0  0  0  0
  -20.6561   20.5218  -21.2645 O   0  0  0  0  0  0  0  0  0  0  0  0
  -20.6251   20.7796  -22.6232 C   0  0  0  0  0  0  0  0  0  0  0  0
  -19.5632   21.4708  -23.2014 C   0  0  0  0  0  0  0  0  0  0  0  0
  -19.4810   21.7535  -24.5465 C   0  0  0  0  0  0  0  0  0  0  0  0
  -20.5074   21.3181  -25.3043 N   0  0  0  0  0  0  0  0  0  0  0  0
  -21.5543   20.6435  -24.7722 C   0  0  0  0  0  0  0  0  0  0  0  0
  -22.5357   20.2462  -25.6132 N   0  0  0  0  0  0  0  0  0  0  0  0
  -23.5821   19.5802  -25.1385 C   0  0  0  0  0  0  0  0  0  0  0  0
  -24.5291   19.1866  -25.8907 O   0  0  0  0  0  0  0  0  0  0  0  0
  -23.7019   19.2761  -23.7966 C   0  0  0  0  0  0  0  0  0  0  0  0
  -22.7147   19.6797  -22.9677 N   0  0  0  0  0  0  0  0  0  0  0  0
  -21.6488   20.3528  -23.4220 C   0  0  0  0  0  0  0  0  0  0  0  0
  -22.4535   20.4707  -26.6294 H   0  0  0  0  0  0  0  0  0  0  0  0
  -19.6722   10.6777  -16.6091 C   0  0  0  0  0  0  0  0  0  0  0  0
  -19.5371   12.0588  -16.5432 C   0  0  0  0  0  0  0  0  0  0  0  0
  -18.7414   12.4068  -17.5887 C   0  0  0  0  0  0  0  0  0  0  0  0
  -18.3996   11.2633  -18.2762 N   0  0  0  0  0  0  0  0  0  0  0  0
  -18.9676   10.2596  -17.6671 N   0  0  0  0  0  0  0  0  0  0  0  0
  -17.5869   11.2284  -19.4385 C   0  0  0  0  0  0  0  0  0  0  0  0
  -17.8659   11.9793  -20.5640 C   0  0  0  0  0  0  0  0  0  0  0  0
  -17.0575   11.9663  -21.6960 C   0  0  0  0  0  0  0  0  0  0  0  0
  -15.9311   11.1852  -21.7140 C   0  0  0  0  0  0  0  0  0  0  0  0
  -15.1234   11.1616  -22.8267 O   0  0  0  0  0  0  0  0  0  0  0  0
  -15.6327   10.4288  -20.6007 C   0  0  0  0  0  0  0  0  0  0  0  0
  -16.4430   10.4491  -19.4847 C   0  0  0  0  0  0  0  0  0  0  0  0
  -14.2856   10.6323  -22.9425 H   0  0  0  0  0  0  0  0  0  0  0  0
  -21.9293   10.2551  -15.8755 C   0  0  0  0  0  0  0  0  0  0  0  0
  -20.4809    9.8938  -15.6444 C   0  0  0  0  0  0  0  0  0  0  0  0
  -20.0246   10.2459  -14.2483 C   0  0  0  0  0  0  0  0  0  0  0  0
  -20.2189    8.4205  -15.8714 C   0  0  0  0  0  0  0  0  0  0  0  0
 43 44  1  0  0  0
 44 45  1  0  0  0
 44 46  1  0  0  0
 44 30  1  0  0  0
 30 31  1  0  0  0
 31 32  2  0  0  0
 32  1  1  0  0  0
  1  2  1  0  0  0
  2  3  2  0  0  0
  2  4  1  0  0  0
  4  7  1  0  0  0
  7  8  2  0  0  0
  8  9  1  0  0  0
  9 10  2  0  0  0
 10 17  1  0  0  0
 17 18  1  0  0  0
 18 19  2  0  0  0
 19 20  1  0  0  0
 20 21  2  0  0  0
 21 22  1  0  0  0
 22 23  1  0  0  0
 23 24  1  0  0  0
 24 25  2  0  0  0
 24 26  1  0  0  0
 26 27  2  0  0  0
 27 28  1  0  0  0
 10 11  1  0  0  0
 11 12  2  0  0  0
 12 13  1  0  0  0
 13 14  2  0  0  0
 14 15  1  0  0  0
 15 16  2  0  0  0
 32 33  1  0  0  0
 33 34  1  0  0  0
 33 35  1  0  0  0
 35 36  2  0  0  0
 36 37  1  0  0  0
 37 38  2  0  0  0
 38 39  1  0  0  0
 38 40  1  0  0  0
 40 41  2  0  0  0
 34 30  2  0  0  0
 41 35  1  0  0  0
 16  7  1  0  0  0
 28 18  1  0  0  0
 16 11  1  0  0  0
 28 22  2  0  0  0
  1  5  1  0  0  0
  4  6  1  0  0  0
 23 29  1  0  0  0
 39 42  1  0  0  0
M  END
> <minimizedAffinity>
-10.19038

> <CNNscore>
0.0463379696

> <CNNaffinity>
6.7015342712

> <CNN_VS>
0.3105354905

> <CNNaffinity_variance>
0.1085698605

$$$$
[H]Oc1c([H])c([H])c(-n2nc(C(C([H])([H])[H])(C([H])([H])[H])C([H])([H])[H])c([H])c2N([H])C(=O)N([H])c2c([H])c([H])c(Oc3c([H])c([H])nc4c3nc([H])c(=O)n4[H])c3c([H])c([H])c([H])c([H])c23)c([H])c1[H]


 46 51  0  0  0  0  0  0  0  0999 V2000
  -19.5645    9.5300  -15.1485 N   0  0  0  0  0  0  0  0  0  0  0  0
  -19.7712   10.2248  -16.3700 C   0  0  0  0  0  0  0  0  0  0  0  0
  -20.7650    9.9298  -17.0403 O   0  0  0  0  0  0  0  0  0  0  0  0
  -18.8024   11.2042  -16.7095 N   0  0  0  0  0  0  0  0  0  0  0  0
  -18.6939    9.8133  -14.6081 H   0  0  0  0  0  0  0  0  0  0  0  0
  -18.0285   11.3013  -15.9789 H   0  0  0  0  0  0  0  0  0  0  0  0
  -18.7545   12.0088  -17.8698 C   0  0  0  0  0  0  0  0  0  0  0  0
  -19.5511   13.1257  -18.0195 C   0  0  0  0  0  0  0  0  0  0  0  0
  -19.5920   13.8889  -19.1852 C   0  0  0  0  0  0  0  0  0  0  0  0
  -18.7919   13.5016  -20.2410 C   0  0  0  0  0  0  0  0  0  0  0  0
  -17.9704   12.3924  -20.1603 C   0  0  0  0  0  0  0  0  0  0  0  0
  -17.1794   11.9850  -21.2230 C   0  0  0  0  0  0  0  0  0  0  0  0
  -16.3755   10.8616  -21.1222 C   0  0  0  0  0  0  0  0  0  0  0  0
  -16.3681   10.1541  -19.9602 C   0  0  0  0  0  0  0  0  0  0  0  0
  -17.1652   10.5669  -18.8982 C   0  0  0  0  0  0  0  0  0  0  0  0
  -17.9757   11.6667  -18.9545 C   0  0  0  0  0  0  0  0  0  0  0  0
  -18.8264   14.2522  -21.4054 O   0  0  0  0  0  0  0  0  0  0  0  0
  -17.8924   15.2054  -21.7696 C   0  0  0  0  0  0  0  0  0  0  0  0
  -17.3915   16.1149  -20.8413 C   0  0  0  0  0  0  0  0  0  0  0  0
  -16.4612   17.0824  -21.1489 C   0  0  0  0  0  0  0  0  0  0  0  0
  -16.0431   17.1121  -22.4301 N   0  0  0  0  0  0  0  0  0  0  0  0
  -16.5110   16.2418  -23.3563 C   0  0  0  0  0  0  0  0  0  0  0  0
  -16.0305   16.3493  -24.6156 N   0  0  0  0  0  0  0  0  0  0  0  0
  -16.4582   15.5173  -25.5583 C   0  0  0  0  0  0  0  0  0  0  0  0
  -16.0354   15.5804  -26.7562 O   0  0  0  0  0  0  0  0  0  0  0  0
  -17.3894   14.5331  -25.2908 C   0  0  0  0  0  0  0  0  0  0  0  0
  -17.8614   14.4374  -24.0288 N   0  0  0  0  0  0  0  0  0  0  0  0
  -17.4458   15.2647  -23.0600 C   0  0  0  0  0  0  0  0  0  0  0  0
  -15.3256   17.0897  -24.8272 H   0  0  0  0  0  0  0  0  0  0  0  0
  -21.4116    6.6771  -14.0465 C   0  0  0  0  0  0  0  0  0  0  0  0
  -20.3744    7.2000  -14.8084 C   0  0  0  0  0  0  0  0  0  0  0  0
  -20.4166    8.5460  -14.6236 C   0  0  0  0  0  0  0  0  0  0  0  0
  -21.4562    8.8363  -13.7681 N   0  0  0  0  0  0  0  0  0  0  0  0
  -22.0231    7.7060  -13.4481 N   0  0  0  0  0  0  0  0  0  0  0  0
  -21.8051   10.1393  -13.3288 C   0  0  0  0  0  0  0  0  0  0  0  0
  -21.3027   10.6917  -12.1664 C   0  0  0  0  0  0  0  0  0  0  0  0
  -21.6232   11.9784  -11.7456 C   0  0  0  0  0  0  0  0  0  0  0  0
  -22.4680   12.7472  -12.5035 C   0  0  0  0  0  0  0  0  0  0  0  0
  -22.7946   14.0204  -12.0991 O   0  0  0  0  0  0  0  0  0  0  0  0
  -22.9798   12.2163  -13.6683 C   0  0  0  0  0  0  0  0  0  0  0  0
  -22.6556   10.9386  -14.0742 C   0  0  0  0  0  0  0  0  0  0  0  0
  -23.3953   14.6597  -12.5743 H   0  0  0  0  0  0  0  0  0  0  0  0
  -22.8234    5.0525  -12.9607 C   0  0  0  0  0  0  0  0  0  0  0  0
  -21.7064    5.2261  -13.9627 C   0  0  0  0  0  0  0  0  0  0  0  0
  -20.4461    4.5110  -13.5364 C   0  0  0  0  0  0  0  0  0  0  0  0
  -22.0930    4.7262  -15.3380 C   0  0  0  0  0  0  0  0  0  0  0  0
 43 44  1  0  0  0
 44 45  1  0  0  0
 44 46  1  0  0  0
 44 30  1  0  0  0
 30 31  1  0  0  0
 31 32  2  0  0  0
 32  1  1  0  0  0
  1  2  1  0  0  0
  2  3  2  0  0  0
  2  4  1  0  0  0
  4  7  1  0  0  0
  7  8  2  0  0  0
  8  9  1  0  0  0
  9 10  2  0  0  0
 10 17  1  0  0  0
 17 18  1  0  0  0
 18 19  2  0  0  0
 19 20  1  0  0  0
 20 21  2  0  0  0
 21 22  1  0  0  0
 22 23  1  0  0  0
 23 24  1  0  0  0
 24 25  2  0  0  0
 24 26  1  0  0  0
 26 27  2  0  0  0
 27 28  1  0  0  0
 10 11  1  0  0  0
 11 12  2  0  0  0
 12 13  1  0  0  0
 13 14  2  0  0  0
 14 15  1  0  0  0
 15 16  2  0  0  0
 32 33  1  0  0  0
 33 34  1  0  0  0
 33 35  1  0  0  0
 35 36  2  0  0  0
 36 37  1  0  0  0
 37 38  2  0  0  0
 38 39  1  0  0  0
 38 40  1  0  0  0
 40 41  2  0  0  0
 34 30  2  0  0  0
 41 35  1  0  0  0
 16  7  1  0  0  0
 28 18  1  0  0  0
 16 11  1  0  0  0
 28 22  2  0  0  0
  1  5  1  0  0  0
  4  6  1  0  0  0
 23 29  1  0  0  0
 39 42  1  0  0  0
M  END
> <minimizedAffinity>
-9.00374

> <CNNscore>
0.0429256670

> <CNNaffinity>
6.6968832016

> <CNN_VS>
0.2874681652

> <CNNaffinity_variance>
0.1324897707

$$$$
[H]Oc1c([H])c([H])c(-n2nc(C(C([H])([H])[H])(C([H])([H])[H])C([H])([H])[H])c([H])c2N([H])C(=O)N([H])c2c([H])c([H])c(Oc3c([H])c([H])nc4c3nc([H])c(=O)n4[H])c3c([H])c([H])c([H])c([H])c23)c([H])c1[H]


 46 51  0  0  0  0  0  0  0  0999 V2000
  -19.6329   16.7930  -20.4548 N   0  0  0  0  0  0  0  0  0  0  0  0
  -20.0937   15.5965  -19.8436 C   0  0  0  0  0  0  0  0  0  0  0  0
  -21.3066   15.3676  -19.8662 O   0  0  0  0  0  0  0  0  0  0  0  0
  -19.1037   14.7673  -19.2560 N   0  0  0  0  0  0  0  0  0  0  0  0
  -18.5826   16.9507  -20.4063 H   0  0  0  0  0  0  0  0  0  0  0  0
  -18.1136   15.1556  -19.3607 H   0  0  0  0  0  0  0  0  0  0  0  0
  -19.2930   13.5497  -18.5649 C   0  0  0  0  0  0  0  0  0  0  0  0
  -20.1183   13.4541  -17.4630 C   0  0  0  0  0  0  0  0  0  0  0  0
  -20.2582   12.2912  -16.7072 C   0  0  0  0  0  0  0  0  0  0  0  0
  -19.5303   11.1815  -17.0859 C   0  0  0  0  0  0  0  0  0  0  0  0
  -18.6834   11.2072  -18.1785 C   0  0  0  0  0  0  0  0  0  0  0  0
  -17.9336   10.1034  -18.5531 C   0  0  0  0  0  0  0  0  0  0  0  0
  -17.0812   10.1587  -19.6434 C   0  0  0  0  0  0  0  0  0  0  0  0
  -16.9848   11.3167  -20.3511 C   0  0  0  0  0  0  0  0  0  0  0  0
  -17.7385   12.4212  -19.9693 C   0  0  0  0  0  0  0  0  0  0  0  0
  -18.5894   12.4125  -18.8991 C   0  0  0  0  0  0  0  0  0  0  0  0
  -19.6604   10.0207  -16.3401 O   0  0  0  0  0  0  0  0  0  0  0  0
  -20.7066    9.7360  -15.4810 C   0  0  0  0  0  0  0  0  0  0  0  0
  -22.0255    9.7304  -15.9285 C   0  0  0  0  0  0  0  0  0  0  0  0
  -23.1034    9.4532  -15.1178 C   0  0  0  0  0  0  0  0  0  0  0  0
  -22.8170    9.1790  -13.8294 N   0  0  0  0  0  0  0  0  0  0  0  0
  -21.5453    9.1766  -13.3635 C   0  0  0  0  0  0  0  0  0  0  0  0
  -21.3582    8.8883  -12.0558 N   0  0  0  0  0  0  0  0  0  0  0  0
  -20.1291    8.8722  -11.5529 C   0  0  0  0  0  0  0  0  0  0  0  0
  -19.9041    8.6069  -10.3296 O   0  0  0  0  0  0  0  0  0  0  0  0
  -19.0217    9.1436  -12.3323 C   0  0  0  0  0  0  0  0  0  0  0  0
  -19.2232    9.4307  -13.6367 N   0  0  0  0  0  0  0  0  0  0  0  0
  -20.4532    9.4532  -14.1679 C   0  0  0  0  0  0  0  0  0  0  0  0
  -22.1893    8.6810  -11.4590 H   0  0  0  0  0  0  0  0  0  0  0  0
  -21.6369   18.8799  -22.5510 C   0  0  0  0  0  0  0  0  0  0  0  0
  -20.7935   17.7835  -22.4226 C   0  0  0  0  0  0  0  0  0  0  0  0
  -20.4453   17.7316  -21.1097 C   0  0  0  0  0  0  0  0  0  0  0  0
  -21.0629   18.7731  -20.4533 N   0  0  0  0  0  0  0  0  0  0  0  0
  -21.7587   19.4318  -21.3381 N   0  0  0  0  0  0  0  0  0  0  0  0
  -20.9480   19.0379  -19.0642 C   0  0  0  0  0  0  0  0  0  0  0  0
  -21.7990   18.4824  -18.1283 C   0  0  0  0  0  0  0  0  0  0  0  0
  -21.6738   18.7203  -16.7634 C   0  0  0  0  0  0  0  0  0  0  0  0
  -20.6690   19.5339  -16.3078 C   0  0  0  0  0  0  0  0  0  0  0  0
  -20.5341   19.7788  -14.9614 O   0  0  0  0  0  0  0  0  0  0  0  0
  -19.8072   20.0975  -17.2245 C   0  0  0  0  0  0  0  0  0  0  0  0
  -19.9425   19.8552  -18.5756 C   0  0  0  0  0  0  0  0  0  0  0  0
  -19.8413   20.3508  -14.5274 H   0  0  0  0  0  0  0  0  0  0  0  0
  -22.4587   18.0273  -24.6508 C   0  0  0  0  0  0  0  0  0  0  0  0
  -22.2536   19.2838  -23.8377 C   0  0  0  0  0  0  0  0  0  0  0  0
  -21.3242   20.2573  -24.5232 C   0  0  0  0  0  0  0  0  0  0  0  0
  -23.5584   19.9955  -23.5516 C   0  0  0  0  0  0  0  0  0  0  0  0
 43 44  1  0  0  0
 44 45  1  0  0  0
 44 46  1  0  0  0
 44 30  1  0  0  0
 30 31  1  0  0  0
 31 32  2  0  0  0
 32  1  1  0  0  0
  1  2  1  0  0  0
  2  3  2  0  0  0
  2  4  1  0  0  0
  4  7  1  0  0  0
  7  8  2  0  0  0
  8  9  1  0  0  0
  9 10  2  0  0  0
 10 17  1  0  0  0
 17 18  1  0  0  0
 18 19  2  0  0  0
 19 20  1  0  0  0
 20 21  2  0  0  0
 21 22  1  0  0  0
 22 23  1  0  0  0
 23 24  1  0  0  0
 24 25  2  0  0  0
 24 26  1  0  0  0
 26 27  2  0  0  0
 27 28  1  0  0  0
 10 11  1  0  0  0
 11 12  2  0  0  0
 12 13  1  0  0  0
 13 14  2  0  0  0
 14 15  1  0  0  0
 15 16  2  0  0  0
 32 33  1  0  0  0
 33 34  1  0  0  0
 33 35  1  0  0  0
 35 36  2  0  0  0
 36 37  1  0  0  0
 37 38  2  0  0  0
 38 39  1  0  0  0
 38 40  1  0  0  0
 40 41  2  0  0  0
 34 30  2  0  0  0
 41 35  1  0  0  0
 16  7  1  0  0  0
 28 18  1  0  0  0
 16 11  1  0  0  0
 28 22  2  0  0  0
  1  5  1  0  0  0
  4  6  1  0  0  0
 23 29  1  0  0  0
 39 42  1  0  0  0
M  END
> <minimizedAffinity>
-8.60187

> <CNNscore>
0.0412578993

> <CNNaffinity>
6.5870680809

> <CNN_VS>
0.2717685997

> <CNNaffinity_variance>
0.1466346085

$$$$
[H]Oc1c([H])c([H])c(-n2nc(C(C([H])([H])[H])(C([H])([H])[H])C([H])([H])[H])c([H])c2N([H])C(=O)N([H])c2c([H])c([H])c(Oc3c([H])c([H])nc4c3nc([H])c(=O)n4[H])c3c([H])c([H])c([H])c([H])c23)c([H])c1[H]


 46 51  0  0  0  0  0  0  0  0999 V2000
  -20.1669   11.9107  -13.9935 N   0  0  0  0  0  0  0  0  0  0  0  0
  -19.8052   11.8405  -15.3652 C   0  0  0  0  0  0  0  0  0  0  0  0
  -19.4278   10.7513  -15.8071 O   0  0  0  0  0  0  0  0  0  0  0  0
  -19.9118   13.0450  -16.1074 N   0  0  0  0  0  0  0  0  0  0  0  0
  -20.4802   12.8690  -13.6563 H   0  0  0  0  0  0  0  0  0  0  0  0
  -20.2687   13.8674  -15.5256 H   0  0  0  0  0  0  0  0  0  0  0  0
  -19.5901   13.2556  -17.4669 C   0  0  0  0  0  0  0  0  0  0  0  0
  -19.6003   12.2290  -18.3890 C   0  0  0  0  0  0  0  0  0  0  0  0
  -19.2037   12.3852  -19.7162 C   0  0  0  0  0  0  0  0  0  0  0  0
  -18.7795   13.6342  -20.1224 C   0  0  0  0  0  0  0  0  0  0  0  0
  -18.7427   14.7071  -19.2511 C   0  0  0  0  0  0  0  0  0  0  0  0
  -18.2988   15.9593  -19.6459 C   0  0  0  0  0  0  0  0  0  0  0  0
  -18.2578   17.0149  -18.7501 C   0  0  0  0  0  0  0  0  0  0  0  0
  -18.6609   16.8110  -17.4668 C   0  0  0  0  0  0  0  0  0  0  0  0
  -19.1036   15.5520  -17.0764 C   0  0  0  0  0  0  0  0  0  0  0  0
  -19.1578   14.4816  -17.9254 C   0  0  0  0  0  0  0  0  0  0  0  0
  -18.3811   13.7999  -21.4393 O   0  0  0  0  0  0  0  0  0  0  0  0
  -17.2865   13.1904  -22.0258 C   0  0  0  0  0  0  0  0  0  0  0  0
  -16.8471   11.9380  -21.6036 C   0  0  0  0  0  0  0  0  0  0  0  0
  -15.7655   11.2859  -22.1521 C   0  0  0  0  0  0  0  0  0  0  0  0
  -15.1292   11.9341  -23.1482 N   0  0  0  0  0  0  0  0  0  0  0  0
  -15.5318   13.1526  -23.5812 C   0  0  0  0  0  0  0  0  0  0  0  0
  -14.8304   13.7228  -24.5869 N   0  0  0  0  0  0  0  0  0  0  0  0
  -15.1879   14.9164  -25.0466 C   0  0  0  0  0  0  0  0  0  0  0  0
  -14.5587   15.4919  -25.9903 O   0  0  0  0  0  0  0  0  0  0  0  0
  -16.2666   15.6028  -24.5246 C   0  0  0  0  0  0  0  0  0  0  0  0
  -16.9578   15.0219  -23.5199 N   0  0  0  0  0  0  0  0  0  0  0  0
  -16.6173   13.8185  -23.0386 C   0  0  0  0  0  0  0  0  0  0  0  0
  -14.0139   13.2111  -24.9885 H   0  0  0  0  0  0  0  0  0  0  0  0
  -19.6790    9.3598  -11.5398 C   0  0  0  0  0  0  0  0  0  0  0  0
  -19.1910   10.4761  -12.2075 C   0  0  0  0  0  0  0  0  0  0  0  0
  -20.1552   10.8303  -13.0977 C   0  0  0  0  0  0  0  0  0  0  0  0
  -21.2069    9.9496  -12.9748 N   0  0  0  0  0  0  0  0  0  0  0  0
  -20.8893    9.0927  -12.0442 N   0  0  0  0  0  0  0  0  0  0  0  0
  -22.4053   10.0071  -13.7319 C   0  0  0  0  0  0  0  0  0  0  0  0
  -23.4918   10.7691  -13.3479 C   0  0  0  0  0  0  0  0  0  0  0  0
  -24.6591   10.8473  -14.1007 C   0  0  0  0  0  0  0  0  0  0  0  0
  -24.7536   10.1495  -15.2768 C   0  0  0  0  0  0  0  0  0  0  0  0
  -25.9019   10.2164  -16.0305 O   0  0  0  0  0  0  0  0  0  0  0  0
  -23.6804    9.3837  -15.6799 C   0  0  0  0  0  0  0  0  0  0  0  0
  -22.5288    9.3132  -14.9240 C   0  0  0  0  0  0  0  0  0  0  0  0
  -26.0727    9.7519  -16.8968 H   0  0  0  0  0  0  0  0  0  0  0  0
  -18.1704    9.7149   -9.6933 C   0  0  0  0  0  0  0  0  0  0  0  0
  -18.9287    8.6625  -10.4674 C   0  0  0  0  0  0  0  0  0  0  0  0
  -18.0043    7.6576  -11.1131 C   0  0  0  0  0  0  0  0  0  0  0  0
  -19.9104    7.9110   -9.5941 C   0  0  0  0  0  0  0  0  0  0  0  0
 43 44  1  0  0  0
 44 45  1  0  0  0
 44 46  1  0  0  0
 44 30  1  0  0  0
 30 31  1  0  0  0
 31 32  2  0  0  0
 32  1  1  0  0  0
  1  2  1  0  0  0
  2  3  2  0  0  0
  2  4  1  0  0  0
  4  7  1  0  0  0
  7  8  2  0  0  0
  8  9  1  0  0  0
  9 10  2  0  0  0
 10 17  1  0  0  0
 17 18  1  0  0  0
 18 19  2  0  0  0
 19 20  1  0  0  0
 20 21  2  0  0  0
 21 22  1  0  0  0
 22 23  1  0  0  0
 23 24  1  0  0  0
 24 25  2  0  0  0
 24 26  1  0  0  0
 26 27  2  0  0  0
 27 28  1  0  0  0
 10 11  1  0  0  0
 11 12  2  0  0  0
 12 13  1  0  0  0
 13 14  2  0  0  0
 14 15  1  0  0  0
 15 16  2  0  0  0
 32 33  1  0  0  0
 33 34  1  0  0  0
 33 35  1  0  0  0
 35 36  2  0  0  0
 36 37  1  0  0  0
 37 38  2  0  0  0
 38 39  1  0  0  0
 38 40  1  0  0  0
 40 41  2  0  0  0
 34 30  2  0  0  0
 41 35  1  0  0  0
 16  7  1  0  0  0
 28 18  1  0  0  0
 16 11  1  0  0  0
 28 22  2  0  0  0
  1  5  1  0  0  0
  4  6  1  0  0  0
 23 29  1  0  0  0
 39 42  1  0  0  0
M  END
> <minimizedAffinity>
-9.64468

> <CNNscore>
0.0402296893

> <CNNaffinity>
6.9172353745

> <CNN_VS>
0.2782782316

> <CNNaffinity_variance>
0.0861172378

$$$$
[H]C([H])=C([H])C(=O)N([H])[C@]1([H])C([H])([H])C([H])([H])[C@]([H])(n2nc(-c3c([H])c([H])c(Oc4c([H])c([H])c([H])c([H])c4[H])c([H])c3[H])c3c(N([H])[H])nc([H])nc32)C([H])([H])C1([H])[H]


 37 41  0  0  0  0  0  0  0  0999 V2000
  -17.0171    9.6142  -19.3545 N   0  0  0  0  0  0  0  0  0  0  0  0
  -16.7725   10.6616  -20.2661 C   0  0  0  0  0  0  0  0  0  0  0  0
  -15.8868   10.5029  -21.2728 N   0  0  0  0  0  0  0  0  0  0  0  0
  -15.6648   11.4771  -22.1737 C   0  0  0  0  0  0  0  0  0  0  0  0
  -16.3193   12.6483  -22.1041 N   0  0  0  0  0  0  0  0  0  0  0  0
  -17.2213   12.8730  -21.1182 C   0  0  0  0  0  0  0  0  0  0  0  0
  -18.0024   13.9352  -20.8445 N   0  0  0  0  0  0  0  0  0  0  0  0
  -18.6959   13.6372  -19.7962 N   0  0  0  0  0  0  0  0  0  0  0  0
  -18.4061   12.3855  -19.3402 C   0  0  0  0  0  0  0  0  0  0  0  0
  -17.4548   11.8625  -20.1775 C   0  0  0  0  0  0  0  0  0  0  0  0
  -16.3027    9.3737  -18.6465 H   0  0  0  0  0  0  0  0  0  0  0  0
  -17.9039    9.0860  -19.3892 H   0  0  0  0  0  0  0  0  0  0  0  0
  -19.0289   11.7359  -18.1993 C   0  0  0  0  0  0  0  0  0  0  0  0
  -18.7706   10.4620  -17.7601 C   0  0  0  0  0  0  0  0  0  0  0  0
  -19.4331    9.9055  -16.6713 C   0  0  0  0  0  0  0  0  0  0  0  0
  -20.3879   10.6101  -15.9735 C   0  0  0  0  0  0  0  0  0  0  0  0
  -20.6646   11.8913  -16.3942 C   0  0  0  0  0  0  0  0  0  0  0  0
  -20.0079   12.4360  -17.4702 C   0  0  0  0  0  0  0  0  0  0  0  0
  -21.0478   10.0386  -14.8789 O   0  0  0  0  0  0  0  0  0  0  0  0
  -20.3496    9.7640  -13.7355 C   0  0  0  0  0  0  0  0  0  0  0  0
  -19.9540   10.7635  -12.8715 C   0  0  0  0  0  0  0  0  0  0  0  0
  -19.2521   10.4690  -11.7256 C   0  0  0  0  0  0  0  0  0  0  0  0
  -18.9519    9.1598  -11.4569 C   0  0  0  0  0  0  0  0  0  0  0  0
  -19.3391    8.1665  -12.3054 C   0  0  0  0  0  0  0  0  0  0  0  0
  -20.0412    8.4521  -13.4533 C   0  0  0  0  0  0  0  0  0  0  0  0
  -18.0335   15.1692  -21.6082 C   0  0  0  0  0  0  0  0  0  0  0  0
  -18.2823   14.8218  -23.0306 C   0  0  0  0  0  0  0  0  0  0  0  0
  -18.2204   15.9496  -24.0045 C   0  0  0  0  0  0  0  0  0  0  0  0
  -17.1761   16.9787  -23.7185 C   0  0  0  0  0  0  0  0  0  0  0  0
  -16.9458   17.2252  -22.2530 C   0  0  0  0  0  0  0  0  0  0  0  0
  -16.7028   15.8950  -21.5278 C   0  0  0  0  0  0  0  0  0  0  0  0
  -15.8917   16.6568  -24.3053 N   0  0  0  0  0  0  0  0  0  0  0  0
  -15.7092   16.1274  -25.5822 C   0  0  0  0  0  0  0  0  0  0  0  0
  -16.6930   15.8932  -26.3174 O   0  0  0  0  0  0  0  0  0  0  0  0
  -15.0536   16.8530  -23.6832 H   0  0  0  0  0  0  0  0  0  0  0  0
  -14.3773   15.8344  -26.0920 C   0  0  0  0  0  0  0  0  0  0  0  0
  -13.6032   14.9233  -25.5448 C   0  0  0  0  0  0  0  0  0  0  0  0
  1  2  1  0  0  0
  2  3  2  0  0  0
  3  4  1  0  0  0
  4  5  2  0  0  0
  5  6  1  0  0  0
  6  7  1  0  0  0
  7  8  1  0  0  0
  8  9  2  0  0  0
  9 13  1  0  0  0
 13 14  2  0  0  0
 14 15  1  0  0  0
 15 16  2  0  0  0
 16 19  1  0  0  0
 19 20  1  0  0  0
 20 21  2  0  0  0
 21 22  1  0  0  0
 22 23  2  0  0  0
 23 24  1  0  0  0
 24 25  2  0  0  0
 16 17  1  0  0  0
 17 18  2  0  0  0
  9 10  1  0  0  0
  7 26  1  0  0  0
 26 27  1  0  0  0
 27 28  1  0  0  0
 28 29  1  0  0  0
 29 30  1  0  0  0
 30 31  1  0  0  0
 29 32  1  0  0  0
 32 33  1  0  0  0
 33 34  2  0  0  0
 33 36  1  0  0  0
 36 37  2  0  0  0
 10  2  1  0  0  0
 31 26  1  0  0  0
 10  6  2  0  0  0
 18 13  1  0  0  0
 25 20  1  0  0  0
  1 11  1  0  0  0
  1 12  1  0  0  0
 32 35  1  0  0  0
M  END
> <minimizedAffinity>
-9.24880

> <CNNscore>
0.8490895033

> <CNNaffinity>
7.5970559120

> <CNN_VS>
6.4505805969

> <CNNaffinity_variance>
0.1298753470

$$$$
[H]C([H])=C([H])C(=O)N([H])[C@]1([H])C([H])([H])C([H])([H])[C@]([H])(n2nc(-c3c([H])c([H])c(Oc4c([H])c([H])c([H])c([H])c4[H])c([H])c3[H])c3c(N([H])[H])nc([H])nc32)C([H])([H])C1([H])[H]


 37 41  0  0  0  0  0  0  0  0999 V2000
  -17.1239    9.7549  -18.6317 N   0  0  0  0  0  0  0  0  0  0  0  0
  -16.7704   10.4887  -19.7826 C   0  0  0  0  0  0  0  0  0  0  0  0
  -15.9069    9.9761  -20.6853 N   0  0  0  0  0  0  0  0  0  0  0  0
  -15.5835   10.6448  -21.8069 C   0  0  0  0  0  0  0  0  0  0  0  0
  -16.1104   11.8521  -22.0708 N   0  0  0  0  0  0  0  0  0  0  0  0
  -16.9832   12.4239  -21.2063 C   0  0  0  0  0  0  0  0  0  0  0  0
  -17.6475   13.5945  -21.2481 N   0  0  0  0  0  0  0  0  0  0  0  0
  -18.3681   13.6612  -20.1781 N   0  0  0  0  0  0  0  0  0  0  0  0
  -18.2121   12.5550  -19.3966 C   0  0  0  0  0  0  0  0  0  0  0  0
  -17.3218   11.7323  -20.0370 C   0  0  0  0  0  0  0  0  0  0  0  0
  -16.4386    9.6418  -17.8654 H   0  0  0  0  0  0  0  0  0  0  0  0
  -18.0616    9.3301  -18.5489 H   0  0  0  0  0  0  0  0  0  0  0  0
  -18.8996   12.3025  -18.1416 C   0  0  0  0  0  0  0  0  0  0  0  0
  -19.5517   11.1443  -17.8014 C   0  0  0  0  0  0  0  0  0  0  0  0
  -20.2093   10.9945  -16.5852 C   0  0  0  0  0  0  0  0  0  0  0  0
  -20.2386   12.0078  -15.6538 C   0  0  0  0  0  0  0  0  0  0  0  0
  -19.5905   13.1801  -15.9712 C   0  0  0  0  0  0  0  0  0  0  0  0
  -18.9431   13.3231  -17.1738 C   0  0  0  0  0  0  0  0  0  0  0  0
  -20.9040   11.8446  -14.4329 O   0  0  0  0  0  0  0  0  0  0  0  0
  -20.6576   10.7362  -13.6705 C   0  0  0  0  0  0  0  0  0  0  0  0
  -21.5961    9.7366  -13.5225 C   0  0  0  0  0  0  0  0  0  0  0  0
  -21.3314    8.6284  -12.7516 C   0  0  0  0  0  0  0  0  0  0  0  0
  -20.1138    8.5351  -12.1310 C   0  0  0  0  0  0  0  0  0  0  0  0
  -19.1812    9.5184  -12.2722 C   0  0  0  0  0  0  0  0  0  0  0  0
  -19.4376   10.6298  -13.0411 C   0  0  0  0  0  0  0  0  0  0  0  0
  -17.5483   14.5747  -22.3141 C   0  0  0  0  0  0  0  0  0  0  0  0
  -16.3791   15.4450  -22.0293 C   0  0  0  0  0  0  0  0  0  0  0  0
  -16.1828   16.6050  -22.9459 C   0  0  0  0  0  0  0  0  0  0  0  0
  -17.4388   17.2673  -23.4096 C   0  0  0  0  0  0  0  0  0  0  0  0
  -18.5890   16.3208  -23.6156 C   0  0  0  0  0  0  0  0  0  0  0  0
  -18.7857   15.4523  -22.3660 C   0  0  0  0  0  0  0  0  0  0  0  0
  -17.8948   18.3052  -22.5081 N   0  0  0  0  0  0  0  0  0  0  0  0
  -18.5955   19.4465  -22.8962 C   0  0  0  0  0  0  0  0  0  0  0  0
  -18.8772   19.6384  -24.0992 O   0  0  0  0  0  0  0  0  0  0  0  0
  -17.6561   18.1465  -21.4855 H   0  0  0  0  0  0  0  0  0  0  0  0
  -19.0161   20.4399  -21.9186 C   0  0  0  0  0  0  0  0  0  0  0  0
  -19.1605   20.1505  -20.6442 C   0  0  0  0  0  0  0  0  0  0  0  0
  1  2  1  0  0  0
  2  3  2  0  0  0
  3  4  1  0  0  0
  4  5  2  0  0  0
  5  6  1  0  0  0
  6  7  1  0  0  0
  7  8  1  0  0  0
  8  9  2  0  0  0
  9 13  1  0  0  0
 13 14  2  0  0  0
 14 15  1  0  0  0
 15 16  2  0  0  0
 16 19  1  0  0  0
 19 20  1  0  0  0
 20 21  2  0  0  0
 21 22  1  0  0  0
 22 23  2  0  0  0
 23 24  1  0  0  0
 24 25  2  0  0  0
 16 17  1  0  0  0
 17 18  2  0  0  0
  9 10  1  0  0  0
  7 26  1  0  0  0
 26 27  1  0  0  0
 27 28  1  0  0  0
 28 29  1  0  0  0
 29 30  1  0  0  0
 30 31  1  0  0  0
 29 32  1  0  0  0
 32 33  1  0  0  0
 33 34  2  0  0  0
 33 36  1  0  0  0
 36 37  2  0  0  0
 10  2  1  0  0  0
 31 26  1  0  0  0
 10  6  2  0  0  0
 18 13  1  0  0  0
 25 20  1  0  0  0
  1 11  1  0  0  0
  1 12  1  0  0  0
 32 35  1  0  0  0
M  END
> <minimizedAffinity>
-8.50544

> <CNNscore>
0.7907942533

> <CNNaffinity>
7.4711213112

> <CNN_VS>
5.9081196785

> <CNNaffinity_variance>
0.1353225261

$$$$
[H]C([H])=C([H])C(=O)N([H])[C@]1([H])C([H])([H])C([H])([H])[C@]([H])(n2nc(-c3c([H])c([H])c(Oc4c([H])c([H])c([H])c([H])c4[H])c([H])c3[H])c3c(N([H])[H])nc([H])nc32)C([H])([H])C1([H])[H]


 37 41  0  0  0  0  0  0  0  0999 V2000
  -16.7932    9.6895  -19.0062 N   0  0  0  0  0  0  0  0  0  0  0  0
  -16.6376   10.5958  -20.0750 C   0  0  0  0  0  0  0  0  0  0  0  0
  -15.7427   10.3529  -21.0564 N   0  0  0  0  0  0  0  0  0  0  0  0
  -15.6035   11.1869  -22.1028 C   0  0  0  0  0  0  0  0  0  0  0  0
  -16.3533   12.2965  -22.2097 N   0  0  0  0  0  0  0  0  0  0  0  0
  -17.2700   12.5997  -21.2591 C   0  0  0  0  0  0  0  0  0  0  0  0
  -18.1367   13.6240  -21.1455 N   0  0  0  0  0  0  0  0  0  0  0  0
  -18.8020   13.4399  -20.0536 N   0  0  0  0  0  0  0  0  0  0  0  0
  -18.4084   12.3044  -19.4099 C   0  0  0  0  0  0  0  0  0  0  0  0
  -17.4176   11.7353  -20.1675 C   0  0  0  0  0  0  0  0  0  0  0  0
  -16.0606    9.6238  -18.2792 H   0  0  0  0  0  0  0  0  0  0  0  0
  -17.6329    9.0914  -18.9446 H   0  0  0  0  0  0  0  0  0  0  0  0
  -18.9739   11.7948  -18.1721 C   0  0  0  0  0  0  0  0  0  0  0  0
  -19.4838   12.5539  -17.1491 C   0  0  0  0  0  0  0  0  0  0  0  0
  -19.9836   11.9848  -15.9828 C   0  0  0  0  0  0  0  0  0  0  0  0
  -19.9932   10.6212  -15.7947 C   0  0  0  0  0  0  0  0  0  0  0  0
  -19.4878    9.8375  -16.8074 C   0  0  0  0  0  0  0  0  0  0  0  0
  -18.9949   10.4044  -17.9569 C   0  0  0  0  0  0  0  0  0  0  0  0
  -20.4994   10.0604  -14.6160 O   0  0  0  0  0  0  0  0  0  0  0  0
  -21.8438   10.1028  -14.3691 C   0  0  0  0  0  0  0  0  0  0  0  0
  -22.3451   10.5629  -13.1695 C   0  0  0  0  0  0  0  0  0  0  0  0
  -23.7007   10.5985  -12.9382 C   0  0  0  0  0  0  0  0  0  0  0  0
  -24.5474   10.1670  -13.9247 C   0  0  0  0  0  0  0  0  0  0  0  0
  -24.0601    9.7110  -15.1127 C   0  0  0  0  0  0  0  0  0  0  0  0
  -22.7062    9.6720  -15.3523 C   0  0  0  0  0  0  0  0  0  0  0  0
  -18.2713   14.7145  -22.0939 C   0  0  0  0  0  0  0  0  0  0  0  0
  -18.2493   14.1375  -23.4622 C   0  0  0  0  0  0  0  0  0  0  0  0
  -18.2447   15.1145  -24.5889 C   0  0  0  0  0  0  0  0  0  0  0  0
  -17.4467   16.3545  -24.3507 C   0  0  0  0  0  0  0  0  0  0  0  0
  -17.4754   16.8358  -22.9262 C   0  0  0  0  0  0  0  0  0  0  0  0
  -17.1121   15.6874  -21.9757 C   0  0  0  0  0  0  0  0  0  0  0  0
  -16.0551   16.2103  -24.7257 N   0  0  0  0  0  0  0  0  0  0  0  0
  -15.6046   15.8667  -25.9996 C   0  0  0  0  0  0  0  0  0  0  0  0
  -16.4195   15.6559  -26.9242 O   0  0  0  0  0  0  0  0  0  0  0  0
  -15.3599   16.3872  -23.9425 H   0  0  0  0  0  0  0  0  0  0  0  0
  -14.1827   15.7445  -26.2874 C   0  0  0  0  0  0  0  0  0  0  0  0
  -13.3668   15.0678  -25.5096 C   0  0  0  0  0  0  0  0  0  0  0  0
  1  2  1  0  0  0
  2  3  2  0  0  0
  3  4  1  0  0  0
  4  5  2  0  0  0
  5  6  1  0  0  0
  6  7  1  0  0  0
  7  8  1  0  0  0
  8  9  2  0  0  0
  9 13  1  0  0  0
 13 14  2  0  0  0
 14 15  1  0  0  0
 15 16  2  0  0  0
 16 19  1  0  0  0
 19 20  1  0  0  0
 20 21  2  0  0  0
 21 22  1  0  0  0
 22 23  2  0  0  0
 23 24  1  0  0  0
 24 25  2  0  0  0
 16 17  1  0  0  0
 17 18  2  0  0  0
  9 10  1  0  0  0
  7 26  1  0  0  0
 26 27  1  0  0  0
 27 28  1  0  0  0
 28 29  1  0  0  0
 29 30  1  0  0  0
 30 31  1  0  0  0
 29 32  1  0  0  0
 32 33  1  0  0  0
 33 34  2  0  0  0
 33 36  1  0  0  0
 36 37  2  0  0  0
 10  2  1  0  0  0
 31 26  1  0  0  0
 10  6  2  0  0  0
 18 13  1  0  0  0
 25 20  1  0  0  0
  1 11  1  0  0  0
  1 12  1  0  0  0
 32 35  1  0  0  0
M  END
> <minimizedAffinity>
-8.71188

> <CNNscore>
0.7084667683

> <CNNaffinity>
7.3133292198

> <CNN_VS>
5.1812505722

> <CNNaffinity_variance>
0.1142583117

$$$$
[H]C([H])=C([H])C(=O)N([H])[C@]1([H])C([H])([H])C([H])([H])[C@]([H])(n2nc(-c3c([H])c([H])c(Oc4c([H])c([H])c([H])c([H])c4[H])c([H])c3[H])c3c(N([H])[H])nc([H])nc32)C([H])([H])C1([H])[H]


 37 41  0  0  0  0  0  0  0  0999 V2000
  -16.9503    9.7050  -18.7336 N   0  0  0  0  0  0  0  0  0  0  0  0
  -16.6324   10.4631  -19.8791 C   0  0  0  0  0  0  0  0  0  0  0  0
  -15.7733    9.9829  -20.8036 N   0  0  0  0  0  0  0  0  0  0  0  0
  -15.4837   10.6749  -21.9203 C   0  0  0  0  0  0  0  0  0  0  0  0
  -16.0412   11.8740  -22.1573 N   0  0  0  0  0  0  0  0  0  0  0  0
  -16.9114   12.4138  -21.2700 C   0  0  0  0  0  0  0  0  0  0  0  0
  -17.6017   13.5700  -21.2832 N   0  0  0  0  0  0  0  0  0  0  0  0
  -18.3054   13.6051  -20.2005 N   0  0  0  0  0  0  0  0  0  0  0  0
  -18.1121   12.4913  -19.4383 C   0  0  0  0  0  0  0  0  0  0  0  0
  -17.2151   11.6978  -20.1056 C   0  0  0  0  0  0  0  0  0  0  0  0
  -16.2498    9.5959  -17.9806 H   0  0  0  0  0  0  0  0  0  0  0  0
  -17.8770    9.2585  -18.6416 H   0  0  0  0  0  0  0  0  0  0  0  0
  -18.7726   12.2055  -18.1760 C   0  0  0  0  0  0  0  0  0  0  0  0
  -19.3272   11.0040  -17.8132 C   0  0  0  0  0  0  0  0  0  0  0  0
  -19.9663   10.8223  -16.5915 C   0  0  0  0  0  0  0  0  0  0  0  0
  -20.0749   11.8458  -15.6774 C   0  0  0  0  0  0  0  0  0  0  0  0
  -19.5254   13.0613  -16.0176 C   0  0  0  0  0  0  0  0  0  0  0  0
  -18.8958   13.2357  -17.2254 C   0  0  0  0  0  0  0  0  0  0  0  0
  -20.7207   11.6501  -14.4507 O   0  0  0  0  0  0  0  0  0  0  0  0
  -22.0252   12.0334  -14.3037 C   0  0  0  0  0  0  0  0  0  0  0  0
  -22.3687   13.3401  -14.0274 C   0  0  0  0  0  0  0  0  0  0  0  0
  -23.6864   13.7080  -13.8826 C   0  0  0  0  0  0  0  0  0  0  0  0
  -24.6552   12.7493  -14.0184 C   0  0  0  0  0  0  0  0  0  0  0  0
  -24.3241   11.4560  -14.2912 C   0  0  0  0  0  0  0  0  0  0  0  0
  -23.0092   11.0795  -14.4376 C   0  0  0  0  0  0  0  0  0  0  0  0
  -17.5419   14.5675  -22.3359 C   0  0  0  0  0  0  0  0  0  0  0  0
  -16.3814   15.4531  -22.0630 C   0  0  0  0  0  0  0  0  0  0  0  0
  -16.2243   16.6298  -22.9658 C   0  0  0  0  0  0  0  0  0  0  0  0
  -17.5009   17.2777  -23.3921 C   0  0  0  0  0  0  0  0  0  0  0  0
  -18.6395   16.3151  -23.5878 C   0  0  0  0  0  0  0  0  0  0  0  0
  -18.7945   15.4249  -22.3477 C   0  0  0  0  0  0  0  0  0  0  0  0
  -17.9542   18.2942  -22.4652 N   0  0  0  0  0  0  0  0  0  0  0  0
  -18.6278   19.4599  -22.8278 C   0  0  0  0  0  0  0  0  0  0  0  0
  -18.8849   19.6956  -24.0284 O   0  0  0  0  0  0  0  0  0  0  0  0
  -17.7364   18.0983  -21.4444 H   0  0  0  0  0  0  0  0  0  0  0  0
  -19.0479   20.4288  -21.8256 C   0  0  0  0  0  0  0  0  0  0  0  0
  -19.1245   20.1263  -20.5484 C   0  0  0  0  0  0  0  0  0  0  0  0
  1  2  1  0  0  0
  2  3  2  0  0  0
  3  4  1  0  0  0
  4  5  2  0  0  0
  5  6  1  0  0  0
  6  7  1  0  0  0
  7  8  1  0  0  0
  8  9  2  0  0  0
  9 13  1  0  0  0
 13 14  2  0  0  0
 14 15  1  0  0  0
 15 16  2  0  0  0
 16 19  1  0  0  0
 19 20  1  0  0  0
 20 21  2  0  0  0
 21 22  1  0  0  0
 22 23  2  0  0  0
 23 24  1  0  0  0
 24 25  2  0  0  0
 16 17  1  0  0  0
 17 18  2  0  0  0
  9 10  1  0  0  0
  7 26  1  0  0  0
 26 27  1  0  0  0
 27 28  1  0  0  0
 28 29  1  0  0  0
 29 30  1  0  0  0
 30 31  1  0  0  0
 29 32  1  0  0  0
 32 33  1  0  0  0
 33 34  2  0  0  0
 33 36  1  0  0  0
 36 37  2  0  0  0
 10  2  1  0  0  0
 31 26  1  0  0  0
 10  6  2  0  0  0
 18 13  1  0  0  0
 25 20  1  0  0  0
  1 11  1  0  0  0
  1 12  1  0  0  0
 32 35  1  0  0  0
M  END
> <minimizedAffinity>
-8.25855

> <CNNscore>
0.7038578987

> <CNNaffinity>
7.3935823441

> <CNN_VS>
5.2040314674

> <CNNaffinity_variance>
0.1679441482

$$$$
[H]C([H])=C([H])C(=O)N([H])[C@]1([H])C([H])([H])C([H])([H])[C@]([H])(n2nc(-c3c([H])c([H])c(Oc4c([H])c([H])c([H])c([H])c4[H])c([H])c3[H])c3c(N([H])[H])nc([H])nc32)C([H])([H])C1([H])[H]


 37 41  0  0  0  0  0  0  0  0999 V2000
  -17.5713    9.5097  -18.0986 N   0  0  0  0  0  0  0  0  0  0  0  0
  -17.1554   10.2770  -19.2060 C   0  0  0  0  0  0  0  0  0  0  0  0
  -16.2107    9.8091  -20.0497 N   0  0  0  0  0  0  0  0  0  0  0  0
  -15.8250   10.5099  -21.1313 C   0  0  0  0  0  0  0  0  0  0  0  0
  -16.3684   11.7059  -21.4127 N   0  0  0  0  0  0  0  0  0  0  0  0
  -17.3213   12.2336  -20.6067 C   0  0  0  0  0  0  0  0  0  0  0  0
  -18.0171   13.3843  -20.6776 N   0  0  0  0  0  0  0  0  0  0  0  0
  -18.8180   13.4075  -19.6643 N   0  0  0  0  0  0  0  0  0  0  0  0
  -18.6864   12.2908  -18.8933 C   0  0  0  0  0  0  0  0  0  0  0  0
  -17.7251   11.5084  -19.4790 C   0  0  0  0  0  0  0  0  0  0  0  0
  -16.9423    9.4017  -17.2848 H   0  0  0  0  0  0  0  0  0  0  0  0
  -18.4987    9.0553  -18.0949 H   0  0  0  0  0  0  0  0  0  0  0  0
  -19.4582   11.9923  -17.6988 C   0  0  0  0  0  0  0  0  0  0  0  0
  -19.9123   10.7529  -17.3244 C   0  0  0  0  0  0  0  0  0  0  0  0
  -20.6699   10.5581  -16.1745 C   0  0  0  0  0  0  0  0  0  0  0  0
  -21.0042   11.6065  -15.3473 C   0  0  0  0  0  0  0  0  0  0  0  0
  -20.5594   12.8604  -15.7009 C   0  0  0  0  0  0  0  0  0  0  0  0
  -19.8121   13.0474  -16.8376 C   0  0  0  0  0  0  0  0  0  0  0  0
  -21.7673   11.3973  -14.1923 O   0  0  0  0  0  0  0  0  0  0  0  0
  -21.1434   11.2759  -12.9814 C   0  0  0  0  0  0  0  0  0  0  0  0
  -19.9799   10.5498  -12.8365 C   0  0  0  0  0  0  0  0  0  0  0  0
  -19.3657   10.4381  -11.6106 C   0  0  0  0  0  0  0  0  0  0  0  0
  -19.9327   11.0637  -10.5319 C   0  0  0  0  0  0  0  0  0  0  0  0
  -21.0821   11.7829  -10.6668 C   0  0  0  0  0  0  0  0  0  0  0  0
  -21.7028   11.8998  -11.8888 C   0  0  0  0  0  0  0  0  0  0  0  0
  -17.8689   14.3884  -21.7152 C   0  0  0  0  0  0  0  0  0  0  0  0
  -16.6610   15.1945  -21.4039 C   0  0  0  0  0  0  0  0  0  0  0  0
  -16.4077   16.3694  -22.2870 C   0  0  0  0  0  0  0  0  0  0  0  0
  -17.6299   17.1029  -22.7336 C   0  0  0  0  0  0  0  0  0  0  0  0
  -18.8227   16.2177  -22.9682 C   0  0  0  0  0  0  0  0  0  0  0  0
  -19.0635   15.3245  -21.7441 C   0  0  0  0  0  0  0  0  0  0  0  0
  -18.0393   18.1352  -21.8038 N   0  0  0  0  0  0  0  0  0  0  0  0
  -18.5074   19.3967  -22.1691 C   0  0  0  0  0  0  0  0  0  0  0  0
  -18.6004   19.7131  -23.3752 O   0  0  0  0  0  0  0  0  0  0  0  0
  -17.9604   17.8707  -20.7782 H   0  0  0  0  0  0  0  0  0  0  0  0
  -18.8985   20.3744  -21.1637 C   0  0  0  0  0  0  0  0  0  0  0  0
  -19.1386   20.0373  -19.9158 C   0  0  0  0  0  0  0  0  0  0  0  0
  1  2  1  0  0  0
  2  3  2  0  0  0
  3  4  1  0  0  0
  4  5  2  0  0  0
  5  6  1  0  0  0
  6  7  1  0  0  0
  7  8  1  0  0  0
  8  9  2  0  0  0
  9 13  1  0  0  0
 13 14  2  0  0  0
 14 15  1  0  0  0
 15 16  2  0  0  0
 16 19  1  0  0  0
 19 20  1  0  0  0
 20 21  2  0  0  0
 21 22  1  0  0  0
 22 23  2  0  0  0
 23 24  1  0  0  0
 24 25  2  0  0  0
 16 17  1  0  0  0
 17 18  2  0  0  0
  9 10  1  0  0  0
  7 26  1  0  0  0
 26 27  1  0  0  0
 27 28  1  0  0  0
 28 29  1  0  0  0
 29 30  1  0  0  0
 30 31  1  0  0  0
 29 32  1  0  0  0
 32 33  1  0  0  0
 33 34  2  0  0  0
 33 36  1  0  0  0
 36 37  2  0  0  0
 10  2  1  0  0  0
 31 26  1  0  0  0
 10  6  2  0  0  0
 18 13  1  0  0  0
 25 20  1  0  0  0
  1 11  1  0  0  0
  1 12  1  0  0  0
 32 35  1  0  0  0
M  END
> <minimizedAffinity>
-8.33661

> <CNNscore>
0.7003347874

> <CNNaffinity>
7.3111939430

> <CNN_VS>
5.1202836037

> <CNNaffinity_variance>
0.1692356467

$$$$
[H]C([H])=C([H])C(=O)N([H])[C@]1([H])C([H])([H])C([H])([H])[C@]([H])(n2nc(-c3c([H])c([H])c(Oc4c([H])c([H])c([H])c([H])c4[H])c([H])c3[H])c3c(N([H])[H])nc([H])nc32)C([H])([H])C1([H])[H]


 37 41  0  0  0  0  0  0  0  0999 V2000
  -16.6146    9.7257  -19.6931 N   0  0  0  0  0  0  0  0  0  0  0  0
  -16.3599   10.7332  -20.6460 C   0  0  0  0  0  0  0  0  0  0  0  0
  -15.5011   10.5136  -21.6645 N   0  0  0  0  0  0  0  0  0  0  0  0
  -15.2707   11.4489  -22.6036 C   0  0  0  0  0  0  0  0  0  0  0  0
  -15.8897   12.6406  -22.5620 N   0  0  0  0  0  0  0  0  0  0  0  0
  -16.7634   12.9258  -21.5664 C   0  0  0  0  0  0  0  0  0  0  0  0
  -17.5077   14.0194  -21.3144 N   0  0  0  0  0  0  0  0  0  0  0  0
  -18.1866   13.7785  -20.2421 N   0  0  0  0  0  0  0  0  0  0  0  0
  -17.9229   12.5354  -19.7482 C   0  0  0  0  0  0  0  0  0  0  0  0
  -17.0054   11.9559  -20.5859 C   0  0  0  0  0  0  0  0  0  0  0  0
  -15.8922    9.4891  -18.9918 H   0  0  0  0  0  0  0  0  0  0  0  0
  -17.5167    9.2229  -19.6908 H   0  0  0  0  0  0  0  0  0  0  0  0
  -18.5394   11.9445  -18.5725 C   0  0  0  0  0  0  0  0  0  0  0  0
  -18.5332   10.6119  -18.2459 C   0  0  0  0  0  0  0  0  0  0  0  0
  -19.1725   10.1246  -17.1110 C   0  0  0  0  0  0  0  0  0  0  0  0
  -19.8480   10.9610  -16.2511 C   0  0  0  0  0  0  0  0  0  0  0  0
  -19.8679   12.3032  -16.5565 C   0  0  0  0  0  0  0  0  0  0  0  0
  -19.2354   12.7791  -17.6786 C   0  0  0  0  0  0  0  0  0  0  0  0
  -20.4875   10.4582  -15.1117 O   0  0  0  0  0  0  0  0  0  0  0  0
  -21.6201    9.7039  -15.2484 C   0  0  0  0  0  0  0  0  0  0  0  0
  -22.8560   10.2834  -15.4450 C   0  0  0  0  0  0  0  0  0  0  0  0
  -23.9850    9.5092  -15.5804 C   0  0  0  0  0  0  0  0  0  0  0  0
  -23.8593    8.1467  -15.5163 C   0  0  0  0  0  0  0  0  0  0  0  0
  -22.6418    7.5664  -15.3223 C   0  0  0  0  0  0  0  0  0  0  0  0
  -21.5078    8.3330  -15.1859 C   0  0  0  0  0  0  0  0  0  0  0  0
  -17.5199   15.2264  -22.1205 C   0  0  0  0  0  0  0  0  0  0  0  0
  -17.9953   16.3439  -21.2656 C   0  0  0  0  0  0  0  0  0  0  0  0
  -18.2038   17.6531  -21.9487 C   0  0  0  0  0  0  0  0  0  0  0  0
  -18.7509   17.5652  -23.3359 C   0  0  0  0  0  0  0  0  0  0  0  0
  -18.2644   16.3716  -24.1105 C   0  0  0  0  0  0  0  0  0  0  0  0
  -18.4761   15.0914  -23.2916 C   0  0  0  0  0  0  0  0  0  0  0  0
  -20.1986   17.5367  -23.3703 N   0  0  0  0  0  0  0  0  0  0  0  0
  -21.0081   18.6091  -23.7430 C   0  0  0  0  0  0  0  0  0  0  0  0
  -20.4987   19.6997  -24.0813 O   0  0  0  0  0  0  0  0  0  0  0  0
  -20.6350   16.6124  -23.0822 H   0  0  0  0  0  0  0  0  0  0  0  0
  -22.4590   18.4901  -23.7487 C   0  0  0  0  0  0  0  0  0  0  0  0
  -23.1587   18.5116  -24.8617 C   0  0  0  0  0  0  0  0  0  0  0  0
  1  2  1  0  0  0
  2  3  2  0  0  0
  3  4  1  0  0  0
  4  5  2  0  0  0
  5  6  1  0  0  0
  6  7  1  0  0  0
  7  8  1  0  0  0
  8  9  2  0  0  0
  9 13  1  0  0  0
 13 14  2  0  0  0
 14 15  1  0  0  0
 15 16  2  0  0  0
 16 19  1  0  0  0
 19 20  1  0  0  0
 20 21  2  0  0  0
 21 22  1  0  0  0
 22 23  2  0  0  0
 23 24  1  0  0  0
 24 25  2  0  0  0
 16 17  1  0  0  0
 17 18  2  0  0  0
  9 10  1  0  0  0
  7 26  1  0  0  0
 26 27  1  0  0  0
 27 28  1  0  0  0
 28 29  1  0  0  0
 29 30  1  0  0  0
 30 31  1  0  0  0
 29 32  1  0  0  0
 32 33  1  0  0  0
 33 34  2  0  0  0
 33 36  1  0  0  0
 36 37  2  0  0  0
 10  2  1  0  0  0
 31 26  1  0  0  0
 10  6  2  0  0  0
 18 13  1  0  0  0
 25 20  1  0  0  0
  1 11  1  0  0  0
  1 12  1  0  0  0
 32 35  1  0  0  0
M  END
> <minimizedAffinity>
-8.37257

> <CNNscore>
0.6861304045

> <CNNaffinity>
7.3440065384

> <CNN_VS>
5.0389461517

> <CNNaffinity_variance>
0.2073177844

$$$$
[H]C([H])=C([H])C(=O)N([H])[C@]1([H])C([H])([H])C([H])([H])[C@]([H])(n2nc(-c3c([H])c([H])c(Oc4c([H])c([H])c([H])c([H])c4[H])c([H])c3[H])c3c(N([H])[H])nc([H])nc32)C([H])([H])C1([H])[H]


 37 41  0  0  0  0  0  0  0  0999 V2000
  -17.7956    9.2139  -17.5563 N   0  0  0  0  0  0  0  0  0  0  0  0
  -17.7460   10.1694  -18.5919 C   0  0  0  0  0  0  0  0  0  0  0  0
  -16.9381    9.9851  -19.6580 N   0  0  0  0  0  0  0  0  0  0  0  0
  -16.9019   10.8671  -20.6732 C   0  0  0  0  0  0  0  0  0  0  0  0
  -17.6717   11.9681  -20.6631 N   0  0  0  0  0  0  0  0  0  0  0  0
  -18.5047   12.2137  -19.6230 C   0  0  0  0  0  0  0  0  0  0  0  0
  -19.3705   13.2177  -19.3871 N   0  0  0  0  0  0  0  0  0  0  0  0
  -19.9347   12.9743  -18.2508 N   0  0  0  0  0  0  0  0  0  0  0  0
  -19.4720   11.8177  -17.6968 C   0  0  0  0  0  0  0  0  0  0  0  0
  -18.5450   11.2991  -18.5635 C   0  0  0  0  0  0  0  0  0  0  0  0
  -17.0011    9.1278  -16.9000 H   0  0  0  0  0  0  0  0  0  0  0  0
  -18.6193    8.6002  -17.4490 H   0  0  0  0  0  0  0  0  0  0  0  0
  -19.9200   11.2443  -16.4390 C   0  0  0  0  0  0  0  0  0  0  0  0
  -20.6669   10.1021  -16.2973 C   0  0  0  0  0  0  0  0  0  0  0  0
  -21.0773    9.6353  -15.0532 C   0  0  0  0  0  0  0  0  0  0  0  0
  -20.7516   10.2998  -13.8925 C   0  0  0  0  0  0  0  0  0  0  0  0
  -20.0017   11.4485  -14.0080 C   0  0  0  0  0  0  0  0  0  0  0  0
  -19.5995   11.9055  -15.2389 C   0  0  0  0  0  0  0  0  0  0  0  0
  -21.1707    9.8195  -12.6459 O   0  0  0  0  0  0  0  0  0  0  0  0
  -20.3086    9.8481  -11.5847 C   0  0  0  0  0  0  0  0  0  0  0  0
  -19.1900    9.0428  -11.5392 C   0  0  0  0  0  0  0  0  0  0  0  0
  -18.3335    9.0846  -10.4635 C   0  0  0  0  0  0  0  0  0  0  0  0
  -18.6126    9.9441   -9.4341 C   0  0  0  0  0  0  0  0  0  0  0  0
  -19.7157   10.7430   -9.4714 C   0  0  0  0  0  0  0  0  0  0  0  0
  -20.5773   10.7076  -10.5431 C   0  0  0  0  0  0  0  0  0  0  0  0
  -19.6015   14.3471  -20.2691 C   0  0  0  0  0  0  0  0  0  0  0  0
  -18.3527   15.1491  -20.3236 C   0  0  0  0  0  0  0  0  0  0  0  0
  -18.4266   16.4323  -21.0801 C   0  0  0  0  0  0  0  0  0  0  0  0
  -19.7169   17.1734  -20.9484 C   0  0  0  0  0  0  0  0  0  0  0  0
  -20.9244   16.2839  -20.8389 C   0  0  0  0  0  0  0  0  0  0  0  0
  -20.7091   15.2382  -19.7369 C   0  0  0  0  0  0  0  0  0  0  0  0
  -19.7396   18.0680  -19.8095 N   0  0  0  0  0  0  0  0  0  0  0  0
  -19.1926   19.3504  -19.7925 C   0  0  0  0  0  0  0  0  0  0  0  0
  -18.6286   19.8120  -20.8084 O   0  0  0  0  0  0  0  0  0  0  0  0
  -20.2166   17.6788  -18.9441 H   0  0  0  0  0  0  0  0  0  0  0  0
  -19.2623   20.1823  -18.5998 C   0  0  0  0  0  0  0  0  0  0  0  0
  -19.6136   19.6988  -17.4287 C   0  0  0  0  0  0  0  0  0  0  0  0
  1  2  1  0  0  0
  2  3  2  0  0  0
  3  4  1  0  0  0
  4  5  2  0  0  0
  5  6  1  0  0  0
  6  7  1  0  0  0
  7  8  1  0  0  0
  8  9  2  0  0  0
  9 13  1  0  0  0
 13 14  2  0  0  0
 14 15  1  0  0  0
 15 16  2  0  0  0
 16 19  1  0  0  0
 19 20  1  0  0  0
 20 21  2  0  0  0
 21 22  1  0  0  0
 22 23  2  0  0  0
 23 24  1  0  0  0
 24 25  2  0  0  0
 16 17  1  0  0  0
 17 18  2  0  0  0
  9 10  1  0  0  0
  7 26  1  0  0  0
 26 27  1  0  0  0
 27 28  1  0  0  0
 28 29  1  0  0  0
 29 30  1  0  0  0
 30 31  1  0  0  0
 29 32  1  0  0  0
 32 33  1  0  0  0
 33 34  2  0  0  0
 33 36  1  0  0  0
 36 37  2  0  0  0
 10  2  1  0  0  0
 31 26  1  0  0  0
 10  6  2  0  0  0
 18 13  1  0  0  0
 25 20  1  0  0  0
  1 11  1  0  0  0
  1 12  1  0  0  0
 32 35  1  0  0  0
M  END
> <minimizedAffinity>
-7.56888

> <CNNscore>
0.6189277768

> <CNNaffinity>
7.1233305931

> <CNN_VS>
4.4088273048

> <CNNaffinity_variance>
0.2512090802

$$$$
[H]C([H])=C([H])C(=O)N([H])[C@]1([H])C([H])([H])C([H])([H])[C@]([H])(n2nc(-c3c([H])c([H])c(Oc4c([H])c([H])c([H])c([H])c4[H])c([H])c3[H])c3c(N([H])[H])nc([H])nc32)C([H])([H])C1([H])[H]


 37 41  0  0  0  0  0  0  0  0999 V2000
  -18.3141    9.1951  -17.4309 N   0  0  0  0  0  0  0  0  0  0  0  0
  -17.9078   10.1607  -18.3746 C   0  0  0  0  0  0  0  0  0  0  0  0
  -17.0650    9.8297  -19.3763 N   0  0  0  0  0  0  0  0  0  0  0  0
  -16.6928   10.7270  -20.3070 C   0  0  0  0  0  0  0  0  0  0  0  0
  -17.1484   11.9904  -20.2735 N   0  0  0  0  0  0  0  0  0  0  0  0
  -17.9966   12.3885  -19.2948 C   0  0  0  0  0  0  0  0  0  0  0  0
  -18.5937   13.5712  -19.0539 N   0  0  0  0  0  0  0  0  0  0  0  0
  -19.3207   13.4218  -17.9966 N   0  0  0  0  0  0  0  0  0  0  0  0
  -19.2352   12.1542  -17.5021 C   0  0  0  0  0  0  0  0  0  0  0  0
  -18.3859   11.4585  -18.3231 C   0  0  0  0  0  0  0  0  0  0  0  0
  -17.6443    8.8637  -16.7160 H   0  0  0  0  0  0  0  0  0  0  0  0
  -19.2749    8.8170  -17.4489 H   0  0  0  0  0  0  0  0  0  0  0  0
  -19.9490   11.6495  -16.3414 C   0  0  0  0  0  0  0  0  0  0  0  0
  -21.2158   11.1223  -16.3436 C   0  0  0  0  0  0  0  0  0  0  0  0
  -21.8378   10.6847  -15.1793 C   0  0  0  0  0  0  0  0  0  0  0  0
  -21.2090   10.7579  -13.9568 C   0  0  0  0  0  0  0  0  0  0  0  0
  -19.9365   11.2824  -13.9283 C   0  0  0  0  0  0  0  0  0  0  0  0
  -19.3270   11.7135  -15.0808 C   0  0  0  0  0  0  0  0  0  0  0  0
  -21.8459   10.3139  -12.7918 O   0  0  0  0  0  0  0  0  0  0  0  0
  -21.4784   10.8310  -11.5803 C   0  0  0  0  0  0  0  0  0  0  0  0
  -21.9005   12.0774  -11.1674 C   0  0  0  0  0  0  0  0  0  0  0  0
  -21.5210   12.5821   -9.9453 C   0  0  0  0  0  0  0  0  0  0  0  0
  -20.7130   11.8214   -9.1422 C   0  0  0  0  0  0  0  0  0  0  0  0
  -20.2916   10.5891   -9.5428 C   0  0  0  0  0  0  0  0  0  0  0  0
  -20.6663   10.0769  -10.7632 C   0  0  0  0  0  0  0  0  0  0  0  0
  -18.4285   14.7699  -19.8556 C   0  0  0  0  0  0  0  0  0  0  0  0
  -18.9643   15.9176  -19.0801 C   0  0  0  0  0  0  0  0  0  0  0  0
  -19.0055   17.2293  -19.7885 C   0  0  0  0  0  0  0  0  0  0  0  0
  -19.3512   17.1563  -21.2399 C   0  0  0  0  0  0  0  0  0  0  0  0
  -18.8198   15.9328  -21.9342 C   0  0  0  0  0  0  0  0  0  0  0  0
  -19.2119   14.6723  -21.1520 C   0  0  0  0  0  0  0  0  0  0  0  0
  -20.7785   17.2001  -21.4825 N   0  0  0  0  0  0  0  0  0  0  0  0
  -21.4066   18.0509  -22.3911 C   0  0  0  0  0  0  0  0  0  0  0  0
  -20.7358   18.8562  -23.0728 O   0  0  0  0  0  0  0  0  0  0  0  0
  -21.3519   16.5184  -20.9041 H   0  0  0  0  0  0  0  0  0  0  0  0
  -22.8511   18.0257  -22.5706 C   0  0  0  0  0  0  0  0  0  0  0  0
  -23.6388   17.3003  -21.8076 C   0  0  0  0  0  0  0  0  0  0  0  0
  1  2  1  0  0  0
  2  3  2  0  0  0
  3  4  1  0  0  0
  4  5  2  0  0  0
  5  6  1  0  0  0
  6  7  1  0  0  0
  7  8  1  0  0  0
  8  9  2  0  0  0
  9 13  1  0  0  0
 13 14  2  0  0  0
 14 15  1  0  0  0
 15 16  2  0  0  0
 16 19  1  0  0  0
 19 20  1  0  0  0
 20 21  2  0  0  0
 21 22  1  0  0  0
 22 23  2  0  0  0
 23 24  1  0  0  0
 24 25  2  0  0  0
 16 17  1  0  0  0
 17 18  2  0  0  0
  9 10  1  0  0  0
  7 26  1  0  0  0
 26 27  1  0  0  0
 27 28  1  0  0  0
 28 29  1  0  0  0
 29 30  1  0  0  0
 30 31  1  0  0  0
 29 32  1  0  0  0
 32 33  1  0  0  0
 33 34  2  0  0  0
 33 36  1  0  0  0
 36 37  2  0  0  0
 10  2  1  0  0  0
 31 26  1  0  0  0
 10  6  2  0  0  0
 18 13  1  0  0  0
 25 20  1  0  0  0
  1 11  1  0  0  0
  1 12  1  0  0  0
 32 35  1  0  0  0
M  END
> <minimizedAffinity>
-7.43474

> <CNNscore>
0.5555487871

> <CNNaffinity>
7.0258889198

> <CNN_VS>
3.9032239914

> <CNNaffinity_variance>
0.4203306139

$$$$
[H]C([H])=C([H])C(=O)N([H])[C@]1([H])C([H])([H])C([H])([H])[C@]([H])(n2nc(-c3c([H])c([H])c(Oc4c([H])c([H])c([H])c([H])c4[H])c([H])c3[H])c3c(N([H])[H])nc([H])nc32)C([H])([H])C1([H])[H]


 37 41  0  0  0  0  0  0  0  0999 V2000
  -16.4519   10.5690  -20.1850 N   0  0  0  0  0  0  0  0  0  0  0  0
  -17.4942   10.7047  -19.2452 C   0  0  0  0  0  0  0  0  0  0  0  0
  -17.7166    9.7438  -18.3230 N   0  0  0  0  0  0  0  0  0  0  0  0
  -18.6832    9.8698  -17.3958 C   0  0  0  0  0  0  0  0  0  0  0  0
  -19.4655   10.9611  -17.3535 N   0  0  0  0  0  0  0  0  0  0  0  0
  -19.2957   11.9626  -18.2503 C   0  0  0  0  0  0  0  0  0  0  0  0
  -19.9277   13.1414  -18.4063 N   0  0  0  0  0  0  0  0  0  0  0  0
  -19.3741   13.7400  -19.4082 N   0  0  0  0  0  0  0  0  0  0  0  0
  -18.3694   12.9932  -19.9481 C   0  0  0  0  0  0  0  0  0  0  0  0
  -18.2918   11.8354  -19.2180 C   0  0  0  0  0  0  0  0  0  0  0  0
  -16.5456    9.8906  -20.9599 H   0  0  0  0  0  0  0  0  0  0  0  0
  -15.5964   11.1420  -20.1046 H   0  0  0  0  0  0  0  0  0  0  0  0
  -17.5287   13.3884  -21.0655 C   0  0  0  0  0  0  0  0  0  0  0  0
  -17.0795   12.5624  -22.0647 C   0  0  0  0  0  0  0  0  0  0  0  0
  -16.2534   13.0177  -23.0866 C   0  0  0  0  0  0  0  0  0  0  0  0
  -15.8425   14.3301  -23.1483 C   0  0  0  0  0  0  0  0  0  0  0  0
  -16.2807   15.1794  -22.1574 C   0  0  0  0  0  0  0  0  0  0  0  0
  -17.0958   14.7246  -21.1503 C   0  0  0  0  0  0  0  0  0  0  0  0
  -15.0109   14.7764  -24.1824 O   0  0  0  0  0  0  0  0  0  0  0  0
  -15.4785   14.7939  -25.4674 C   0  0  0  0  0  0  0  0  0  0  0  0
  -16.5349   14.0009  -25.8639 C   0  0  0  0  0  0  0  0  0  0  0  0
  -16.9923   14.0313  -27.1610 C   0  0  0  0  0  0  0  0  0  0  0  0
  -16.3772   14.8667  -28.0555 C   0  0  0  0  0  0  0  0  0  0  0  0
  -15.3329   15.6533  -27.6717 C   0  0  0  0  0  0  0  0  0  0  0  0
  -14.8692   15.6292  -26.3769 C   0  0  0  0  0  0  0  0  0  0  0  0
  -21.0231   13.6183  -17.5820 C   0  0  0  0  0  0  0  0  0  0  0  0
  -21.2678   15.0427  -17.9239 C   0  0  0  0  0  0  0  0  0  0  0  0
  -22.2756   15.7569  -17.0882 C   0  0  0  0  0  0  0  0  0  0  0  0
  -22.2793   15.3846  -15.6416 C   0  0  0  0  0  0  0  0  0  0  0  0
  -21.9633   13.9374  -15.3819 C   0  0  0  0  0  0  0  0  0  0  0  0
  -20.6702   13.5431  -16.1075 C   0  0  0  0  0  0  0  0  0  0  0  0
  -21.3538   16.1727  -14.8542 N   0  0  0  0  0  0  0  0  0  0  0  0
  -21.5593   17.4982  -14.4734 C   0  0  0  0  0  0  0  0  0  0  0  0
  -22.6026   18.0994  -14.8101 O   0  0  0  0  0  0  0  0  0  0  0  0
  -20.4656   15.6658  -14.5675 H   0  0  0  0  0  0  0  0  0  0  0  0
  -20.5720   18.2145  -13.6788 C   0  0  0  0  0  0  0  0  0  0  0  0
  -20.0335   19.3437  -14.0833 C   0  0  0  0  0  0  0  0  0  0  0  0
  1  2  1  0  0  0
  2  3  2  0  0  0
  3  4  1  0  0  0
  4  5  2  0  0  0
  5  6  1  0  0  0
  6  7  1  0  0  0
  7  8  1  0  0  0
  8  9  2  0  0  0
  9 13  1  0  0  0
 13 14  2  0  0  0
 14 15  1  0  0  0
 15 16  2  0  0  0
 16 19  1  0  0  0
 19 20  1  0  0  0
 20 21  2  0  0  0
 21 22  1  0  0  0
 22 23  2  0  0  0
 23 24  1  0  0  0
 24 25  2  0  0  0
 16 17  1  0  0  0
 17 18  2  0  0  0
  9 10  1  0  0  0
  7 26  1  0  0  0
 26 27  1  0  0  0
 27 28  1  0  0  0
 28 29  1  0  0  0
 29 30  1  0  0  0
 30 31  1  0  0  0
 29 32  1  0  0  0
 32 33  1  0  0  0
 33 34  2  0  0  0
 33 36  1  0  0  0
 36 37  2  0  0  0
 10  2  1  0  0  0
 31 26  1  0  0  0
 10  6  2  0  0  0
 18 13  1  0  0  0
 25 20  1  0  0  0
  1 11  1  0  0  0
  1 12  1  0  0  0
 32 35  1  0  0  0
M  END
> <minimizedAffinity>
-9.72929

> <CNNscore>
0.5359141827

> <CNNaffinity>
7.3244028091

> <CNN_VS>
3.9252512455

> <CNNaffinity_variance>
0.3889636099

$$$$
[H]O[C@]1([H])C([H])([H])C([H])([H])[C@]([H])(n2c([H])c(-c3c([H])c([H])c(Oc4c([H])c([H])c([H])c([H])c4[H])c([H])c3[H])c3c(N([H])[H])nc([H])nc32)C([H])([H])C1([H])[H]


 33 37  0  0  0  0  0  0  0  0999 V2000
  -17.3785    9.8421  -18.4518 N   0  0  0  0  0  0  0  0  0  0  0  0
  -16.8397   10.3747  -19.6480 C   0  0  0  0  0  0  0  0  0  0  0  0
  -15.8697    9.7009  -20.2830 N   0  0  0  0  0  0  0  0  0  0  0  0
  -15.3192   10.1996  -21.4217 C   0  0  0  0  0  0  0  0  0  0  0  0
  -15.7249   11.3639  -21.9351 N   0  0  0  0  0  0  0  0  0  0  0  0
  -16.6948   12.0883  -21.3451 C   0  0  0  0  0  0  0  0  0  0  0  0
  -17.2628   13.2775  -21.6578 N   0  0  0  0  0  0  0  0  0  0  0  0
  -18.1691   13.5207  -20.7154 C   0  0  0  0  0  0  0  0  0  0  0  0
  -18.1830   12.4800  -19.7919 C   0  0  0  0  0  0  0  0  0  0  0  0
  -17.2608   11.5727  -20.1735 C   0  0  0  0  0  0  0  0  0  0  0  0
  -18.0248    9.0323  -18.4700 H   0  0  0  0  0  0  0  0  0  0  0  0
  -17.1369   10.2538  -17.5179 H   0  0  0  0  0  0  0  0  0  0  0  0
  -16.8992   14.0641  -22.8060 C   0  0  0  0  0  0  0  0  0  0  0  0
  -18.0886   14.7487  -23.4389 C   0  0  0  0  0  0  0  0  0  0  0  0
  -18.2175   14.4288  -24.9035 C   0  0  0  0  0  0  0  0  0  0  0  0
  -16.9210   14.5854  -25.6563 C   0  0  0  0  0  0  0  0  0  0  0  0
  -17.0640   13.9220  -26.8752 O   0  0  0  0  0  0  0  0  0  0  0  0
  -15.7376   14.0241  -24.9448 C   0  0  0  0  0  0  0  0  0  0  0  0
  -16.2451   13.1310  -23.8146 C   0  0  0  0  0  0  0  0  0  0  0  0
  -16.7839   12.9608  -26.8123 H   0  0  0  0  0  0  0  0  0  0  0  0
  -19.1025   12.4570  -18.6782 C   0  0  0  0  0  0  0  0  0  0  0  0
  -19.2578   11.2953  -17.9315 C   0  0  0  0  0  0  0  0  0  0  0  0
  -20.0877   11.2608  -16.8591 C   0  0  0  0  0  0  0  0  0  0  0  0
  -20.8360   12.3764  -16.4339 C   0  0  0  0  0  0  0  0  0  0  0  0
  -20.6511   13.5338  -17.2158 C   0  0  0  0  0  0  0  0  0  0  0  0
  -19.8167   13.5676  -18.2933 C   0  0  0  0  0  0  0  0  0  0  0  0
  -21.6056   12.2900  -15.4137 O   0  0  0  0  0  0  0  0  0  0  0  0
  -22.3629   12.2062  -14.3960 C   0  0  0  0  0  0  0  0  0  0  0  0
  -23.0547   11.0290  -14.1047 C   0  0  0  0  0  0  0  0  0  0  0  0
  -23.8580   10.9527  -13.0176 C   0  0  0  0  0  0  0  0  0  0  0  0
  -24.0197   12.0237  -12.1685 C   0  0  0  0  0  0  0  0  0  0  0  0
  -23.3366   13.1835  -12.4577 C   0  0  0  0  0  0  0  0  0  0  0  0
  -22.5223   13.2928  -13.5413 C   0  0  0  0  0  0  0  0  0  0  0  0
  1  2  1  0  0  0
  2  3  2  0  0  0
  3  4  1  0  0  0
  4  5  2  0  0  0
  5  6  1  0  0  0
  6  7  1  0  0  0
  7  8  1  0  0  0
  8  9  2  0  0  0
  9 21  1  0  0  0
 21 22  2  0  0  0
 22 23  1  0  0  0
 23 24  2  0  0  0
 24 27  1  0  0  0
 27 28  1  0  0  0
 28 29  2  0  0  0
 29 30  1  0  0  0
 30 31  2  0  0  0
 31 32  1  0  0  0
 32 33  2  0  0  0
 24 25  1  0  0  0
 25 26  2  0  0  0
  9 10  1  0  0  0
  7 13  1  0  0  0
 13 14  1  0  0  0
 14 15  1  0  0  0
 15 16  1  0  0  0
 16 17  1  0  0  0
 16 18  1  0  0  0
 18 19  1  0  0  0
 10  2  1  0  0  0
 19 13  1  0  0  0
 10  6  2  0  0  0
 26 21  1  0  0  0
 33 28  1  0  0  0
  1 11  1  0  0  0
  1 12  1  0  0  0
 17 20  1  0  0  0
M  END
> <minimizedAffinity>
-9.12841

> <CNNscore>
0.8544465303

> <CNNaffinity>
7.0449156761

> <CNN_VS>
6.0195035934

> <CNNaffinity_variance>
0.0921425968

$$$$
[H]O[C@]1([H])C([H])([H])C([H])([H])[C@]([H])(n2c([H])c(-c3c([H])c([H])c(Oc4c([H])c([H])c([H])c([H])c4[H])c([H])c3[H])c3c(N([H])[H])nc([H])nc32)C([H])([H])C1([H])[H]


 33 37  0  0  0  0  0  0  0  0999 V2000
  -16.6563    9.9629  -18.7323 N   0  0  0  0  0  0  0  0  0  0  0  0
  -16.3970   10.5786  -19.9807 C   0  0  0  0  0  0  0  0  0  0  0  0
  -15.5086   10.0163  -20.8131 N   0  0  0  0  0  0  0  0  0  0  0  0
  -15.2241   10.5977  -22.0087 C   0  0  0  0  0  0  0  0  0  0  0  0
  -15.8157   11.7346  -22.3845 N   0  0  0  0  0  0  0  0  0  0  0  0
  -16.7167   12.3486  -21.5940 C   0  0  0  0  0  0  0  0  0  0  0  0
  -17.4318   13.4893  -21.7418 N   0  0  0  0  0  0  0  0  0  0  0  0
  -18.1640   13.6197  -20.6392 C   0  0  0  0  0  0  0  0  0  0  0  0
  -17.9173   12.5547  -19.7783 C   0  0  0  0  0  0  0  0  0  0  0  0
  -17.0087   11.7480  -20.3639 C   0  0  0  0  0  0  0  0  0  0  0  0
  -17.2236    9.0980  -18.6698 H   0  0  0  0  0  0  0  0  0  0  0  0
  -16.2808   10.3668  -17.8402 H   0  0  0  0  0  0  0  0  0  0  0  0
  -17.3565   14.3403  -22.8992 C   0  0  0  0  0  0  0  0  0  0  0  0
  -16.0647   15.1225  -22.9595 C   0  0  0  0  0  0  0  0  0  0  0  0
  -16.3007   16.6036  -23.0809 C   0  0  0  0  0  0  0  0  0  0  0  0
  -17.3047   16.9539  -24.1492 C   0  0  0  0  0  0  0  0  0  0  0  0
  -17.7129   18.2685  -23.9226 O   0  0  0  0  0  0  0  0  0  0  0  0
  -18.5093   16.0761  -24.1574 C   0  0  0  0  0  0  0  0  0  0  0  0
  -18.5370   15.2989  -22.8430 C   0  0  0  0  0  0  0  0  0  0  0  0
  -18.5094   18.3126  -23.3143 H   0  0  0  0  0  0  0  0  0  0  0  0
  -18.6079   12.4137  -18.5176 C   0  0  0  0  0  0  0  0  0  0  0  0
  -18.6225   13.4691  -17.6135 C   0  0  0  0  0  0  0  0  0  0  0  0
  -19.2952   13.3730  -16.4395 C   0  0  0  0  0  0  0  0  0  0  0  0
  -20.0124   12.2209  -16.0601 C   0  0  0  0  0  0  0  0  0  0  0  0
  -19.9735   11.1743  -17.0026 C   0  0  0  0  0  0  0  0  0  0  0  0
  -19.2973   11.2719  -18.1823 C   0  0  0  0  0  0  0  0  0  0  0  0
  -20.6309   12.1824  -14.9393 O   0  0  0  0  0  0  0  0  0  0  0  0
  -21.2395   12.1499  -13.8236 C   0  0  0  0  0  0  0  0  0  0  0  0
  -22.3786   12.9252  -13.5986 C   0  0  0  0  0  0  0  0  0  0  0  0
  -23.0177   12.8813  -12.4060 C   0  0  0  0  0  0  0  0  0  0  0  0
  -22.5709   12.0779  -11.3818 C   0  0  0  0  0  0  0  0  0  0  0  0
  -21.4475   11.3142  -11.6057 C   0  0  0  0  0  0  0  0  0  0  0  0
  -20.7826   11.3353  -12.7918 C   0  0  0  0  0  0  0  0  0  0  0  0
  1  2  1  0  0  0
  2  3  2  0  0  0
  3  4  1  0  0  0
  4  5  2  0  0  0
  5  6  1  0  0  0
  6  7  1  0  0  0
  7  8  1  0  0  0
  8  9  2  0  0  0
  9 21  1  0  0  0
 21 22  2  0  0  0
 22 23  1  0  0  0
 23 24  2  0  0  0
 24 27  1  0  0  0
 27 28  1  0  0  0
 28 29  2  0  0  0
 29 30  1  0  0  0
 30 31  2  0  0  0
 31 32  1  0  0  0
 32 33  2  0  0  0
 24 25  1  0  0  0
 25 26  2  0  0  0
  9 10  1  0  0  0
  7 13  1  0  0  0
 13 14  1  0  0  0
 14 15  1  0  0  0
 15 16  1  0  0  0
 16 17  1  0  0  0
 16 18  1  0  0  0
 18 19  1  0  0  0
 10  2  1  0  0  0
 19 13  1  0  0  0
 10  6  2  0  0  0
 26 21  1  0  0  0
 33 28  1  0  0  0
  1 11  1  0  0  0
  1 12  1  0  0  0
 17 20  1  0  0  0
M  END
> <minimizedAffinity>
-8.60379

> <CNNscore>
0.8467443585

> <CNNaffinity>
7.0084724426

> <CNN_VS>
5.9343843460

> <CNNaffinity_variance>
0.0741331950

$$$$
[H]O[C@]1([H])C([H])([H])C([H])([H])[C@]([H])(n2c([H])c(-c3c([H])c([H])c(Oc4c([H])c([H])c([H])c([H])c4[H])c([H])c3[H])c3c(N([H])[H])nc([H])nc32)C([H])([H])C1([H])[H]


 33 37  0  0  0  0  0  0  0  0999 V2000
  -17.7442   11.0916  -18.5353 N   0  0  0  0  0  0  0  0  0  0  0  0
  -17.0511   11.0492  -19.7693 C   0  0  0  0  0  0  0  0  0  0  0  0
  -16.2121   10.0316  -20.0113 N   0  0  0  0  0  0  0  0  0  0  0  0
  -15.5172    9.9771  -21.1787 C   0  0  0  0  0  0  0  0  0  0  0  0
  -15.6492   10.9268  -22.1085 N   0  0  0  0  0  0  0  0  0  0  0  0
  -16.4755   11.9743  -21.9258 C   0  0  0  0  0  0  0  0  0  0  0  0
  -16.7704   13.0482  -22.6967 N   0  0  0  0  0  0  0  0  0  0  0  0
  -17.6506   13.7726  -22.0116 C   0  0  0  0  0  0  0  0  0  0  0  0
  -17.9227   13.1587  -20.7929 C   0  0  0  0  0  0  0  0  0  0  0  0
  -17.1905   12.0280  -20.7238 C   0  0  0  0  0  0  0  0  0  0  0  0
  -18.5421   10.4576  -18.3477 H   0  0  0  0  0  0  0  0  0  0  0  0
  -17.4674   11.7654  -17.7808 H   0  0  0  0  0  0  0  0  0  0  0  0
  -16.1983   13.2865  -23.9949 C   0  0  0  0  0  0  0  0  0  0  0  0
  -14.8512   13.9673  -23.9177 C   0  0  0  0  0  0  0  0  0  0  0  0
  -14.8051   15.2327  -24.7305 C   0  0  0  0  0  0  0  0  0  0  0  0
  -15.3474   15.0560  -26.1258 C   0  0  0  0  0  0  0  0  0  0  0  0
  -15.5994   16.3285  -26.6393 O   0  0  0  0  0  0  0  0  0  0  0  0
  -16.6058   14.2597  -26.1886 C   0  0  0  0  0  0  0  0  0  0  0  0
  -17.1723   14.1583  -24.7739 C   0  0  0  0  0  0  0  0  0  0  0  0
  -16.5320   16.6360  -26.4342 H   0  0  0  0  0  0  0  0  0  0  0  0
  -18.8788   13.7042  -19.8576 C   0  0  0  0  0  0  0  0  0  0  0  0
  -18.4395   14.4738  -18.7871 C   0  0  0  0  0  0  0  0  0  0  0  0
  -19.3212   15.0268  -17.9171 C   0  0  0  0  0  0  0  0  0  0  0  0
  -20.7160   14.8644  -18.0336 C   0  0  0  0  0  0  0  0  0  0  0  0
  -21.1210   14.0785  -19.1307 C   0  0  0  0  0  0  0  0  0  0  0  0
  -20.2342   13.5234  -20.0046 C   0  0  0  0  0  0  0  0  0  0  0  0
  -21.5051   15.4086  -17.1841 O   0  0  0  0  0  0  0  0  0  0  0  0
  -22.2850   15.9439  -16.3348 C   0  0  0  0  0  0  0  0  0  0  0  0
  -23.5850   16.3166  -16.6814 C   0  0  0  0  0  0  0  0  0  0  0  0
  -24.4058   16.8857  -15.7673 C   0  0  0  0  0  0  0  0  0  0  0  0
  -23.9911   17.1150  -14.4752 C   0  0  0  0  0  0  0  0  0  0  0  0
  -22.7088   16.7468  -14.1356 C   0  0  0  0  0  0  0  0  0  0  0  0
  -21.8596   16.1732  -15.0297 C   0  0  0  0  0  0  0  0  0  0  0  0
  1  2  1  0  0  0
  2  3  2  0  0  0
  3  4  1  0  0  0
  4  5  2  0  0  0
  5  6  1  0  0  0
  6  7  1  0  0  0
  7  8  1  0  0  0
  8  9  2  0  0  0
  9 21  1  0  0  0
 21 22  2  0  0  0
 22 23  1  0  0  0
 23 24  2  0  0  0
 24 27  1  0  0  0
 27 28  1  0  0  0
 28 29  2  0  0  0
 29 30  1  0  0  0
 30 31  2  0  0  0
 31 32  1  0  0  0
 32 33  2  0  0  0
 24 25  1  0  0  0
 25 26  2  0  0  0
  9 10  1  0  0  0
  7 13  1  0  0  0
 13 14  1  0  0  0
 14 15  1  0  0  0
 15 16  1  0  0  0
 16 17  1  0  0  0
 16 18  1  0  0  0
 18 19  1  0  0  0
 10  2  1  0  0  0
 19 13  1  0  0  0
 10  6  2  0  0  0
 26 21  1  0  0  0
 33 28  1  0  0  0
  1 11  1  0  0  0
  1 12  1  0  0  0
 17 20  1  0  0  0
M  END
> <minimizedAffinity>
-9.00377

> <CNNscore>
0.8058985472

> <CNNaffinity>
7.2444200516

> <CNN_VS>
5.8382678032

> <CNNaffinity_variance>
0.1961866170

$$$$
[H]O[C@]1([H])C([H])([H])C([H])([H])[C@]([H])(n2c([H])c(-c3c([H])c([H])c(Oc4c([H])c([H])c([H])c([H])c4[H])c([H])c3[H])c3c(N([H])[H])nc([H])nc32)C([H])([H])C1([H])[H]


 33 37  0  0  0  0  0  0  0  0999 V2000
  -17.5690   10.6055  -18.3785 N   0  0  0  0  0  0  0  0  0  0  0  0
  -16.9690   10.8168  -19.6435 C   0  0  0  0  0  0  0  0  0  0  0  0
  -16.1250    9.8938  -20.1273 N   0  0  0  0  0  0  0  0  0  0  0  0
  -15.5180   10.0810  -21.3293 C   0  0  0  0  0  0  0  0  0  0  0  0
  -15.7426   11.1793  -22.0553 N   0  0  0  0  0  0  0  0  0  0  0  0
  -16.5791   12.1430  -21.6251 C   0  0  0  0  0  0  0  0  0  0  0  0
  -16.9574   13.3279  -22.1612 N   0  0  0  0  0  0  0  0  0  0  0  0
  -17.8020   13.8800  -21.2947 C   0  0  0  0  0  0  0  0  0  0  0  0
  -17.9670   13.0431  -20.1954 C   0  0  0  0  0  0  0  0  0  0  0  0
  -17.2036   11.9479  -20.3879 C   0  0  0  0  0  0  0  0  0  0  0  0
  -18.3345    9.9177  -18.2576 H   0  0  0  0  0  0  0  0  0  0  0  0
  -17.2536   11.1396  -17.5328 H   0  0  0  0  0  0  0  0  0  0  0  0
  -16.4899   13.8220  -23.4287 C   0  0  0  0  0  0  0  0  0  0  0  0
  -15.2955   14.7373  -23.2883 C   0  0  0  0  0  0  0  0  0  0  0  0
  -15.5218   16.0735  -23.9421 C   0  0  0  0  0  0  0  0  0  0  0  0
  -16.0718   15.9586  -25.3408 C   0  0  0  0  0  0  0  0  0  0  0  0
  -16.5808   17.2090  -25.6925 O   0  0  0  0  0  0  0  0  0  0  0  0
  -17.1566   14.9462  -25.4822 C   0  0  0  0  0  0  0  0  0  0  0  0
  -17.6405   14.5731  -24.0825 C   0  0  0  0  0  0  0  0  0  0  0  0
  -17.5466   17.3039  -25.4386 H   0  0  0  0  0  0  0  0  0  0  0  0
  -18.8641   13.3707  -19.1118 C   0  0  0  0  0  0  0  0  0  0  0  0
  -18.3508   13.7751  -17.8853 C   0  0  0  0  0  0  0  0  0  0  0  0
  -19.1741   14.1230  -16.8648 C   0  0  0  0  0  0  0  0  0  0  0  0
  -20.5788   14.0999  -16.9725 C   0  0  0  0  0  0  0  0  0  0  0  0
  -21.0596   13.6849  -18.2301 C   0  0  0  0  0  0  0  0  0  0  0  0
  -20.2315   13.3357  -19.2552 C   0  0  0  0  0  0  0  0  0  0  0  0
  -21.3107   14.4384  -15.9774 O   0  0  0  0  0  0  0  0  0  0  0  0
  -22.0373   14.7824  -14.9926 C   0  0  0  0  0  0  0  0  0  0  0  0
  -22.3205   16.1255  -14.7374 C   0  0  0  0  0  0  0  0  0  0  0  0
  -23.0960   16.4786  -13.6853 C   0  0  0  0  0  0  0  0  0  0  0  0
  -23.6279   15.5342  -12.8373 C   0  0  0  0  0  0  0  0  0  0  0  0
  -23.3473   14.2104  -13.0907 C   0  0  0  0  0  0  0  0  0  0  0  0
  -22.5722   13.8225  -14.1386 C   0  0  0  0  0  0  0  0  0  0  0  0
  1  2  1  0  0  0
  2  3  2  0  0  0
  3  4  1  0  0  0
  4  5  2  0  0  0
  5  6  1  0  0  0
  6  7  1  0  0  0
  7  8  1  0  0  0
  8  9  2  0  0  0
  9 21  1  0  0  0
 21 22  2  0  0  0
 22 23  1  0  0  0
 23 24  2  0  0  0
 24 27  1  0  0  0
 27 28  1  0  0  0
 28 29  2  0  0  0
 29 30  1  0  0  0
 30 31  2  0  0  0
 31 32  1  0  0  0
 32 33  2  0  0  0
 24 25  1  0  0  0
 25 26  2  0  0  0
  9 10  1  0  0  0
  7 13  1  0  0  0
 13 14  1  0  0  0
 14 15  1  0  0  0
 15 16  1  0  0  0
 16 17  1  0  0  0
 16 18  1  0  0  0
 18 19  1  0  0  0
 10  2  1  0  0  0
 19 13  1  0  0  0
 10  6  2  0  0  0
 26 21  1  0  0  0
 33 28  1  0  0  0
  1 11  1  0  0  0
  1 12  1  0  0  0
 17 20  1  0  0  0
M  END
> <minimizedAffinity>
-8.72936

> <CNNscore>
0.7959519029

> <CNNaffinity>
7.1528282166

> <CNN_VS>
5.6933073997

> <CNNaffinity_variance>
0.2052800357

$$$$
[H]O[C@]1([H])C([H])([H])C([H])([H])[C@]([H])(n2c([H])c(-c3c([H])c([H])c(Oc4c([H])c([H])c([H])c([H])c4[H])c([H])c3[H])c3c(N([H])[H])nc([H])nc32)C([H])([H])C1([H])[H]


 33 37  0  0  0  0  0  0  0  0999 V2000
  -16.5231    9.9926  -19.6217 N   0  0  0  0  0  0  0  0  0  0  0  0
  -16.4072   10.8927  -20.7086 C   0  0  0  0  0  0  0  0  0  0  0  0
  -15.4746   10.6672  -21.6454 N   0  0  0  0  0  0  0  0  0  0  0  0
  -15.3267   11.5268  -22.6883 C   0  0  0  0  0  0  0  0  0  0  0  0
  -16.0988   12.6100  -22.8080 N   0  0  0  0  0  0  0  0  0  0  0  0
  -17.0533   12.8923  -21.9010 C   0  0  0  0  0  0  0  0  0  0  0  0
  -17.9394   13.9113  -21.7970 N   0  0  0  0  0  0  0  0  0  0  0  0
  -18.6418   13.6873  -20.6900 C   0  0  0  0  0  0  0  0  0  0  0  0
  -18.2035   12.5161  -20.0800 C   0  0  0  0  0  0  0  0  0  0  0  0
  -17.2044   12.0057  -20.8286 C   0  0  0  0  0  0  0  0  0  0  0  0
  -16.9487    9.0560  -19.7455 H   0  0  0  0  0  0  0  0  0  0  0  0
  -16.1812   10.2515  -18.6646 H   0  0  0  0  0  0  0  0  0  0  0  0
  -18.0380   14.9899  -22.7437 C   0  0  0  0  0  0  0  0  0  0  0  0
  -18.0485   14.5047  -24.1750 C   0  0  0  0  0  0  0  0  0  0  0  0
  -16.9760   15.1562  -25.0053 C   0  0  0  0  0  0  0  0  0  0  0  0
  -16.9354   16.6543  -24.8438 C   0  0  0  0  0  0  0  0  0  0  0  0
  -15.7090   17.0942  -25.3424 O   0  0  0  0  0  0  0  0  0  0  0  0
  -17.0676   17.1136  -23.4320 C   0  0  0  0  0  0  0  0  0  0  0  0
  -16.8458   15.9087  -22.5200 C   0  0  0  0  0  0  0  0  0  0  0  0
  -15.0007   17.1088  -24.6322 H   0  0  0  0  0  0  0  0  0  0  0  0
  -18.8174   12.0034  -18.8772 C   0  0  0  0  0  0  0  0  0  0  0  0
  -18.5472   10.7056  -18.4602 C   0  0  0  0  0  0  0  0  0  0  0  0
  -19.0830   10.2149  -17.3147 C   0  0  0  0  0  0  0  0  0  0  0  0
  -19.9339   10.9695  -16.4828 C   0  0  0  0  0  0  0  0  0  0  0  0
  -20.1832   12.2789  -16.9394 C   0  0  0  0  0  0  0  0  0  0  0  0
  -19.6440   12.7712  -18.0907 C   0  0  0  0  0  0  0  0  0  0  0  0
  -20.4133   10.4576  -15.4111 O   0  0  0  0  0  0  0  0  0  0  0  0
  -20.8935    9.9440  -14.3520 C   0  0  0  0  0  0  0  0  0  0  0  0
  -21.1122   10.7156  -13.2092 C   0  0  0  0  0  0  0  0  0  0  0  0
  -21.6244   10.1564  -12.0876 C   0  0  0  0  0  0  0  0  0  0  0  0
  -21.9447    8.8190  -12.0347 C   0  0  0  0  0  0  0  0  0  0  0  0
  -21.7282    8.0600  -13.1627 C   0  0  0  0  0  0  0  0  0  0  0  0
  -21.2153    8.5908  -14.3048 C   0  0  0  0  0  0  0  0  0  0  0  0
  1  2  1  0  0  0
  2  3  2  0  0  0
  3  4  1  0  0  0
  4  5  2  0  0  0
  5  6  1  0  0  0
  6  7  1  0  0  0
  7  8  1  0  0  0
  8  9  2  0  0  0
  9 21  1  0  0  0
 21 22  2  0  0  0
 22 23  1  0  0  0
 23 24  2  0  0  0
 24 27  1  0  0  0
 27 28  1  0  0  0
 28 29  2  0  0  0
 29 30  1  0  0  0
 30 31  2  0  0  0
 31 32  1  0  0  0
 32 33  2  0  0  0
 24 25  1  0  0  0
 25 26  2  0  0  0
  9 10  1  0  0  0
  7 13  1  0  0  0
 13 14  1  0  0  0
 14 15  1  0  0  0
 15 16  1  0  0  0
 16 17  1  0  0  0
 16 18  1  0  0  0
 18 19  1  0  0  0
 10  2  1  0  0  0
 19 13  1  0  0  0
 10  6  2  0  0  0
 26 21  1  0  0  0
 33 28  1  0  0  0
  1 11  1  0  0  0
  1 12  1  0  0  0
 17 20  1  0  0  0
M  END
> <minimizedAffinity>
-8.94225

> <CNNscore>
0.7106364965

> <CNNaffinity>
7.0412034988

> <CNN_VS>
5.0037360191

> <CNNaffinity_variance>
0.1928646713

$$$$
[H]O[C@]1([H])C([H])([H])C([H])([H])[C@]([H])(n2c([H])c(-c3c([H])c([H])c(Oc4c([H])c([H])c([H])c([H])c4[H])c([H])c3[H])c3c(N([H])[H])nc([H])nc32)C([H])([H])C1([H])[H]


 33 37  0  0  0  0  0  0  0  0999 V2000
  -17.6560    9.3900  -17.8233 N   0  0  0  0  0  0  0  0  0  0  0  0
  -17.3864   10.2265  -18.9335 C   0  0  0  0  0  0  0  0  0  0  0  0
  -16.4962    9.8241  -19.8522 N   0  0  0  0  0  0  0  0  0  0  0  0
  -16.2020   10.6168  -20.9169 C   0  0  0  0  0  0  0  0  0  0  0  0
  -16.7856   11.8075  -21.0763 N   0  0  0  0  0  0  0  0  0  0  0  0
  -17.6879   12.2686  -20.1892 C   0  0  0  0  0  0  0  0  0  0  0  0
  -18.3962   13.4212  -20.1247 N   0  0  0  0  0  0  0  0  0  0  0  0
  -19.1340   13.3478  -19.0205 C   0  0  0  0  0  0  0  0  0  0  0  0
  -18.8977   12.1393  -18.3726 C   0  0  0  0  0  0  0  0  0  0  0  0
  -17.9899   11.4506  -19.0944 C   0  0  0  0  0  0  0  0  0  0  0  0
  -18.2281    8.5322  -17.9261 H   0  0  0  0  0  0  0  0  0  0  0  0
  -17.2835    9.6178  -16.8698 H   0  0  0  0  0  0  0  0  0  0  0  0
  -18.3099   14.4729  -21.1023 C   0  0  0  0  0  0  0  0  0  0  0  0
  -16.9796   15.1892  -21.0661 C   0  0  0  0  0  0  0  0  0  0  0  0
  -17.1374   16.6758  -20.8956 C   0  0  0  0  0  0  0  0  0  0  0  0
  -18.1531   17.2715  -21.8366 C   0  0  0  0  0  0  0  0  0  0  0  0
  -18.4813   18.5368  -21.3490 O   0  0  0  0  0  0  0  0  0  0  0  0
  -19.4039   16.4705  -21.9616 C   0  0  0  0  0  0  0  0  0  0  0  0
  -19.4337   15.4587  -20.8179 C   0  0  0  0  0  0  0  0  0  0  0  0
  -19.2550   18.5021  -20.7115 H   0  0  0  0  0  0  0  0  0  0  0  0
  -19.5962   11.7695  -17.1636 C   0  0  0  0  0  0  0  0  0  0  0  0
  -20.2988   10.5718  -17.1078 C   0  0  0  0  0  0  0  0  0  0  0  0
  -20.9316   10.1863  -15.9715 C   0  0  0  0  0  0  0  0  0  0  0  0
  -20.9223   10.9558  -14.7913 C   0  0  0  0  0  0  0  0  0  0  0  0
  -20.2001   12.1617  -14.8881 C   0  0  0  0  0  0  0  0  0  0  0  0
  -19.5642   12.5482  -16.0304 C   0  0  0  0  0  0  0  0  0  0  0  0
  -21.5367   10.5453  -13.7451 O   0  0  0  0  0  0  0  0  0  0  0  0
  -22.1498   10.1315  -12.7111 C   0  0  0  0  0  0  0  0  0  0  0  0
  -21.4544    9.6094  -11.6189 C   0  0  0  0  0  0  0  0  0  0  0  0
  -22.1193    9.1723  -10.5235 C   0  0  0  0  0  0  0  0  0  0  0  0
  -23.4924    9.2265  -10.4487 C   0  0  0  0  0  0  0  0  0  0  0  0
  -24.1762    9.7415  -11.5269 C   0  0  0  0  0  0  0  0  0  0  0  0
  -23.5386   10.1889  -12.6417 C   0  0  0  0  0  0  0  0  0  0  0  0
  1  2  1  0  0  0
  2  3  2  0  0  0
  3  4  1  0  0  0
  4  5  2  0  0  0
  5  6  1  0  0  0
  6  7  1  0  0  0
  7  8  1  0  0  0
  8  9  2  0  0  0
  9 21  1  0  0  0
 21 22  2  0  0  0
 22 23  1  0  0  0
 23 24  2  0  0  0
 24 27  1  0  0  0
 27 28  1  0  0  0
 28 29  2  0  0  0
 29 30  1  0  0  0
 30 31  2  0  0  0
 31 32  1  0  0  0
 32 33  2  0  0  0
 24 25  1  0  0  0
 25 26  2  0  0  0
  9 10  1  0  0  0
  7 13  1  0  0  0
 13 14  1  0  0  0
 14 15  1  0  0  0
 15 16  1  0  0  0
 16 17  1  0  0  0
 16 18  1  0  0  0
 18 19  1  0  0  0
 10  2  1  0  0  0
 19 13  1  0  0  0
 10  6  2  0  0  0
 26 21  1  0  0  0
 33 28  1  0  0  0
  1 11  1  0  0  0
  1 12  1  0  0  0
 17 20  1  0  0  0
M  END
> <minimizedAffinity>
-7.02593

> <CNNscore>
0.6288832426

> <CNNaffinity>
6.7217788696

> <CNN_VS>
4.2272138596

> <CNNaffinity_variance>
0.2037831992

$$$$
[H]O[C@]1([H])C([H])([H])C([H])([H])[C@]([H])(n2c([H])c(-c3c([H])c([H])c(Oc4c([H])c([H])c([H])c([H])c4[H])c([H])c3[H])c3c(N([H])[H])nc([H])nc32)C([H])([H])C1([H])[H]


 33 37  0  0  0  0  0  0  0  0999 V2000
  -17.1573    9.9581  -18.5569 N   0  0  0  0  0  0  0  0  0  0  0  0
  -17.4204   10.9819  -19.4990 C   0  0  0  0  0  0  0  0  0  0  0  0
  -16.7043   11.0251  -20.6320 N   0  0  0  0  0  0  0  0  0  0  0  0
  -16.9208   12.0098  -21.5441 C   0  0  0  0  0  0  0  0  0  0  0  0
  -17.8439   12.9531  -21.3394 N   0  0  0  0  0  0  0  0  0  0  0  0
  -18.5958   12.9651  -20.2222 C   0  0  0  0  0  0  0  0  0  0  0  0
  -19.5686   13.8008  -19.7869 N   0  0  0  0  0  0  0  0  0  0  0  0
  -19.9609   13.3373  -18.6037 C   0  0  0  0  0  0  0  0  0  0  0  0
  -19.2349   12.1958  -18.2779 C   0  0  0  0  0  0  0  0  0  0  0  0
  -18.3718   11.9501  -19.2849 C   0  0  0  0  0  0  0  0  0  0  0  0
  -17.4642    8.9830  -18.7266 H   0  0  0  0  0  0  0  0  0  0  0  0
  -16.6455   10.1611  -17.6643 H   0  0  0  0  0  0  0  0  0  0  0  0
  -20.0312   14.9472  -20.5225 C   0  0  0  0  0  0  0  0  0  0  0  0
  -19.0185   16.0688  -20.5434 C   0  0  0  0  0  0  0  0  0  0  0  0
  -19.5938   17.3653  -20.0413 C   0  0  0  0  0  0  0  0  0  0  0  0
  -20.9239   17.7002  -20.6664 C   0  0  0  0  0  0  0  0  0  0  0  0
  -21.5184   18.6860  -19.8784 O   0  0  0  0  0  0  0  0  0  0  0  0
  -21.8558   16.5407  -20.7614 C   0  0  0  0  0  0  0  0  0  0  0  0
  -21.3175   15.4268  -19.8659 C   0  0  0  0  0  0  0  0  0  0  0  0
  -22.0842   18.2913  -19.1502 H   0  0  0  0  0  0  0  0  0  0  0  0
  -19.4796   11.4538  -17.0631 C   0  0  0  0  0  0  0  0  0  0  0  0
  -19.6224   12.1277  -15.8561 C   0  0  0  0  0  0  0  0  0  0  0  0
  -19.8890   11.4551  -14.7087 C   0  0  0  0  0  0  0  0  0  0  0  0
  -20.0374   10.0548  -14.6589 C   0  0  0  0  0  0  0  0  0  0  0  0
  -19.8858    9.4087  -15.9017 C   0  0  0  0  0  0  0  0  0  0  0  0
  -19.6180   10.0855  -17.0544 C   0  0  0  0  0  0  0  0  0  0  0  0
  -20.2891    9.4688  -13.5481 O   0  0  0  0  0  0  0  0  0  0  0  0
  -20.5368    8.8798  -12.4491 C   0  0  0  0  0  0  0  0  0  0  0  0
  -19.6517    7.9405  -11.9167 C   0  0  0  0  0  0  0  0  0  0  0  0
  -19.9273    7.3204  -10.7452 C   0  0  0  0  0  0  0  0  0  0  0  0
  -21.0798    7.5916  -10.0437 C   0  0  0  0  0  0  0  0  0  0  0  0
  -21.9512    8.5181  -10.5705 C   0  0  0  0  0  0  0  0  0  0  0  0
  -21.7042    9.1585  -11.7445 C   0  0  0  0  0  0  0  0  0  0  0  0
  1  2  1  0  0  0
  2  3  2  0  0  0
  3  4  1  0  0  0
  4  5  2  0  0  0
  5  6  1  0  0  0
  6  7  1  0  0  0
  7  8  1  0  0  0
  8  9  2  0  0  0
  9 21  1  0  0  0
 21 22  2  0  0  0
 22 23  1  0  0  0
 23 24  2  0  0  0
 24 27  1  0  0  0
 27 28  1  0  0  0
 28 29  2  0  0  0
 29 30  1  0  0  0
 30 31  2  0  0  0
 31 32  1  0  0  0
 32 33  2  0  0  0
 24 25  1  0  0  0
 25 26  2  0  0  0
  9 10  1  0  0  0
  7 13  1  0  0  0
 13 14  1  0  0  0
 14 15  1  0  0  0
 15 16  1  0  0  0
 16 17  1  0  0  0
 16 18  1  0  0  0
 18 19  1  0  0  0
 10  2  1  0  0  0
 19 13  1  0  0  0
 10  6  2  0  0  0
 26 21  1  0  0  0
 33 28  1  0  0  0
  1 11  1  0  0  0
  1 12  1  0  0  0
 17 20  1  0  0  0
M  END
> <minimizedAffinity>
-7.11095

> <CNNscore>
0.5815132856

> <CNNaffinity>
6.7031044960

> <CNN_VS>
3.8979442120

> <CNNaffinity_variance>
0.3739352226

$$$$
[H]O[C@]1([H])C([H])([H])C([H])([H])[C@]([H])(n2c([H])c(-c3c([H])c([H])c(Oc4c([H])c([H])c([H])c([H])c4[H])c([H])c3[H])c3c(N([H])[H])nc([H])nc32)C([H])([H])C1([H])[H]


 33 37  0  0  0  0  0  0  0  0999 V2000
  -18.1217    9.1844  -17.2902 N   0  0  0  0  0  0  0  0  0  0  0  0
  -17.9601   10.1733  -18.2906 C   0  0  0  0  0  0  0  0  0  0  0  0
  -17.0946    9.9534  -19.2911 N   0  0  0  0  0  0  0  0  0  0  0  0
  -16.9035   10.8948  -20.2532 C   0  0  0  0  0  0  0  0  0  0  0  0
  -17.5658   12.0544  -20.2293 N   0  0  0  0  0  0  0  0  0  0  0  0
  -18.4484   12.3356  -19.2518 C   0  0  0  0  0  0  0  0  0  0  0  0
  -19.2215   13.4201  -19.0058 N   0  0  0  0  0  0  0  0  0  0  0  0
  -19.8966   13.1555  -17.8909 C   0  0  0  0  0  0  0  0  0  0  0  0
  -19.5547   11.8921  -17.4188 C   0  0  0  0  0  0  0  0  0  0  0  0
  -18.6443   11.3648  -18.2628 C   0  0  0  0  0  0  0  0  0  0  0  0
  -18.6450    8.3106  -17.4812 H   0  0  0  0  0  0  0  0  0  0  0  0
  -17.7161    9.3117  -16.3315 H   0  0  0  0  0  0  0  0  0  0  0  0
  -19.2490   14.5926  -19.8388 C   0  0  0  0  0  0  0  0  0  0  0  0
  -18.1926   15.6020  -19.4525 C   0  0  0  0  0  0  0  0  0  0  0  0
  -18.7765   16.9617  -19.1798 C   0  0  0  0  0  0  0  0  0  0  0  0
  -19.7284   17.4198  -20.2551 C   0  0  0  0  0  0  0  0  0  0  0  0
  -20.4705   18.4787  -19.7313 O   0  0  0  0  0  0  0  0  0  0  0  0
  -20.6705   16.3619  -20.7188 C   0  0  0  0  0  0  0  0  0  0  0  0
  -20.6305   15.2172  -19.7085 C   0  0  0  0  0  0  0  0  0  0  0  0
  -21.3077   18.1605  -19.2794 H   0  0  0  0  0  0  0  0  0  0  0  0
  -20.1673   11.3235  -16.2408 C   0  0  0  0  0  0  0  0  0  0  0  0
  -19.6214   11.5718  -14.9872 C   0  0  0  0  0  0  0  0  0  0  0  0
  -20.2004   11.0789  -13.8638 C   0  0  0  0  0  0  0  0  0  0  0  0
  -21.3720   10.2964  -13.8865 C   0  0  0  0  0  0  0  0  0  0  0  0
  -21.8943   10.0674  -15.1749 C   0  0  0  0  0  0  0  0  0  0  0  0
  -21.3118   10.5634  -16.3032 C   0  0  0  0  0  0  0  0  0  0  0  0
  -21.8780    9.8554  -12.7957 O   0  0  0  0  0  0  0  0  0  0  0  0
  -22.3730    9.4138  -11.7112 C   0  0  0  0  0  0  0  0  0  0  0  0
  -22.1869   10.0894  -10.5037 C   0  0  0  0  0  0  0  0  0  0  0  0
  -22.7196    9.6086   -9.3557 C   0  0  0  0  0  0  0  0  0  0  0  0
  -23.4570    8.4468   -9.3384 C   0  0  0  0  0  0  0  0  0  0  0  0
  -23.6392    7.7821  -10.5302 C   0  0  0  0  0  0  0  0  0  0  0  0
  -23.1177    8.2382  -11.7004 C   0  0  0  0  0  0  0  0  0  0  0  0
  1  2  1  0  0  0
  2  3  2  0  0  0
  3  4  1  0  0  0
  4  5  2  0  0  0
  5  6  1  0  0  0
  6  7  1  0  0  0
  7  8  1  0  0  0
  8  9  2  0  0  0
  9 21  1  0  0  0
 21 22  2  0  0  0
 22 23  1  0  0  0
 23 24  2  0  0  0
 24 27  1  0  0  0
 27 28  1  0  0  0
 28 29  2  0  0  0
 29 30  1  0  0  0
 30 31  2  0  0  0
 31 32  1  0  0  0
 32 33  2  0  0  0
 24 25  1  0  0  0
 25 26  2  0  0  0
  9 10  1  0  0  0
  7 13  1  0  0  0
 13 14  1  0  0  0
 14 15  1  0  0  0
 15 16  1  0  0  0
 16 17  1  0  0  0
 16 18  1  0  0  0
 18 19  1  0  0  0
 10  2  1  0  0  0
 19 13  1  0  0  0
 10  6  2  0  0  0
 26 21  1  0  0  0
 33 28  1  0  0  0
  1 11  1  0  0  0
  1 12  1  0  0  0
 17 20  1  0  0  0
M  END
> <minimizedAffinity>
-6.52455

> <CNNscore>
0.5617238283

> <CNNaffinity>
6.5077219009

> <CNN_VS>
3.6555423737

> <CNNaffinity_variance>
0.3143224120

$$$$
[H]O[C@]1([H])C([H])([H])C([H])([H])[C@]([H])(n2c([H])c(-c3c([H])c([H])c(Oc4c([H])c([H])c([H])c([H])c4[H])c([H])c3[H])c3c(N([H])[H])nc([H])nc32)C([H])([H])C1([H])[H]


 33 37  0  0  0  0  0  0  0  0999 V2000
  -16.8231    9.9452  -20.6224 N   0  0  0  0  0  0  0  0  0  0  0  0
  -16.8180   11.2323  -21.2123 C   0  0  0  0  0  0  0  0  0  0  0  0
  -16.1731   11.4148  -22.3737 N   0  0  0  0  0  0  0  0  0  0  0  0
  -16.1336   12.6449  -22.9516 C   0  0  0  0  0  0  0  0  0  0  0  0
  -16.7302   13.6964  -22.3840 N   0  0  0  0  0  0  0  0  0  0  0  0
  -17.3939   13.5789  -21.2181 C   0  0  0  0  0  0  0  0  0  0  0  0
  -18.0590   14.4770  -20.4530 N   0  0  0  0  0  0  0  0  0  0  0  0
  -18.5152   13.8077  -19.3982 C   0  0  0  0  0  0  0  0  0  0  0  0
  -18.1406   12.4706  -19.4875 C   0  0  0  0  0  0  0  0  0  0  0  0
  -17.4340   12.3115  -20.6254 C   0  0  0  0  0  0  0  0  0  0  0  0
  -17.4091    9.1823  -21.0077 H   0  0  0  0  0  0  0  0  0  0  0  0
  -16.2341    9.7319  -19.7812 H   0  0  0  0  0  0  0  0  0  0  0  0
  -18.1992   15.8692  -20.7872 C   0  0  0  0  0  0  0  0  0  0  0  0
  -16.8664   16.5666  -20.9329 C   0  0  0  0  0  0  0  0  0  0  0  0
  -16.7602   17.7821  -20.0525 C   0  0  0  0  0  0  0  0  0  0  0  0
  -17.9627   18.6858  -20.1493 C   0  0  0  0  0  0  0  0  0  0  0  0
  -17.9272   19.5460  -19.0516 O   0  0  0  0  0  0  0  0  0  0  0  0
  -19.2652   17.9609  -20.1441 C   0  0  0  0  0  0  0  0  0  0  0  0
  -19.0075   16.5290  -19.6796 C   0  0  0  0  0  0  0  0  0  0  0  0
  -18.4148   19.1645  -18.2623 H   0  0  0  0  0  0  0  0  0  0  0  0
  -18.5359   11.4970  -18.4965 C   0  0  0  0  0  0  0  0  0  0  0  0
  -19.6389   11.7407  -17.6869 C   0  0  0  0  0  0  0  0  0  0  0  0
  -20.0507   10.8251  -16.7747 C   0  0  0  0  0  0  0  0  0  0  0  0
  -19.4039    9.5875  -16.5862 C   0  0  0  0  0  0  0  0  0  0  0  0
  -18.2914    9.3784  -17.4251 C   0  0  0  0  0  0  0  0  0  0  0  0
  -17.8784   10.2990  -18.3418 C   0  0  0  0  0  0  0  0  0  0  0  0
  -19.8341    8.7581  -15.7102 O   0  0  0  0  0  0  0  0  0  0  0  0
  -20.2640    7.9298  -14.8469 C   0  0  0  0  0  0  0  0  0  0  0  0
  -21.3005    7.0443  -15.1480 C   0  0  0  0  0  0  0  0  0  0  0  0
  -21.7490    6.1669  -14.2196 C   0  0  0  0  0  0  0  0  0  0  0  0
  -21.2038    6.1173  -12.9570 C   0  0  0  0  0  0  0  0  0  0  0  0
  -20.1818    6.9914  -12.6622 C   0  0  0  0  0  0  0  0  0  0  0  0
  -19.7084    7.8846  -13.5717 C   0  0  0  0  0  0  0  0  0  0  0  0
  1  2  1  0  0  0
  2  3  2  0  0  0
  3  4  1  0  0  0
  4  5  2  0  0  0
  5  6  1  0  0  0
  6  7  1  0  0  0
  7  8  1  0  0  0
  8  9  2  0  0  0
  9 21  1  0  0  0
 21 22  2  0  0  0
 22 23  1  0  0  0
 23 24  2  0  0  0
 24 27  1  0  0  0
 27 28  1  0  0  0
 28 29  2  0  0  0
 29 30  1  0  0  0
 30 31  2  0  0  0
 31 32  1  0  0  0
 32 33  2  0  0  0
 24 25  1  0  0  0
 25 26  2  0  0  0
  9 10  1  0  0  0
  7 13  1  0  0  0
 13 14  1  0  0  0
 14 15  1  0  0  0
 15 16  1  0  0  0
 16 17  1  0  0  0
 16 18  1  0  0  0
 18 19  1  0  0  0
 10  2  1  0  0  0
 19 13  1  0  0  0
 10  6  2  0  0  0
 26 21  1  0  0  0
 33 28  1  0  0  0
  1 11  1  0  0  0
  1 12  1  0  0  0
 17 20  1  0  0  0
M  END
> <minimizedAffinity>
-8.83046

> <CNNscore>
0.5566951036

> <CNNaffinity>
6.8883652687

> <CNN_VS>
3.8347191811

> <CNNaffinity_variance>
0.2597141862

$$$$
[H]c1c([H])c(Cl)c(N([H])c2nc3c([H])c([H])c4c(C([H])([H])[H])c(C([H])([H])[H])n([H])c(=O)c4c3n2C([H])([H])[H])c(Cl)c1[H]


 28 31  0  0  0  0  0  0  0  0999 V2000
  -18.8523    9.5141  -16.4794 C   0  0  0  0  0  0  0  0  0  0  0  0
  -18.4236   10.2213  -17.7378 C   0  0  0  0  0  0  0  0  0  0  0  0
  -17.4409    9.7210  -18.4607 N   0  0  0  0  0  0  0  0  0  0  0  0
  -17.0049   10.3189  -19.6241 C   0  0  0  0  0  0  0  0  0  0  0  0
  -16.0912    9.7556  -20.1760 O   0  0  0  0  0  0  0  0  0  0  0  0
  -17.6184   11.4580  -20.0285 C   0  0  0  0  0  0  0  0  0  0  0  0
  -17.1991   12.1218  -21.1910 C   0  0  0  0  0  0  0  0  0  0  0  0
  -16.2618   11.8568  -22.1303 N   0  0  0  0  0  0  0  0  0  0  0  0
  -15.4016   10.7227  -22.3029 C   0  0  0  0  0  0  0  0  0  0  0  0
  -16.3043   12.8544  -23.0266 C   0  0  0  0  0  0  0  0  0  0  0  0
  -17.2932   13.7411  -22.6299 N   0  0  0  0  0  0  0  0  0  0  0  0
  -17.8396   13.3044  -21.5217 C   0  0  0  0  0  0  0  0  0  0  0  0
  -18.8687   13.8211  -20.7455 C   0  0  0  0  0  0  0  0  0  0  0  0
  -19.2626   13.1634  -19.6357 C   0  0  0  0  0  0  0  0  0  0  0  0
  -18.6663   11.9869  -19.2466 C   0  0  0  0  0  0  0  0  0  0  0  0
  -19.0797   11.3673  -18.0880 C   0  0  0  0  0  0  0  0  0  0  0  0
  -20.1857   11.9472  -17.2891 C   0  0  0  0  0  0  0  0  0  0  0  0
  -16.9453    8.8512  -18.1905 H   0  0  0  0  0  0  0  0  0  0  0  0
  -15.5559   13.1642  -24.1829 N   0  0  0  0  0  0  0  0  0  0  0  0
  -14.5161   12.7420  -24.1748 H   0  0  0  0  0  0  0  0  0  0  0  0
  -15.7726   13.8677  -25.3485 C   0  0  0  0  0  0  0  0  0  0  0  0
  -14.8683   14.8763  -25.6958 C   0  0  0  0  0  0  0  0  0  0  0  0
  -13.5203   15.2241  -24.6060 Cl  0  0  0  0  0  0  0  0  0  0  0  0
  -14.9926   15.6033  -26.8525 C   0  0  0  0  0  0  0  0  0  0  0  0
  -16.0550   15.3166  -27.6938 C   0  0  0  0  0  0  0  0  0  0  0  0
  -16.9563   14.3161  -27.3541 C   0  0  0  0  0  0  0  0  0  0  0  0
  -16.8368   13.5984  -26.2160 C   0  0  0  0  0  0  0  0  0  0  0  0
  -17.9460   12.3228  -25.7364 Cl  0  0  0  0  0  0  0  0  0  0  0  0
  1  2  1  0  0  0
  2  3  1  0  0  0
  3  4  1  0  0  0
  4  5  2  0  0  0
  4  6  1  0  0  0
  6  7  2  0  0  0
  7  8  1  0  0  0
  8  9  1  0  0  0
  8 10  1  0  0  0
 10 19  1  0  0  0
 19 21  1  0  0  0
 21 22  2  0  0  0
 22 23  1  0  0  0
 22 24  1  0  0  0
 24 25  2  0  0  0
 25 26  1  0  0  0
 26 27  2  0  0  0
 27 28  1  0  0  0
 10 11  2  0  0  0
 11 12  1  0  0  0
 12 13  2  0  0  0
 13 14  1  0  0  0
 14 15  2  0  0  0
 15 16  1  0  0  0
 16 17  1  0  0  0
 16  2  2  0  0  0
 15  6  1  0  0  0
 12  7  1  0  0  0
 27 21  1  0  0  0
  3 18  1  0  0  0
 19 20  1  0  0  0
M  END
> <minimizedAffinity>
-10.62167

> <CNNscore>
0.9797583818

> <CNNaffinity>
7.6764373779

> <CNN_VS>
7.5210537910

> <CNNaffinity_variance>
0.1292091161

$$$$
[H]c1c([H])c(Cl)c(N([H])c2nc3c([H])c([H])c4c(C([H])([H])[H])c(C([H])([H])[H])n([H])c(=O)c4c3n2C([H])([H])[H])c(Cl)c1[H]


 28 31  0  0  0  0  0  0  0  0999 V2000
  -19.1340    9.8515  -16.0695 C   0  0  0  0  0  0  0  0  0  0  0  0
  -18.6935   10.4485  -17.3799 C   0  0  0  0  0  0  0  0  0  0  0  0
  -17.7158    9.8785  -18.0566 N   0  0  0  0  0  0  0  0  0  0  0  0
  -17.2695   10.3742  -19.2634 C   0  0  0  0  0  0  0  0  0  0  0  0
  -16.3620    9.7563  -19.7647 O   0  0  0  0  0  0  0  0  0  0  0  0
  -17.8674   11.4844  -19.7610 C   0  0  0  0  0  0  0  0  0  0  0  0
  -17.4371   12.0460  -20.9723 C   0  0  0  0  0  0  0  0  0  0  0  0
  -16.5013   11.6936  -21.8839 N   0  0  0  0  0  0  0  0  0  0  0  0
  -15.6554   10.5384  -21.9610 C   0  0  0  0  0  0  0  0  0  0  0  0
  -16.5290   12.6154  -22.8585 C   0  0  0  0  0  0  0  0  0  0  0  0
  -17.5072   13.5439  -22.5383 N   0  0  0  0  0  0  0  0  0  0  0  0
  -18.0616   13.2057  -21.4001 C   0  0  0  0  0  0  0  0  0  0  0  0
  -19.0856   13.7969  -20.6718 C   0  0  0  0  0  0  0  0  0  0  0  0
  -19.4903   13.2368  -19.5135 C   0  0  0  0  0  0  0  0  0  0  0  0
  -18.9101   12.0883  -19.0281 C   0  0  0  0  0  0  0  0  0  0  0  0
  -19.3340   11.5703  -17.8242 C   0  0  0  0  0  0  0  0  0  0  0  0
  -20.4341   12.2273  -17.0787 C   0  0  0  0  0  0  0  0  0  0  0  0
  -17.2320    9.0274  -17.7150 H   0  0  0  0  0  0  0  0  0  0  0  0
  -15.7742   12.8206  -24.0338 N   0  0  0  0  0  0  0  0  0  0  0  0
  -14.9713   12.0531  -24.1950 H   0  0  0  0  0  0  0  0  0  0  0  0
  -15.7638   13.7401  -25.0609 C   0  0  0  0  0  0  0  0  0  0  0  0
  -16.7191   13.6172  -26.0747 C   0  0  0  0  0  0  0  0  0  0  0  0
  -17.8619   12.2698  -26.0095 Cl  0  0  0  0  0  0  0  0  0  0  0  0
  -16.7984   14.5062  -27.1164 C   0  0  0  0  0  0  0  0  0  0  0  0
  -15.8946   15.5554  -27.1506 C   0  0  0  0  0  0  0  0  0  0  0  0
  -14.9437   15.6826  -26.1465 C   0  0  0  0  0  0  0  0  0  0  0  0
  -14.8629   14.8090  -25.1194 C   0  0  0  0  0  0  0  0  0  0  0  0
  -13.6818   14.9209  -23.8233 Cl  0  0  0  0  0  0  0  0  0  0  0  0
  1  2  1  0  0  0
  2  3  1  0  0  0
  3  4  1  0  0  0
  4  5  2  0  0  0
  4  6  1  0  0  0
  6  7  2  0  0  0
  7  8  1  0  0  0
  8  9  1  0  0  0
  8 10  1  0  0  0
 10 19  1  0  0  0
 19 21  1  0  0  0
 21 22  2  0  0  0
 22 23  1  0  0  0
 22 24  1  0  0  0
 24 25  2  0  0  0
 25 26  1  0  0  0
 26 27  2  0  0  0
 27 28  1  0  0  0
 10 11  2  0  0  0
 11 12  1  0  0  0
 12 13  2  0  0  0
 13 14  1  0  0  0
 14 15  2  0  0  0
 15 16  1  0  0  0
 16 17  1  0  0  0
 16  2  2  0  0  0
 15  6  1  0  0  0
 12  7  1  0  0  0
 27 21  1  0  0  0
  3 18  1  0  0  0
 19 20  1  0  0  0
M  END
> <minimizedAffinity>
-10.19288

> <CNNscore>
0.9416086674

> <CNNaffinity>
7.5735588074

> <CNN_VS>
7.1313285828

> <CNNaffinity_variance>
0.1076791063

$$$$
[H]c1c([H])c(Cl)c(N([H])c2nc3c([H])c([H])c4c(C([H])([H])[H])c(C([H])([H])[H])n([H])c(=O)c4c3n2C([H])([H])[H])c(Cl)c1[H]


 28 31  0  0  0  0  0  0  0  0999 V2000
  -18.3516    8.8260  -16.4114 C   0  0  0  0  0  0  0  0  0  0  0  0
  -18.4336    9.9219  -17.4408 C   0  0  0  0  0  0  0  0  0  0  0  0
  -17.6038    9.9131  -18.4655 N   0  0  0  0  0  0  0  0  0  0  0  0
  -17.6309   10.8853  -19.4429 C   0  0  0  0  0  0  0  0  0  0  0  0
  -16.8067   10.7554  -20.3150 O   0  0  0  0  0  0  0  0  0  0  0  0
  -18.5493   11.8766  -19.3358 C   0  0  0  0  0  0  0  0  0  0  0  0
  -18.6054   12.9050  -20.2882 C   0  0  0  0  0  0  0  0  0  0  0  0
  -17.9248   13.1575  -21.4301 N   0  0  0  0  0  0  0  0  0  0  0  0
  -16.9319   12.3865  -22.1200 C   0  0  0  0  0  0  0  0  0  0  0  0
  -18.4108   14.3003  -21.9380 C   0  0  0  0  0  0  0  0  0  0  0  0
  -19.4135   14.7491  -21.0927 N   0  0  0  0  0  0  0  0  0  0  0  0
  -19.5380   13.9102  -20.0937 C   0  0  0  0  0  0  0  0  0  0  0  0
  -20.4003   13.9078  -19.0052 C   0  0  0  0  0  0  0  0  0  0  0  0
  -20.3360   12.9055  -18.1049 C   0  0  0  0  0  0  0  0  0  0  0  0
  -19.4303   11.8787  -18.2345 C   0  0  0  0  0  0  0  0  0  0  0  0
  -19.3787   10.8938  -17.2729 C   0  0  0  0  0  0  0  0  0  0  0  0
  -20.3202   10.9230  -16.1281 C   0  0  0  0  0  0  0  0  0  0  0  0
  -16.8874    9.1735  -18.5884 H   0  0  0  0  0  0  0  0  0  0  0  0
  -18.0836   15.0894  -23.0621 N   0  0  0  0  0  0  0  0  0  0  0  0
  -18.9005   15.7933  -23.3732 H   0  0  0  0  0  0  0  0  0  0  0  0
  -16.9968   15.2249  -23.8993 C   0  0  0  0  0  0  0  0  0  0  0  0
  -16.9499   14.4479  -25.0610 C   0  0  0  0  0  0  0  0  0  0  0  0
  -18.2621   13.3056  -25.3755 Cl  0  0  0  0  0  0  0  0  0  0  0  0
  -15.9206   14.5426  -25.9631 C   0  0  0  0  0  0  0  0  0  0  0  0
  -14.9014   15.4429  -25.6997 C   0  0  0  0  0  0  0  0  0  0  0  0
  -14.9427   16.2173  -24.5476 C   0  0  0  0  0  0  0  0  0  0  0  0
  -15.9546   16.1265  -23.6574 C   0  0  0  0  0  0  0  0  0  0  0  0
  -16.0583   17.0801  -22.1852 Cl  0  0  0  0  0  0  0  0  0  0  0  0
  1  2  1  0  0  0
  2  3  1  0  0  0
  3  4  1  0  0  0
  4  5  2  0  0  0
  4  6  1  0  0  0
  6  7  2  0  0  0
  7  8  1  0  0  0
  8  9  1  0  0  0
  8 10  1  0  0  0
 10 19  1  0  0  0
 19 21  1  0  0  0
 21 22  2  0  0  0
 22 23  1  0  0  0
 22 24  1  0  0  0
 24 25  2  0  0  0
 25 26  1  0  0  0
 26 27  2  0  0  0
 27 28  1  0  0  0
 10 11  2  0  0  0
 11 12  1  0  0  0
 12 13  2  0  0  0
 13 14  1  0  0  0
 14 15  2  0  0  0
 15 16  1  0  0  0
 16 17  1  0  0  0
 16  2  2  0  0  0
 15  6  1  0  0  0
 12  7  1  0  0  0
 27 21  1  0  0  0
  3 18  1  0  0  0
 19 20  1  0  0  0
M  END
> <minimizedAffinity>
-9.09556

> <CNNscore>
0.9163604379

> <CNNaffinity>
7.4743242264

> <CNN_VS>
6.8491749763

> <CNNaffinity_variance>
0.1231855378

$$$$
[H]c1c([H])c(Cl)c(N([H])c2nc3c([H])c([H])c4c(C([H])([H])[H])c(C([H])([H])[H])n([H])c(=O)c4c3n2C([H])([H])[H])c(Cl)c1[H]


 28 31  0  0  0  0  0  0  0  0999 V2000
  -21.2081   13.3217  -16.6880 C   0  0  0  0  0  0  0  0  0  0  0  0
  -20.2552   13.1029  -17.8333 C   0  0  0  0  0  0  0  0  0  0  0  0
  -20.2363   13.9605  -18.8347 N   0  0  0  0  0  0  0  0  0  0  0  0
  -19.3850   13.8179  -19.9099 C   0  0  0  0  0  0  0  0  0  0  0  0
  -19.4847   14.6722  -20.7566 O   0  0  0  0  0  0  0  0  0  0  0  0
  -18.5419   12.7565  -19.9236 C   0  0  0  0  0  0  0  0  0  0  0  0
  -17.6719   12.5487  -21.0043 C   0  0  0  0  0  0  0  0  0  0  0  0
  -17.4090   13.2405  -22.1371 N   0  0  0  0  0  0  0  0  0  0  0  0
  -17.8936   14.5104  -22.5942 C   0  0  0  0  0  0  0  0  0  0  0  0
  -16.4700   12.5586  -22.8105 C   0  0  0  0  0  0  0  0  0  0  0  0
  -16.1481   11.4325  -22.0689 N   0  0  0  0  0  0  0  0  0  0  0  0
  -16.8695   11.4202  -20.9750 C   0  0  0  0  0  0  0  0  0  0  0  0
  -16.9067   10.5233  -19.9155 C   0  0  0  0  0  0  0  0  0  0  0  0
  -17.7444   10.7453  -18.8819 C   0  0  0  0  0  0  0  0  0  0  0  0
  -18.5720   11.8432  -18.8494 C   0  0  0  0  0  0  0  0  0  0  0  0
  -19.4345   12.0117  -17.7888 C   0  0  0  0  0  0  0  0  0  0  0  0
  -19.4406   11.0350  -16.6735 C   0  0  0  0  0  0  0  0  0  0  0  0
  -20.8617   14.7871  -18.8644 H   0  0  0  0  0  0  0  0  0  0  0  0
  -15.8331   12.7403  -24.0572 N   0  0  0  0  0  0  0  0  0  0  0  0
  -15.0743   11.9488  -24.2966 H   0  0  0  0  0  0  0  0  0  0  0  0
  -15.8998   13.6585  -25.0833 C   0  0  0  0  0  0  0  0  0  0  0  0
  -14.9665   14.6996  -25.1074 C   0  0  0  0  0  0  0  0  0  0  0  0
  -13.7777   14.8083  -23.8033 Cl  0  0  0  0  0  0  0  0  0  0  0  0
  -14.9431   15.6376  -26.1081 C   0  0  0  0  0  0  0  0  0  0  0  0
  -15.8822   15.5362  -27.1212 C   0  0  0  0  0  0  0  0  0  0  0  0
  -16.8116   14.5045  -27.1026 C   0  0  0  0  0  0  0  0  0  0  0  0
  -16.8374   13.5792  -26.1188 C   0  0  0  0  0  0  0  0  0  0  0  0
  -17.9891   12.2541  -26.0444 Cl  0  0  0  0  0  0  0  0  0  0  0  0
  1  2  1  0  0  0
  2  3  1  0  0  0
  3  4  1  0  0  0
  4  5  2  0  0  0
  4  6  1  0  0  0
  6  7  2  0  0  0
  7  8  1  0  0  0
  8  9  1  0  0  0
  8 10  1  0  0  0
 10 19  1  0  0  0
 19 21  1  0  0  0
 21 22  2  0  0  0
 22 23  1  0  0  0
 22 24  1  0  0  0
 24 25  2  0  0  0
 25 26  1  0  0  0
 26 27  2  0  0  0
 27 28  1  0  0  0
 10 11  2  0  0  0
 11 12  1  0  0  0
 12 13  2  0  0  0
 13 14  1  0  0  0
 14 15  2  0  0  0
 15 16  1  0  0  0
 16 17  1  0  0  0
 16  2  2  0  0  0
 15  6  1  0  0  0
 12  7  1  0  0  0
 27 21  1  0  0  0
  3 18  1  0  0  0
 19 20  1  0  0  0
M  END
> <minimizedAffinity>
-10.13221

> <CNNscore>
0.9129787683

> <CNNaffinity>
7.6171746254

> <CNN_VS>
6.9543185234

> <CNNaffinity_variance>
0.1089579687

$$$$
[H]c1c([H])c(Cl)c(N([H])c2nc3c([H])c([H])c4c(C([H])([H])[H])c(C([H])([H])[H])n([H])c(=O)c4c3n2C([H])([H])[H])c(Cl)c1[H]


 28 31  0  0  0  0  0  0  0  0999 V2000
  -21.6845   14.9359  -17.3040 C   0  0  0  0  0  0  0  0  0  0  0  0
  -20.7009   14.4917  -18.3540 C   0  0  0  0  0  0  0  0  0  0  0  0
  -20.5314   15.2256  -19.4363 N   0  0  0  0  0  0  0  0  0  0  0  0
  -19.6438   14.8753  -20.4316 C   0  0  0  0  0  0  0  0  0  0  0  0
  -19.6008   15.6356  -21.3679 O   0  0  0  0  0  0  0  0  0  0  0  0
  -18.9251   13.7363  -20.2779 C   0  0  0  0  0  0  0  0  0  0  0  0
  -18.0260   13.3189  -21.2706 C   0  0  0  0  0  0  0  0  0  0  0  0
  -17.6258   13.8487  -22.4496 N   0  0  0  0  0  0  0  0  0  0  0  0
  -17.9396   15.1036  -23.0685 C   0  0  0  0  0  0  0  0  0  0  0  0
  -16.7335   13.0010  -22.9838 C   0  0  0  0  0  0  0  0  0  0  0  0
  -16.5806   11.9370  -22.1085 N   0  0  0  0  0  0  0  0  0  0  0  0
  -17.3577   12.1226  -21.0698 C   0  0  0  0  0  0  0  0  0  0  0  0
  -17.5528   11.3583  -19.9269 C   0  0  0  0  0  0  0  0  0  0  0  0
  -18.4157   11.7810  -18.9804 C   0  0  0  0  0  0  0  0  0  0  0  0
  -19.1159   12.9566  -19.1183 C   0  0  0  0  0  0  0  0  0  0  0  0
  -20.0109   13.3321  -18.1409 C   0  0  0  0  0  0  0  0  0  0  0  0
  -20.1873   12.4918  -16.9323 C   0  0  0  0  0  0  0  0  0  0  0  0
  -21.0579   16.1049  -19.5941 H   0  0  0  0  0  0  0  0  0  0  0  0
  -16.0130   12.9746  -24.1975 N   0  0  0  0  0  0  0  0  0  0  0  0
  -15.3171   12.0990  -24.2910 H   0  0  0  0  0  0  0  0  0  0  0  0
  -15.9375   13.7625  -25.3263 C   0  0  0  0  0  0  0  0  0  0  0  0
  -16.8385   13.5217  -26.3682 C   0  0  0  0  0  0  0  0  0  0  0  0
  -17.9982   12.1975  -26.2027 Cl  0  0  0  0  0  0  0  0  0  0  0  0
  -16.8520   14.2780  -27.5127 C   0  0  0  0  0  0  0  0  0  0  0  0
  -15.9360   15.3110  -27.6244 C   0  0  0  0  0  0  0  0  0  0  0  0
  -15.0387   15.5549  -26.5928 C   0  0  0  0  0  0  0  0  0  0  0  0
  -15.0227   14.8121  -25.4647 C   0  0  0  0  0  0  0  0  0  0  0  0
  -13.9114   15.0752  -24.1292 Cl  0  0  0  0  0  0  0  0  0  0  0  0
  1  2  1  0  0  0
  2  3  1  0  0  0
  3  4  1  0  0  0
  4  5  2  0  0  0
  4  6  1  0  0  0
  6  7  2  0  0  0
  7  8  1  0  0  0
  8  9  1  0  0  0
  8 10  1  0  0  0
 10 19  1  0  0  0
 19 21  1  0  0  0
 21 22  2  0  0  0
 22 23  1  0  0  0
 22 24  1  0  0  0
 24 25  2  0  0  0
 25 26  1  0  0  0
 26 27  2  0  0  0
 27 28  1  0  0  0
 10 11  2  0  0  0
 11 12  1  0  0  0
 12 13  2  0  0  0
 13 14  1  0  0  0
 14 15  2  0  0  0
 15 16  1  0  0  0
 16 17  1  0  0  0
 16  2  2  0  0  0
 15  6  1  0  0  0
 12  7  1  0  0  0
 27 21  1  0  0  0
  3 18  1  0  0  0
 19 20  1  0  0  0
M  END
> <minimizedAffinity>
-9.72971

> <CNNscore>
0.7217116952

> <CNNaffinity>
7.4361433983

> <CNN_VS>
5.3667516708

> <CNNaffinity_variance>
0.2226465195

$$$$
[H]c1c([H])c(Cl)c(N([H])c2nc3c([H])c([H])c4c(C([H])([H])[H])c(C([H])([H])[H])n([H])c(=O)c4c3n2C([H])([H])[H])c(Cl)c1[H]


 28 31  0  0  0  0  0  0  0  0999 V2000
  -20.3594   10.3987  -15.5078 C   0  0  0  0  0  0  0  0  0  0  0  0
  -19.8566   11.0267  -16.7808 C   0  0  0  0  0  0  0  0  0  0  0  0
  -20.3602   12.1783  -17.1792 N   0  0  0  0  0  0  0  0  0  0  0  0
  -19.9397   12.8058  -18.3327 C   0  0  0  0  0  0  0  0  0  0  0  0
  -20.4957   13.8485  -18.5782 O   0  0  0  0  0  0  0  0  0  0  0  0
  -18.9727   12.2086  -19.0714 C   0  0  0  0  0  0  0  0  0  0  0  0
  -18.5246   12.7901  -20.2668 C   0  0  0  0  0  0  0  0  0  0  0  0
  -18.8208   13.9416  -20.9127 N   0  0  0  0  0  0  0  0  0  0  0  0
  -19.6680   15.0360  -20.5376 C   0  0  0  0  0  0  0  0  0  0  0  0
  -18.0741   13.9757  -22.0269 C   0  0  0  0  0  0  0  0  0  0  0  0
  -17.3010   12.8255  -22.0564 N   0  0  0  0  0  0  0  0  0  0  0  0
  -17.5667   12.1043  -20.9950 C   0  0  0  0  0  0  0  0  0  0  0  0
  -17.0516   10.8887  -20.5643 C   0  0  0  0  0  0  0  0  0  0  0  0
  -17.4897   10.3502  -19.4079 C   0  0  0  0  0  0  0  0  0  0  0  0
  -18.4427   10.9754  -18.6384 C   0  0  0  0  0  0  0  0  0  0  0  0
  -18.8836   10.3720  -17.4813 C   0  0  0  0  0  0  0  0  0  0  0  0
  -18.3050    9.0764  -17.0519 C   0  0  0  0  0  0  0  0  0  0  0  0
  -21.0993   12.6713  -16.6444 H   0  0  0  0  0  0  0  0  0  0  0  0
  -17.9723   14.8752  -23.1102 N   0  0  0  0  0  0  0  0  0  0  0  0
  -18.8473   15.5719  -23.2028 H   0  0  0  0  0  0  0  0  0  0  0  0
  -17.0573   15.1282  -24.1099 C   0  0  0  0  0  0  0  0  0  0  0  0
  -16.1311   16.1585  -23.9200 C   0  0  0  0  0  0  0  0  0  0  0  0
  -16.2060   17.1076  -22.4303 Cl  0  0  0  0  0  0  0  0  0  0  0  0
  -15.1678   16.4565  -24.8502 C   0  0  0  0  0  0  0  0  0  0  0  0
  -15.1246   15.7021  -26.0111 C   0  0  0  0  0  0  0  0  0  0  0  0
  -16.0419   14.6776  -26.2052 C   0  0  0  0  0  0  0  0  0  0  0  0
  -16.9916   14.3817  -25.2914 C   0  0  0  0  0  0  0  0  0  0  0  0
  -18.1764   13.0983  -25.4840 Cl  0  0  0  0  0  0  0  0  0  0  0  0
  1  2  1  0  0  0
  2  3  1  0  0  0
  3  4  1  0  0  0
  4  5  2  0  0  0
  4  6  1  0  0  0
  6  7  2  0  0  0
  7  8  1  0  0  0
  8  9  1  0  0  0
  8 10  1  0  0  0
 10 19  1  0  0  0
 19 21  1  0  0  0
 21 22  2  0  0  0
 22 23  1  0  0  0
 22 24  1  0  0  0
 24 25  2  0  0  0
 25 26  1  0  0  0
 26 27  2  0  0  0
 27 28  1  0  0  0
 10 11  2  0  0  0
 11 12  1  0  0  0
 12 13  2  0  0  0
 13 14  1  0  0  0
 14 15  2  0  0  0
 15 16  1  0  0  0
 16 17  1  0  0  0
 16  2  2  0  0  0
 15  6  1  0  0  0
 12  7  1  0  0  0
 27 21  1  0  0  0
  3 18  1  0  0  0
 19 20  1  0  0  0
M  END
> <minimizedAffinity>
-9.39638

> <CNNscore>
0.5855914354

> <CNNaffinity>
7.0807709694

> <CNN_VS>
4.1464385986

> <CNNaffinity_variance>
0.0553260371

$$$$
[H]c1c([H])c(Cl)c(N([H])c2nc3c([H])c([H])c4c(C([H])([H])[H])c(C([H])([H])[H])n([H])c(=O)c4c3n2C([H])([H])[H])c(Cl)c1[H]


 28 31  0  0  0  0  0  0  0  0999 V2000
  -20.2959   10.6600  -15.5630 C   0  0  0  0  0  0  0  0  0  0  0  0
  -19.7969   11.2366  -16.8614 C   0  0  0  0  0  0  0  0  0  0  0  0
  -20.2650   12.3965  -17.2788 N   0  0  0  0  0  0  0  0  0  0  0  0
  -19.8456   12.9788  -18.4562 C   0  0  0  0  0  0  0  0  0  0  0  0
  -20.3669   14.0357  -18.7168 O   0  0  0  0  0  0  0  0  0  0  0  0
  -18.9177   12.3269  -19.1988 C   0  0  0  0  0  0  0  0  0  0  0  0
  -18.4735   12.8612  -20.4175 C   0  0  0  0  0  0  0  0  0  0  0  0
  -18.7396   14.0069  -21.0864 N   0  0  0  0  0  0  0  0  0  0  0  0
  -19.5366   15.1419  -20.7222 C   0  0  0  0  0  0  0  0  0  0  0  0
  -18.0159   13.9849  -22.2160 C   0  0  0  0  0  0  0  0  0  0  0  0
  -17.2877   12.8055  -22.2319 N   0  0  0  0  0  0  0  0  0  0  0  0
  -17.5579   12.1214  -21.1473 C   0  0  0  0  0  0  0  0  0  0  0  0
  -17.0800   10.8980  -20.6963 C   0  0  0  0  0  0  0  0  0  0  0  0
  -17.5135   10.4053  -19.5179 C   0  0  0  0  0  0  0  0  0  0  0  0
  -18.4257   11.0853  -18.7454 C   0  0  0  0  0  0  0  0  0  0  0  0
  -18.8644   10.5280  -17.5647 C   0  0  0  0  0  0  0  0  0  0  0  0
  -18.3262    9.2222  -17.1142 C   0  0  0  0  0  0  0  0  0  0  0  0
  -20.9734   12.9305  -16.7419 H   0  0  0  0  0  0  0  0  0  0  0  0
  -17.9033   14.8528  -23.3237 N   0  0  0  0  0  0  0  0  0  0  0  0
  -18.8264   15.4612  -23.5168 H   0  0  0  0  0  0  0  0  0  0  0  0
  -16.9325   15.1562  -24.2544 C   0  0  0  0  0  0  0  0  0  0  0  0
  -16.8943   14.4186  -25.4418 C   0  0  0  0  0  0  0  0  0  0  0  0
  -18.0632   13.1122  -25.6711 Cl  0  0  0  0  0  0  0  0  0  0  0  0
  -15.9812   14.6751  -26.4329 C   0  0  0  0  0  0  0  0  0  0  0  0
  -15.0733   15.7024  -26.2353 C   0  0  0  0  0  0  0  0  0  0  0  0
  -15.1064   16.4384  -25.0581 C   0  0  0  0  0  0  0  0  0  0  0  0
  -16.0042   16.1885  -24.0802 C   0  0  0  0  0  0  0  0  0  0  0  0
  -16.0920   17.0863  -22.5723 Cl  0  0  0  0  0  0  0  0  0  0  0  0
  1  2  1  0  0  0
  2  3  1  0  0  0
  3  4  1  0  0  0
  4  5  2  0  0  0
  4  6  1  0  0  0
  6  7  2  0  0  0
  7  8  1  0  0  0
  8  9  1  0  0  0
  8 10  1  0  0  0
 10 19  1  0  0  0
 19 21  1  0  0  0
 21 22  2  0  0  0
 22 23  1  0  0  0
 22 24  1  0  0  0
 24 25  2  0  0  0
 25 26  1  0  0  0
 26 27  2  0  0  0
 27 28  1  0  0  0
 10 11  2  0  0  0
 11 12  1  0  0  0
 12 13  2  0  0  0
 13 14  1  0  0  0
 14 15  2  0  0  0
 15 16  1  0  0  0
 16 17  1  0  0  0
 16  2  2  0  0  0
 15  6  1  0  0  0
 12  7  1  0  0  0
 27 21  1  0  0  0
  3 18  1  0  0  0
 19 20  1  0  0  0
M  END
> <minimizedAffinity>
-9.45156

> <CNNscore>
0.5835158825

> <CNNaffinity>
7.1067147255

> <CNN_VS>
4.1468811035

> <CNNaffinity_variance>
0.0675042346

$$$$
[H]c1c([H])c(Cl)c(N([H])c2nc3c([H])c([H])c4c(C([H])([H])[H])c(C([H])([H])[H])n([H])c(=O)c4c3n2C([H])([H])[H])c(Cl)c1[H]


 28 31  0  0  0  0  0  0  0  0999 V2000
  -15.2403   16.0656  -28.0362 C   0  0  0  0  0  0  0  0  0  0  0  0
  -15.7297   15.5773  -26.6985 C   0  0  0  0  0  0  0  0  0  0  0  0
  -15.4590   16.2765  -25.6137 N   0  0  0  0  0  0  0  0  0  0  0  0
  -15.8817   15.8848  -24.3611 C   0  0  0  0  0  0  0  0  0  0  0  0
  -15.5525   16.6164  -23.4595 O   0  0  0  0  0  0  0  0  0  0  0  0
  -16.6020   14.7413  -24.2561 C   0  0  0  0  0  0  0  0  0  0  0  0
  -17.0364   14.2826  -23.0035 C   0  0  0  0  0  0  0  0  0  0  0  0
  -16.9394   14.7717  -21.7456 N   0  0  0  0  0  0  0  0  0  0  0  0
  -16.4078   16.0118  -21.2601 C   0  0  0  0  0  0  0  0  0  0  0  0
  -17.5481   13.8966  -20.9309 C   0  0  0  0  0  0  0  0  0  0  0  0
  -18.0331   12.8570  -21.7091 N   0  0  0  0  0  0  0  0  0  0  0  0
  -17.7289   13.0839  -22.9634 C   0  0  0  0  0  0  0  0  0  0  0  0
  -17.9999   12.3565  -24.1149 C   0  0  0  0  0  0  0  0  0  0  0  0
  -17.5806   12.8187  -25.3106 C   0  0  0  0  0  0  0  0  0  0  0  0
  -16.8836   13.9990  -25.4218 C   0  0  0  0  0  0  0  0  0  0  0  0
  -16.4470   14.4153  -26.6600 C   0  0  0  0  0  0  0  0  0  0  0  0
  -16.7611   13.6137  -27.8669 C   0  0  0  0  0  0  0  0  0  0  0  0
  -14.9136   17.1577  -25.6477 H   0  0  0  0  0  0  0  0  0  0  0  0
  -17.7314   13.8245  -19.5329 N   0  0  0  0  0  0  0  0  0  0  0  0
  -17.1133   14.5635  -18.9574 H   0  0  0  0  0  0  0  0  0  0  0  0
  -18.4891   13.0646  -18.6674 C   0  0  0  0  0  0  0  0  0  0  0  0
  -19.6227   13.6448  -18.0895 C   0  0  0  0  0  0  0  0  0  0  0  0
  -20.0026   15.3301  -18.4650 Cl  0  0  0  0  0  0  0  0  0  0  0  0
  -20.4481   12.9502  -17.2420 C   0  0  0  0  0  0  0  0  0  0  0  0
  -20.1344   11.6310  -16.9595 C   0  0  0  0  0  0  0  0  0  0  0  0
  -19.0099   11.0495  -17.5305 C   0  0  0  0  0  0  0  0  0  0  0  0
  -18.1950   11.7305  -18.3653 C   0  0  0  0  0  0  0  0  0  0  0  0
  -16.7609   11.0464  -19.1155 Cl  0  0  0  0  0  0  0  0  0  0  0  0
  1  2  1  0  0  0
  2  3  1  0  0  0
  3  4  1  0  0  0
  4  5  2  0  0  0
  4  6  1  0  0  0
  6  7  2  0  0  0
  7  8  1  0  0  0
  8  9  1  0  0  0
  8 10  1  0  0  0
 10 19  1  0  0  0
 19 21  1  0  0  0
 21 22  2  0  0  0
 22 23  1  0  0  0
 22 24  1  0  0  0
 24 25  2  0  0  0
 25 26  1  0  0  0
 26 27  2  0  0  0
 27 28  1  0  0  0
 10 11  2  0  0  0
 11 12  1  0  0  0
 12 13  2  0  0  0
 13 14  1  0  0  0
 14 15  2  0  0  0
 15 16  1  0  0  0
 16 17  1  0  0  0
 16  2  2  0  0  0
 15  6  1  0  0  0
 12  7  1  0  0  0
 27 21  1  0  0  0
  3 18  1  0  0  0
 19 20  1  0  0  0
M  END
> <minimizedAffinity>
-7.81404

> <CNNscore>
0.5455054045

> <CNNaffinity>
7.1497850418

> <CNN_VS>
3.9002463818

> <CNNaffinity_variance>
0.2116993964

$$$$
[H]c1c([H])c(Cl)c(N([H])c2nc3c([H])c([H])c4c(C([H])([H])[H])c(C([H])([H])[H])n([H])c(=O)c4c3n2C([H])([H])[H])c(Cl)c1[H]


 28 31  0  0  0  0  0  0  0  0999 V2000
  -20.1109    7.7395  -14.9985 C   0  0  0  0  0  0  0  0  0  0  0  0
  -19.7411    8.8367  -15.9612 C   0  0  0  0  0  0  0  0  0  0  0  0
  -18.8104    8.6170  -16.8692 N   0  0  0  0  0  0  0  0  0  0  0  0
  -18.4299    9.5789  -17.7808 C   0  0  0  0  0  0  0  0  0  0  0  0
  -17.5597    9.2412  -18.5458 O   0  0  0  0  0  0  0  0  0  0  0  0
  -19.0439   10.7865  -17.7325 C   0  0  0  0  0  0  0  0  0  0  0  0
  -18.6789   11.8100  -18.6197 C   0  0  0  0  0  0  0  0  0  0  0  0
  -17.8014   11.8856  -19.6470 N   0  0  0  0  0  0  0  0  0  0  0  0
  -16.9737   10.8813  -20.2491 C   0  0  0  0  0  0  0  0  0  0  0  0
  -17.8759   13.1302  -20.1426 C   0  0  0  0  0  0  0  0  0  0  0  0
  -18.8240   13.8248  -19.4076 N   0  0  0  0  0  0  0  0  0  0  0  0
  -19.3149   13.0330  -18.4860 C   0  0  0  0  0  0  0  0  0  0  0  0
  -20.2884   13.2497  -17.5197 C   0  0  0  0  0  0  0  0  0  0  0  0
  -20.6310   12.2501  -16.6814 C   0  0  0  0  0  0  0  0  0  0  0  0
  -20.0358   11.0126  -16.7557 C   0  0  0  0  0  0  0  0  0  0  0  0
  -20.3944   10.0320  -15.8574 C   0  0  0  0  0  0  0  0  0  0  0  0
  -21.4423   10.3001  -14.8436 C   0  0  0  0  0  0  0  0  0  0  0  0
  -18.3167    7.7082  -16.9438 H   0  0  0  0  0  0  0  0  0  0  0  0
  -17.1886   13.8198  -21.1649 N   0  0  0  0  0  0  0  0  0  0  0  0
  -16.3324   14.4428  -20.7931 H   0  0  0  0  0  0  0  0  0  0  0  0
  -17.2966   13.9320  -22.5347 C   0  0  0  0  0  0  0  0  0  0  0  0
  -18.1423   14.9151  -23.0579 C   0  0  0  0  0  0  0  0  0  0  0  0
  -19.0580   15.9340  -21.9403 Cl  0  0  0  0  0  0  0  0  0  0  0  0
  -18.2844   15.1146  -24.4078 C   0  0  0  0  0  0  0  0  0  0  0  0
  -17.5591   14.3067  -25.2679 C   0  0  0  0  0  0  0  0  0  0  0  0
  -16.7176   13.3286  -24.7540 C   0  0  0  0  0  0  0  0  0  0  0  0
  -16.5753   13.1296  -23.4255 C   0  0  0  0  0  0  0  0  0  0  0  0
  -15.5265   11.9088  -22.7204 Cl  0  0  0  0  0  0  0  0  0  0  0  0
  1  2  1  0  0  0
  2  3  1  0  0  0
  3  4  1  0  0  0
  4  5  2  0  0  0
  4  6  1  0  0  0
  6  7  2  0  0  0
  7  8  1  0  0  0
  8  9  1  0  0  0
  8 10  1  0  0  0
 10 19  1  0  0  0
 19 21  1  0  0  0
 21 22  2  0  0  0
 22 23  1  0  0  0
 22 24  1  0  0  0
 24 25  2  0  0  0
 25 26  1  0  0  0
 26 27  2  0  0  0
 27 28  1  0  0  0
 10 11  2  0  0  0
 11 12  1  0  0  0
 12 13  2  0  0  0
 13 14  1  0  0  0
 14 15  2  0  0  0
 15 16  1  0  0  0
 16 17  1  0  0  0
 16  2  2  0  0  0
 15  6  1  0  0  0
 12  7  1  0  0  0
 27 21  1  0  0  0
  3 18  1  0  0  0
 19 20  1  0  0  0
M  END
> <minimizedAffinity>
-8.96516

> <CNNscore>
0.5150434375

> <CNNaffinity>
6.9124708176

> <CNN_VS>
3.5602226257

> <CNNaffinity_variance>
0.2698141932

$$$$
[H]C([H])=C([H])C(=O)N([H])[C@]1([H])C([H])([H])C([H])([H])[C@@]([H])(n2c([H])c(-c3c([H])c([H])c(Oc4c([H])c([H])c([H])c([H])c4[H])c([H])c3[H])c3c(N([H])[H])nc([H])nc32)C([H])([H])C1([H])[H]


 37 41  0  0  0  0  0  0  0  0999 V2000
  -17.0982    9.9264  -18.6586 N   0  0  0  0  0  0  0  0  0  0  0  0
  -16.6745   10.5324  -19.8741 C   0  0  0  0  0  0  0  0  0  0  0  0
  -15.8209    9.8941  -20.7043 N   0  0  0  0  0  0  0  0  0  0  0  0
  -15.4009   10.4756  -21.8387 C   0  0  0  0  0  0  0  0  0  0  0  0
  -15.8147   11.7067  -22.1829 N   0  0  0  0  0  0  0  0  0  0  0  0
  -16.6640   12.4011  -21.4055 C   0  0  0  0  0  0  0  0  0  0  0  0
  -17.2090   13.6410  -21.5284 N   0  0  0  0  0  0  0  0  0  0  0  0
  -17.9786   13.8331  -20.4594 C   0  0  0  0  0  0  0  0  0  0  0  0
  -17.9438   12.7218  -19.6304 C   0  0  0  0  0  0  0  0  0  0  0  0
  -17.1130   11.8054  -20.2159 C   0  0  0  0  0  0  0  0  0  0  0  0
  -16.8006   10.2331  -17.7080 H   0  0  0  0  0  0  0  0  0  0  0  0
  -17.7531    9.1169  -18.7109 H   0  0  0  0  0  0  0  0  0  0  0  0
  -18.6929   12.5387  -18.3879 C   0  0  0  0  0  0  0  0  0  0  0  0
  -19.4578   11.4265  -18.1054 C   0  0  0  0  0  0  0  0  0  0  0  0
  -20.1459   11.2713  -16.9221 C   0  0  0  0  0  0  0  0  0  0  0  0
  -20.1048   12.2380  -15.9419 C   0  0  0  0  0  0  0  0  0  0  0  0
  -19.3365   13.3558  -16.2263 C   0  0  0  0  0  0  0  0  0  0  0  0
  -18.6480   13.5213  -17.3985 C   0  0  0  0  0  0  0  0  0  0  0  0
  -20.7886   12.1091  -14.7378 O   0  0  0  0  0  0  0  0  0  0  0  0
  -20.5737   11.0494  -13.8687 C   0  0  0  0  0  0  0  0  0  0  0  0
  -19.3990   10.8554  -13.2035 C   0  0  0  0  0  0  0  0  0  0  0  0
  -19.2674    9.7856  -12.3643 C   0  0  0  0  0  0  0  0  0  0  0  0
  -20.2906    8.8733  -12.1547 C   0  0  0  0  0  0  0  0  0  0  0  0
  -21.4693    9.0912  -12.8392 C   0  0  0  0  0  0  0  0  0  0  0  0
  -21.6138   10.1666  -13.6882 C   0  0  0  0  0  0  0  0  0  0  0  0
  -16.9546   14.5438  -22.6514 C   0  0  0  0  0  0  0  0  0  0  0  0
  -18.2186   14.9490  -23.3520 C   0  0  0  0  0  0  0  0  0  0  0  0
  -18.2255   16.3490  -23.8595 C   0  0  0  0  0  0  0  0  0  0  0  0
  -16.9088   16.8567  -24.3452 C   0  0  0  0  0  0  0  0  0  0  0  0
  -15.7630   16.5269  -23.3983 C   0  0  0  0  0  0  0  0  0  0  0  0
  -16.2887   15.8287  -22.1512 C   0  0  0  0  0  0  0  0  0  0  0  0
  -16.6016   16.4872  -25.6915 N   0  0  0  0  0  0  0  0  0  0  0  0
  -15.4915   15.7207  -26.0893 C   0  0  0  0  0  0  0  0  0  0  0  0
  -14.6936   15.3186  -25.2064 O   0  0  0  0  0  0  0  0  0  0  0  0
  -17.2579   16.8147  -26.4446 H   0  0  0  0  0  0  0  0  0  0  0  0
  -15.2260   15.3733  -27.4725 C   0  0  0  0  0  0  0  0  0  0  0  0
  -16.0818   15.6845  -28.4258 C   0  0  0  0  0  0  0  0  0  0  0  0
  1  2  1  0  0  0
  2  3  2  0  0  0
  3  4  1  0  0  0
  4  5  2  0  0  0
  5  6  1  0  0  0
  6  7  1  0  0  0
  7  8  1  0  0  0
  8  9  2  0  0  0
  9 13  1  0  0  0
 13 14  2  0  0  0
 14 15  1  0  0  0
 15 16  2  0  0  0
 16 19  1  0  0  0
 19 20  1  0  0  0
 20 21  2  0  0  0
 21 22  1  0  0  0
 22 23  2  0  0  0
 23 24  1  0  0  0
 24 25  2  0  0  0
 16 17  1  0  0  0
 17 18  2  0  0  0
  9 10  1  0  0  0
  7 26  1  0  0  0
 26 27  1  0  0  0
 27 28  1  0  0  0
 28 29  1  0  0  0
 29 30  1  0  0  0
 30 31  1  0  0  0
 29 32  1  0  0  0
 32 33  1  0  0  0
 33 34  2  0  0  0
 33 36  1  0  0  0
 36 37  2  0  0  0
 10  2  1  0  0  0
 31 26  1  0  0  0
 10  6  2  0  0  0
 18 13  1  0  0  0
 25 20  1  0  0  0
  1 11  1  0  0  0
  1 12  1  0  0  0
 32 35  1  0  0  0
M  END
> <minimizedAffinity>
-9.74725

> <CNNscore>
0.8632197380

> <CNNaffinity>
7.4847717285

> <CNN_VS>
6.4610028267

> <CNNaffinity_variance>
0.0405710936

$$$$
[H]C([H])=C([H])C(=O)N([H])[C@]1([H])C([H])([H])C([H])([H])[C@@]([H])(n2c([H])c(-c3c([H])c([H])c(Oc4c([H])c([H])c([H])c([H])c4[H])c([H])c3[H])c3c(N([H])[H])nc([H])nc32)C([H])([H])C1([H])[H]


 37 41  0  0  0  0  0  0  0  0999 V2000
  -17.1515    9.8250  -18.4943 N   0  0  0  0  0  0  0  0  0  0  0  0
  -16.7569   10.4607  -19.7044 C   0  0  0  0  0  0  0  0  0  0  0  0
  -15.9376    9.8361  -20.5783 N   0  0  0  0  0  0  0  0  0  0  0  0
  -15.5445   10.4451  -21.7081 C   0  0  0  0  0  0  0  0  0  0  0  0
  -15.9522   11.6907  -22.0040 N   0  0  0  0  0  0  0  0  0  0  0  0
  -16.7682   12.3728  -21.1814 C   0  0  0  0  0  0  0  0  0  0  0  0
  -17.3001   13.6223  -21.2519 N   0  0  0  0  0  0  0  0  0  0  0  0
  -18.0343   13.7929  -20.1546 C   0  0  0  0  0  0  0  0  0  0  0  0
  -17.9890   12.6577  -19.3592 C   0  0  0  0  0  0  0  0  0  0  0  0
  -17.1886   11.7484  -19.9960 C   0  0  0  0  0  0  0  0  0  0  0  0
  -16.8211   10.1003  -17.5449 H   0  0  0  0  0  0  0  0  0  0  0  0
  -17.8184    9.0255  -18.5495 H   0  0  0  0  0  0  0  0  0  0  0  0
  -18.7024   12.4480  -18.1001 C   0  0  0  0  0  0  0  0  0  0  0  0
  -18.7396   13.3672  -17.0726 C   0  0  0  0  0  0  0  0  0  0  0  0
  -19.4285   13.1519  -15.8992 C   0  0  0  0  0  0  0  0  0  0  0  0
  -20.1286   11.9847  -15.6880 C   0  0  0  0  0  0  0  0  0  0  0  0
  -20.0906   11.0610  -16.7204 C   0  0  0  0  0  0  0  0  0  0  0  0
  -19.4096   11.2638  -17.8912 C   0  0  0  0  0  0  0  0  0  0  0  0
  -20.8331   11.7393  -14.5143 O   0  0  0  0  0  0  0  0  0  0  0  0
  -22.1901   12.0006  -14.3914 C   0  0  0  0  0  0  0  0  0  0  0  0
  -23.1472   11.0322  -14.4694 C   0  0  0  0  0  0  0  0  0  0  0  0
  -24.4637   11.3724  -14.3379 C   0  0  0  0  0  0  0  0  0  0  0  0
  -24.8776   12.6788  -14.1253 C   0  0  0  0  0  0  0  0  0  0  0  0
  -23.8903   13.6405  -14.0502 C   0  0  0  0  0  0  0  0  0  0  0  0
  -22.5593   13.3095  -14.1813 C   0  0  0  0  0  0  0  0  0  0  0  0
  -17.0679   14.5541  -22.3559 C   0  0  0  0  0  0  0  0  0  0  0  0
  -18.3049   14.7845  -23.1743 C   0  0  0  0  0  0  0  0  0  0  0  0
  -18.4553   16.1716  -23.6947 C   0  0  0  0  0  0  0  0  0  0  0  0
  -17.1808   16.8555  -24.0620 C   0  0  0  0  0  0  0  0  0  0  0  0
  -16.0935   16.6832  -23.0102 C   0  0  0  0  0  0  0  0  0  0  0  0
  -16.6327   15.9167  -21.8097 C   0  0  0  0  0  0  0  0  0  0  0  0
  -16.7025   16.5347  -25.3704 N   0  0  0  0  0  0  0  0  0  0  0  0
  -15.5078   15.8481  -25.6517 C   0  0  0  0  0  0  0  0  0  0  0  0
  -14.7885   15.4782  -24.6905 O   0  0  0  0  0  0  0  0  0  0  0  0
  -17.2908   16.8362  -26.1878 H   0  0  0  0  0  0  0  0  0  0  0  0
  -15.0681   15.5474  -27.0011 C   0  0  0  0  0  0  0  0  0  0  0  0
  -15.9375   15.4110  -27.9826 C   0  0  0  0  0  0  0  0  0  0  0  0
  1  2  1  0  0  0
  2  3  2  0  0  0
  3  4  1  0  0  0
  4  5  2  0  0  0
  5  6  1  0  0  0
  6  7  1  0  0  0
  7  8  1  0  0  0
  8  9  2  0  0  0
  9 13  1  0  0  0
 13 14  2  0  0  0
 14 15  1  0  0  0
 15 16  2  0  0  0
 16 19  1  0  0  0
 19 20  1  0  0  0
 20 21  2  0  0  0
 21 22  1  0  0  0
 22 23  2  0  0  0
 23 24  1  0  0  0
 24 25  2  0  0  0
 16 17  1  0  0  0
 17 18  2  0  0  0
  9 10  1  0  0  0
  7 26  1  0  0  0
 26 27  1  0  0  0
 27 28  1  0  0  0
 28 29  1  0  0  0
 29 30  1  0  0  0
 30 31  1  0  0  0
 29 32  1  0  0  0
 32 33  1  0  0  0
 33 34  2  0  0  0
 33 36  1  0  0  0
 36 37  2  0  0  0
 10  2  1  0  0  0
 31 26  1  0  0  0
 10  6  2  0  0  0
 18 13  1  0  0  0
 25 20  1  0  0  0
  1 11  1  0  0  0
  1 12  1  0  0  0
 32 35  1  0  0  0
M  END
> <minimizedAffinity>
-9.18053

> <CNNscore>
0.7173101306

> <CNNaffinity>
7.3433976173

> <CNN_VS>
5.2674937248

> <CNNaffinity_variance>
0.0733316317

$$$$
[H]C([H])=C([H])C(=O)N([H])[C@]1([H])C([H])([H])C([H])([H])[C@@]([H])(n2c([H])c(-c3c([H])c([H])c(Oc4c([H])c([H])c([H])c([H])c4[H])c([H])c3[H])c3c(N([H])[H])nc([H])nc32)C([H])([H])C1([H])[H]


 37 41  0  0  0  0  0  0  0  0999 V2000
  -16.5929    9.7818  -19.4916 N   0  0  0  0  0  0  0  0  0  0  0  0
  -16.8124   10.8879  -20.3590 C   0  0  0  0  0  0  0  0  0  0  0  0
  -16.0513   11.0640  -21.4613 N   0  0  0  0  0  0  0  0  0  0  0  0
  -16.2411   12.1211  -22.2664 C   0  0  0  0  0  0  0  0  0  0  0  0
  -17.1908   13.0341  -22.0020 N   0  0  0  0  0  0  0  0  0  0  0  0
  -17.9856   12.9233  -20.9233 C   0  0  0  0  0  0  0  0  0  0  0  0
  -18.9898   13.7052  -20.4443 N   0  0  0  0  0  0  0  0  0  0  0  0
  -19.4318   13.1276  -19.3293 C   0  0  0  0  0  0  0  0  0  0  0  0
  -18.7216   11.9647  -19.0709 C   0  0  0  0  0  0  0  0  0  0  0  0
  -17.7996   11.8221  -20.0721 C   0  0  0  0  0  0  0  0  0  0  0  0
  -16.1842    9.8504  -18.5352 H   0  0  0  0  0  0  0  0  0  0  0  0
  -16.8559    8.8301  -19.8263 H   0  0  0  0  0  0  0  0  0  0  0  0
  -18.9466   11.0349  -17.9649 C   0  0  0  0  0  0  0  0  0  0  0  0
  -18.4692    9.7414  -17.9358 C   0  0  0  0  0  0  0  0  0  0  0  0
  -18.6844    8.8870  -16.8768 C   0  0  0  0  0  0  0  0  0  0  0  0
  -19.4016    9.2887  -15.7717 C   0  0  0  0  0  0  0  0  0  0  0  0
  -19.8816   10.5885  -15.8014 C   0  0  0  0  0  0  0  0  0  0  0  0
  -19.6740   11.4469  -16.8481 C   0  0  0  0  0  0  0  0  0  0  0  0
  -19.6347    8.4489  -14.6879 O   0  0  0  0  0  0  0  0  0  0  0  0
  -20.3472    7.2642  -14.8032 C   0  0  0  0  0  0  0  0  0  0  0  0
  -19.8581    6.0563  -14.4008 C   0  0  0  0  0  0  0  0  0  0  0  0
  -20.6239    4.9348  -14.5491 C   0  0  0  0  0  0  0  0  0  0  0  0
  -21.8965    4.9695  -15.0991 C   0  0  0  0  0  0  0  0  0  0  0  0
  -22.3689    6.2033  -15.4986 C   0  0  0  0  0  0  0  0  0  0  0  0
  -21.6059    7.3413  -15.3541 C   0  0  0  0  0  0  0  0  0  0  0  0
  -19.4488   14.9385  -21.0841 C   0  0  0  0  0  0  0  0  0  0  0  0
  -20.5957   15.5674  -20.3480 C   0  0  0  0  0  0  0  0  0  0  0  0
  -20.5898   17.0565  -20.3456 C   0  0  0  0  0  0  0  0  0  0  0  0
  -20.0632   17.6932  -21.5883 C   0  0  0  0  0  0  0  0  0  0  0  0
  -18.7733   17.0509  -22.0801 C   0  0  0  0  0  0  0  0  0  0  0  0
  -18.3161   15.9684  -21.1114 C   0  0  0  0  0  0  0  0  0  0  0  0
  -21.0267   17.8090  -22.6380 N   0  0  0  0  0  0  0  0  0  0  0  0
  -21.4316   19.0147  -23.2381 C   0  0  0  0  0  0  0  0  0  0  0  0
  -20.9178   20.0874  -22.8341 O   0  0  0  0  0  0  0  0  0  0  0  0
  -21.4680   16.9219  -22.9894 H   0  0  0  0  0  0  0  0  0  0  0  0
  -22.4156   19.0762  -24.3024 C   0  0  0  0  0  0  0  0  0  0  0  0
  -22.9330   17.9757  -24.8115 C   0  0  0  0  0  0  0  0  0  0  0  0
  1  2  1  0  0  0
  2  3  2  0  0  0
  3  4  1  0  0  0
  4  5  2  0  0  0
  5  6  1  0  0  0
  6  7  1  0  0  0
  7  8  1  0  0  0
  8  9  2  0  0  0
  9 13  1  0  0  0
 13 14  2  0  0  0
 14 15  1  0  0  0
 15 16  2  0  0  0
 16 19  1  0  0  0
 19 20  1  0  0  0
 20 21  2  0  0  0
 21 22  1  0  0  0
 22 23  2  0  0  0
 23 24  1  0  0  0
 24 25  2  0  0  0
 16 17  1  0  0  0
 17 18  2  0  0  0
  9 10  1  0  0  0
  7 26  1  0  0  0
 26 27  1  0  0  0
 27 28  1  0  0  0
 28 29  1  0  0  0
 29 30  1  0  0  0
 30 31  1  0  0  0
 29 32  1  0  0  0
 32 33  1  0  0  0
 33 34  2  0  0  0
 33 36  1  0  0  0
 36 37  2  0  0  0
 10  2  1  0  0  0
 31 26  1  0  0  0
 10  6  2  0  0  0
 18 13  1  0  0  0
 25 20  1  0  0  0
  1 11  1  0  0  0
  1 12  1  0  0  0
 32 35  1  0  0  0
M  END
> <minimizedAffinity>
-8.80564

> <CNNscore>
0.6209053397

> <CNNaffinity>
7.2091512680

> <CNN_VS>
4.4762005806

> <CNNaffinity_variance>
0.3069030046

$$$$
[H]C([H])=C([H])C(=O)N([H])[C@]1([H])C([H])([H])C([H])([H])[C@@]([H])(n2c([H])c(-c3c([H])c([H])c(Oc4c([H])c([H])c([H])c([H])c4[H])c([H])c3[H])c3c(N([H])[H])nc([H])nc32)C([H])([H])C1([H])[H]


 37 41  0  0  0  0  0  0  0  0999 V2000
  -17.8786   10.5795  -18.5503 N   0  0  0  0  0  0  0  0  0  0  0  0
  -17.1968   10.8869  -19.7606 C   0  0  0  0  0  0  0  0  0  0  0  0
  -16.3991    9.9735  -20.3562 N   0  0  0  0  0  0  0  0  0  0  0  0
  -15.7357   10.2714  -21.4843 C   0  0  0  0  0  0  0  0  0  0  0  0
  -15.8436   11.4833  -22.0545 N   0  0  0  0  0  0  0  0  0  0  0  0
  -16.6193   12.4414  -21.5178 C   0  0  0  0  0  0  0  0  0  0  0  0
  -16.8793   13.7226  -21.8922 N   0  0  0  0  0  0  0  0  0  0  0  0
  -17.7158   14.2278  -20.9882 C   0  0  0  0  0  0  0  0  0  0  0  0
  -18.0095   13.2822  -20.0171 C   0  0  0  0  0  0  0  0  0  0  0  0
  -17.3204   12.1442  -20.3379 C   0  0  0  0  0  0  0  0  0  0  0  0
  -17.6406   10.9794  -17.6177 H   0  0  0  0  0  0  0  0  0  0  0  0
  -18.6746    9.9072  -18.5874 H   0  0  0  0  0  0  0  0  0  0  0  0
  -18.9238   13.4490  -18.8881 C   0  0  0  0  0  0  0  0  0  0  0  0
  -18.5218   13.4865  -17.5694 C   0  0  0  0  0  0  0  0  0  0  0  0
  -19.4011   13.6563  -16.5226 C   0  0  0  0  0  0  0  0  0  0  0  0
  -20.7530   13.7995  -16.7438 C   0  0  0  0  0  0  0  0  0  0  0  0
  -21.1567   13.7613  -18.0690 C   0  0  0  0  0  0  0  0  0  0  0  0
  -20.2922   13.5933  -19.1178 C   0  0  0  0  0  0  0  0  0  0  0  0
  -21.6643   13.9725  -15.7076 O   0  0  0  0  0  0  0  0  0  0  0  0
  -22.2731   15.1914  -15.4465 C   0  0  0  0  0  0  0  0  0  0  0  0
  -21.5961   16.2798  -14.9807 C   0  0  0  0  0  0  0  0  0  0  0  0
  -22.2700   17.4452  -14.7485 C   0  0  0  0  0  0  0  0  0  0  0  0
  -23.6332   17.5736  -14.9685 C   0  0  0  0  0  0  0  0  0  0  0  0
  -24.2958   16.4583  -15.4398 C   0  0  0  0  0  0  0  0  0  0  0  0
  -23.6269   15.2776  -15.6778 C   0  0  0  0  0  0  0  0  0  0  0  0
  -16.3122   14.3641  -23.0787 C   0  0  0  0  0  0  0  0  0  0  0  0
  -16.8458   15.7520  -23.2837 C   0  0  0  0  0  0  0  0  0  0  0  0
  -15.8574   16.7223  -23.8309 C   0  0  0  0  0  0  0  0  0  0  0  0
  -14.8731   16.1522  -24.7969 C   0  0  0  0  0  0  0  0  0  0  0  0
  -14.2775   14.8332  -24.3240 C   0  0  0  0  0  0  0  0  0  0  0  0
  -14.7928   14.4859  -22.9336 C   0  0  0  0  0  0  0  0  0  0  0  0
  -15.3585   16.0593  -26.1382 N   0  0  0  0  0  0  0  0  0  0  0  0
  -16.0082   14.9407  -26.6902 C   0  0  0  0  0  0  0  0  0  0  0  0
  -16.1860   13.9318  -25.9634 O   0  0  0  0  0  0  0  0  0  0  0  0
  -15.2188   16.8938  -26.7620 H   0  0  0  0  0  0  0  0  0  0  0  0
  -16.4822   14.8989  -28.0607 C   0  0  0  0  0  0  0  0  0  0  0  0
  -16.1298   15.8267  -28.9284 C   0  0  0  0  0  0  0  0  0  0  0  0
  1  2  1  0  0  0
  2  3  2  0  0  0
  3  4  1  0  0  0
  4  5  2  0  0  0
  5  6  1  0  0  0
  6  7  1  0  0  0
  7  8  1  0  0  0
  8  9  2  0  0  0
  9 13  1  0  0  0
 13 14  2  0  0  0
 14 15  1  0  0  0
 15 16  2  0  0  0
 16 19  1  0  0  0
 19 20  1  0  0  0
 20 21  2  0  0  0
 21 22  1  0  0  0
 22 23  2  0  0  0
 23 24  1  0  0  0
 24 25  2  0  0  0
 16 17  1  0  0  0
 17 18  2  0  0  0
  9 10  1  0  0  0
  7 26  1  0  0  0
 26 27  1  0  0  0
 27 28  1  0  0  0
 28 29  1  0  0  0
 29 30  1  0  0  0
 30 31  1  0  0  0
 29 32  1  0  0  0
 32 33  1  0  0  0
 33 34  2  0  0  0
 33 36  1  0  0  0
 36 37  2  0  0  0
 10  2  1  0  0  0
 31 26  1  0  0  0
 10  6  2  0  0  0
 18 13  1  0  0  0
 25 20  1  0  0  0
  1 11  1  0  0  0
  1 12  1  0  0  0
 32 35  1  0  0  0
M  END
> <minimizedAffinity>
-8.21094

> <CNNscore>
0.6178191900

> <CNNaffinity>
7.5305700302

> <CNN_VS>
4.6525306702

> <CNNaffinity_variance>
0.2544355989

$$$$
[H]C([H])=C([H])C(=O)N([H])[C@]1([H])C([H])([H])C([H])([H])[C@@]([H])(n2c([H])c(-c3c([H])c([H])c(Oc4c([H])c([H])c([H])c([H])c4[H])c([H])c3[H])c3c(N([H])[H])nc([H])nc32)C([H])([H])C1([H])[H]


 37 41  0  0  0  0  0  0  0  0999 V2000
  -17.7999    9.4473  -17.6033 N   0  0  0  0  0  0  0  0  0  0  0  0
  -17.8482   10.4046  -18.6547 C   0  0  0  0  0  0  0  0  0  0  0  0
  -17.0730   10.2659  -19.7524 N   0  0  0  0  0  0  0  0  0  0  0  0
  -17.0994   11.1819  -20.7331 C   0  0  0  0  0  0  0  0  0  0  0  0
  -17.8949   12.2619  -20.6540 N   0  0  0  0  0  0  0  0  0  0  0  0
  -18.6934   12.4651  -19.5915 C   0  0  0  0  0  0  0  0  0  0  0  0
  -19.5623   13.4636  -19.2794 N   0  0  0  0  0  0  0  0  0  0  0  0
  -20.0845   13.1651  -18.0919 C   0  0  0  0  0  0  0  0  0  0  0  0
  -19.5625   11.9705  -17.6187 C   0  0  0  0  0  0  0  0  0  0  0  0
  -18.6774   11.5148  -18.5578 C   0  0  0  0  0  0  0  0  0  0  0  0
  -17.3820    9.6189  -16.6641 H   0  0  0  0  0  0  0  0  0  0  0  0
  -18.2087    8.5034  -17.7738 H   0  0  0  0  0  0  0  0  0  0  0  0
  -19.9250   11.2946  -16.3737 C   0  0  0  0  0  0  0  0  0  0  0  0
  -20.6443   10.1193  -16.3155 C   0  0  0  0  0  0  0  0  0  0  0  0
  -20.9642    9.4947  -15.1300 C   0  0  0  0  0  0  0  0  0  0  0  0
  -20.5748   10.0224  -13.9189 C   0  0  0  0  0  0  0  0  0  0  0  0
  -19.8524   11.2036  -13.9777 C   0  0  0  0  0  0  0  0  0  0  0  0
  -19.5283   11.8337  -15.1496 C   0  0  0  0  0  0  0  0  0  0  0  0
  -20.8828    9.4145  -12.7066 O   0  0  0  0  0  0  0  0  0  0  0  0
  -19.9796    9.3483  -11.6556 C   0  0  0  0  0  0  0  0  0  0  0  0
  -20.0672   10.1350  -10.5450 C   0  0  0  0  0  0  0  0  0  0  0  0
  -19.1364   10.0082   -9.5532 C   0  0  0  0  0  0  0  0  0  0  0  0
  -18.0898    9.1013   -9.6256 C   0  0  0  0  0  0  0  0  0  0  0  0
  -18.0228    8.3168  -10.7594 C   0  0  0  0  0  0  0  0  0  0  0  0
  -18.9557    8.4356  -11.7662 C   0  0  0  0  0  0  0  0  0  0  0  0
  -19.8267   14.6212  -20.1345 C   0  0  0  0  0  0  0  0  0  0  0  0
  -21.1369   15.2784  -19.8116 C   0  0  0  0  0  0  0  0  0  0  0  0
  -21.1372   16.7614  -19.9464 C   0  0  0  0  0  0  0  0  0  0  0  0
  -20.2838   17.3010  -21.0454 C   0  0  0  0  0  0  0  0  0  0  0  0
  -18.9053   16.6564  -21.0935 C   0  0  0  0  0  0  0  0  0  0  0  0
  -18.7360   15.6779  -19.9389 C   0  0  0  0  0  0  0  0  0  0  0  0
  -20.9126   17.2948  -22.3291 N   0  0  0  0  0  0  0  0  0  0  0  0
  -21.6823   18.3451  -22.8606 C   0  0  0  0  0  0  0  0  0  0  0  0
  -21.8425   19.3807  -22.1679 O   0  0  0  0  0  0  0  0  0  0  0  0
  -20.7900   16.4365  -22.9236 H   0  0  0  0  0  0  0  0  0  0  0  0
  -22.2996   18.2871  -24.1721 C   0  0  0  0  0  0  0  0  0  0  0  0
  -23.4605   17.6878  -24.3489 C   0  0  0  0  0  0  0  0  0  0  0  0
  1  2  1  0  0  0
  2  3  2  0  0  0
  3  4  1  0  0  0
  4  5  2  0  0  0
  5  6  1  0  0  0
  6  7  1  0  0  0
  7  8  1  0  0  0
  8  9  2  0  0  0
  9 13  1  0  0  0
 13 14  2  0  0  0
 14 15  1  0  0  0
 15 16  2  0  0  0
 16 19  1  0  0  0
 19 20  1  0  0  0
 20 21  2  0  0  0
 21 22  1  0  0  0
 22 23  2  0  0  0
 23 24  1  0  0  0
 24 25  2  0  0  0
 16 17  1  0  0  0
 17 18  2  0  0  0
  9 10  1  0  0  0
  7 26  1  0  0  0
 26 27  1  0  0  0
 27 28  1  0  0  0
 28 29  1  0  0  0
 29 30  1  0  0  0
 30 31  1  0  0  0
 29 32  1  0  0  0
 32 33  1  0  0  0
 33 34  2  0  0  0
 33 36  1  0  0  0
 36 37  2  0  0  0
 10  2  1  0  0  0
 31 26  1  0  0  0
 10  6  2  0  0  0
 18 13  1  0  0  0
 25 20  1  0  0  0
  1 11  1  0  0  0
  1 12  1  0  0  0
 32 35  1  0  0  0
M  END
> <minimizedAffinity>
-7.79359

> <CNNscore>
0.6139802933

> <CNNaffinity>
7.0034804344

> <CNN_VS>
4.2999987602

> <CNNaffinity_variance>
0.2282016277

$$$$
[H]C([H])=C([H])C(=O)N([H])[C@]1([H])C([H])([H])C([H])([H])[C@@]([H])(n2c([H])c(-c3c([H])c([H])c(Oc4c([H])c([H])c([H])c([H])c4[H])c([H])c3[H])c3c(N([H])[H])nc([H])nc32)C([H])([H])C1([H])[H]


 37 41  0  0  0  0  0  0  0  0999 V2000
  -17.2300    9.6783  -19.6024 N   0  0  0  0  0  0  0  0  0  0  0  0
  -17.1074   10.8738  -20.3638 C   0  0  0  0  0  0  0  0  0  0  0  0
  -16.3490   10.9073  -21.4814 N   0  0  0  0  0  0  0  0  0  0  0  0
  -16.2125   12.0414  -22.1861 C   0  0  0  0  0  0  0  0  0  0  0  0
  -16.8237   13.1751  -21.8033 N   0  0  0  0  0  0  0  0  0  0  0  0
  -17.5940   13.2161  -20.7021 C   0  0  0  0  0  0  0  0  0  0  0  0
  -18.2941   14.2227  -20.1140 N   0  0  0  0  0  0  0  0  0  0  0  0
  -18.8749   13.7092  -19.0318 C   0  0  0  0  0  0  0  0  0  0  0  0
  -18.5602   12.3645  -18.9040 C   0  0  0  0  0  0  0  0  0  0  0  0
  -17.7471   12.0371  -19.9550 C   0  0  0  0  0  0  0  0  0  0  0  0
  -16.8035    9.5270  -18.6635 H   0  0  0  0  0  0  0  0  0  0  0  0
  -17.7837    8.8908  -20.0028 H   0  0  0  0  0  0  0  0  0  0  0  0
  -19.0454   11.4514  -17.8701 C   0  0  0  0  0  0  0  0  0  0  0  0
  -18.5633   10.1730  -17.6824 C   0  0  0  0  0  0  0  0  0  0  0  0
  -19.0285    9.3345  -16.6933 C   0  0  0  0  0  0  0  0  0  0  0  0
  -20.0183    9.7378  -15.8247 C   0  0  0  0  0  0  0  0  0  0  0  0
  -20.5030   11.0223  -16.0138 C   0  0  0  0  0  0  0  0  0  0  0  0
  -20.0485   11.8649  -16.9931 C   0  0  0  0  0  0  0  0  0  0  0  0
  -20.5076    8.9139  -14.8168 O   0  0  0  0  0  0  0  0  0  0  0  0
  -20.9413    7.6184  -15.0583 C   0  0  0  0  0  0  0  0  0  0  0  0
  -22.0613    7.3281  -15.7804 C   0  0  0  0  0  0  0  0  0  0  0  0
  -22.4209    6.0244  -15.9731 C   0  0  0  0  0  0  0  0  0  0  0  0
  -21.6868    4.9658  -15.4596 C   0  0  0  0  0  0  0  0  0  0  0  0
  -20.5579    5.2854  -14.7326 C   0  0  0  0  0  0  0  0  0  0  0  0
  -20.1852    6.5964  -14.5316 C   0  0  0  0  0  0  0  0  0  0  0  0
  -18.3551   15.5916  -20.6272 C   0  0  0  0  0  0  0  0  0  0  0  0
  -19.5379   16.3460  -20.0936 C   0  0  0  0  0  0  0  0  0  0  0  0
  -19.2879   17.7916  -19.8376 C   0  0  0  0  0  0  0  0  0  0  0  0
  -18.3497   18.4540  -20.7905 C   0  0  0  0  0  0  0  0  0  0  0  0
  -17.0990   17.6280  -21.0584 C   0  0  0  0  0  0  0  0  0  0  0  0
  -17.1033   16.3661  -20.2058 C   0  0  0  0  0  0  0  0  0  0  0  0
  -18.9633   18.8889  -22.0062 N   0  0  0  0  0  0  0  0  0  0  0  0
  -19.1102   20.2291  -22.4065 C   0  0  0  0  0  0  0  0  0  0  0  0
  -18.6742   21.1319  -21.6497 O   0  0  0  0  0  0  0  0  0  0  0  0
  -19.3345   18.1478  -22.6527 H   0  0  0  0  0  0  0  0  0  0  0  0
  -19.7422   20.6165  -23.6536 C   0  0  0  0  0  0  0  0  0  0  0  0
  -20.9012   20.1022  -24.0144 C   0  0  0  0  0  0  0  0  0  0  0  0
  1  2  1  0  0  0
  2  3  2  0  0  0
  3  4  1  0  0  0
  4  5  2  0  0  0
  5  6  1  0  0  0
  6  7  1  0  0  0
  7  8  1  0  0  0
  8  9  2  0  0  0
  9 13  1  0  0  0
 13 14  2  0  0  0
 14 15  1  0  0  0
 15 16  2  0  0  0
 16 19  1  0  0  0
 19 20  1  0  0  0
 20 21  2  0  0  0
 21 22  1  0  0  0
 22 23  2  0  0  0
 23 24  1  0  0  0
 24 25  2  0  0  0
 16 17  1  0  0  0
 17 18  2  0  0  0
  9 10  1  0  0  0
  7 26  1  0  0  0
 26 27  1  0  0  0
 27 28  1  0  0  0
 28 29  1  0  0  0
 29 30  1  0  0  0
 30 31  1  0  0  0
 29 32  1  0  0  0
 32 33  1  0  0  0
 33 34  2  0  0  0
 33 36  1  0  0  0
 36 37  2  0  0  0
 10  2  1  0  0  0
 31 26  1  0  0  0
 10  6  2  0  0  0
 18 13  1  0  0  0
 25 20  1  0  0  0
  1 11  1  0  0  0
  1 12  1  0  0  0
 32 35  1  0  0  0
M  END
> <minimizedAffinity>
-8.22959

> <CNNscore>
0.5780190229

> <CNNaffinity>
7.1641974449

> <CNN_VS>
4.1410422325

> <CNNaffinity_variance>
0.2450765371

$$$$
[H]C([H])=C([H])C(=O)N([H])[C@]1([H])C([H])([H])C([H])([H])[C@@]([H])(n2c([H])c(-c3c([H])c([H])c(Oc4c([H])c([H])c([H])c([H])c4[H])c([H])c3[H])c3c(N([H])[H])nc([H])nc32)C([H])([H])C1([H])[H]


 37 41  0  0  0  0  0  0  0  0999 V2000
  -18.3612    9.2111  -17.2843 N   0  0  0  0  0  0  0  0  0  0  0  0
  -17.9668   10.1245  -18.3013 C   0  0  0  0  0  0  0  0  0  0  0  0
  -17.1485    9.7335  -19.3026 N   0  0  0  0  0  0  0  0  0  0  0  0
  -16.7557   10.6013  -20.2483 C   0  0  0  0  0  0  0  0  0  0  0  0
  -17.1626   11.8817  -20.2285 N   0  0  0  0  0  0  0  0  0  0  0  0
  -17.9775   12.3411  -19.2628 C   0  0  0  0  0  0  0  0  0  0  0  0
  -18.5084   13.5699  -19.0234 N   0  0  0  0  0  0  0  0  0  0  0  0
  -19.2418   13.4659  -17.9174 C   0  0  0  0  0  0  0  0  0  0  0  0
  -19.1970   12.1700  -17.4255 C   0  0  0  0  0  0  0  0  0  0  0  0
  -18.3977   11.4447  -18.2670 C   0  0  0  0  0  0  0  0  0  0  0  0
  -18.0300    9.2443  -16.2966 H   0  0  0  0  0  0  0  0  0  0  0  0
  -19.0288    8.4501  -17.5339 H   0  0  0  0  0  0  0  0  0  0  0  0
  -19.9097   11.6576  -16.2560 C   0  0  0  0  0  0  0  0  0  0  0  0
  -19.3803   11.6266  -14.9829 C   0  0  0  0  0  0  0  0  0  0  0  0
  -20.0759   11.1494  -13.8937 C   0  0  0  0  0  0  0  0  0  0  0  0
  -21.3602   10.6691  -14.0232 C   0  0  0  0  0  0  0  0  0  0  0  0
  -21.8917   10.6999  -15.3027 C   0  0  0  0  0  0  0  0  0  0  0  0
  -21.2104   11.1720  -16.3928 C   0  0  0  0  0  0  0  0  0  0  0  0
  -22.0868   10.1814  -12.9423 O   0  0  0  0  0  0  0  0  0  0  0  0
  -21.9151   10.6609  -11.6519 C   0  0  0  0  0  0  0  0  0  0  0  0
  -21.3677    9.9197  -10.6464 C   0  0  0  0  0  0  0  0  0  0  0  0
  -21.2333   10.4660   -9.4015 C   0  0  0  0  0  0  0  0  0  0  0  0
  -21.6345   11.7610   -9.1093 C   0  0  0  0  0  0  0  0  0  0  0  0
  -22.1854   12.4906  -10.1434 C   0  0  0  0  0  0  0  0  0  0  0  0
  -22.3260   11.9504  -11.4030 C   0  0  0  0  0  0  0  0  0  0  0  0
  -18.2762   14.7445  -19.8647 C   0  0  0  0  0  0  0  0  0  0  0  0
  -19.3869   14.9662  -20.8495 C   0  0  0  0  0  0  0  0  0  0  0  0
  -19.7024   16.3967  -21.1173 C   0  0  0  0  0  0  0  0  0  0  0  0
  -18.5319   17.3222  -21.0935 C   0  0  0  0  0  0  0  0  0  0  0  0
  -17.6144   17.0835  -19.9021 C   0  0  0  0  0  0  0  0  0  0  0  0
  -18.1900   16.0028  -18.9966 C   0  0  0  0  0  0  0  0  0  0  0  0
  -17.7997   17.3686  -22.3204 N   0  0  0  0  0  0  0  0  0  0  0  0
  -16.5853   16.7031  -22.5660 C   0  0  0  0  0  0  0  0  0  0  0  0
  -16.0868   16.0069  -21.6469 O   0  0  0  0  0  0  0  0  0  0  0  0
  -18.2010   17.9463  -23.1016 H   0  0  0  0  0  0  0  0  0  0  0  0
  -15.8820   16.7840  -23.8323 C   0  0  0  0  0  0  0  0  0  0  0  0
  -16.5037   17.1681  -24.9296 C   0  0  0  0  0  0  0  0  0  0  0  0
  1  2  1  0  0  0
  2  3  2  0  0  0
  3  4  1  0  0  0
  4  5  2  0  0  0
  5  6  1  0  0  0
  6  7  1  0  0  0
  7  8  1  0  0  0
  8  9  2  0  0  0
  9 13  1  0  0  0
 13 14  2  0  0  0
 14 15  1  0  0  0
 15 16  2  0  0  0
 16 19  1  0  0  0
 19 20  1  0  0  0
 20 21  2  0  0  0
 21 22  1  0  0  0
 22 23  2  0  0  0
 23 24  1  0  0  0
 24 25  2  0  0  0
 16 17  1  0  0  0
 17 18  2  0  0  0
  9 10  1  0  0  0
  7 26  1  0  0  0
 26 27  1  0  0  0
 27 28  1  0  0  0
 28 29  1  0  0  0
 29 30  1  0  0  0
 30 31  1  0  0  0
 29 32  1  0  0  0
 32 33  1  0  0  0
 33 34  2  0  0  0
 33 36  1  0  0  0
 36 37  2  0  0  0
 10  2  1  0  0  0
 31 26  1  0  0  0
 10  6  2  0  0  0
 18 13  1  0  0  0
 25 20  1  0  0  0
  1 11  1  0  0  0
  1 12  1  0  0  0
 32 35  1  0  0  0
M  END
> <minimizedAffinity>
-7.53778

> <CNNscore>
0.5496624112

> <CNNaffinity>
6.9332618713

> <CNN_VS>
3.8109533787

> <CNNaffinity_variance>
0.1396440566

$$$$
[H]C([H])=C([H])C(=O)N([H])[C@]1([H])C([H])([H])C([H])([H])[C@@]([H])(n2c([H])c(-c3c([H])c([H])c(Oc4c([H])c([H])c([H])c([H])c4[H])c([H])c3[H])c3c(N([H])[H])nc([H])nc32)C([H])([H])C1([H])[H]


 37 41  0  0  0  0  0  0  0  0999 V2000
  -16.9788   10.2639  -20.8260 N   0  0  0  0  0  0  0  0  0  0  0  0
  -16.9000   11.5731  -21.3773 C   0  0  0  0  0  0  0  0  0  0  0  0
  -16.2753   11.7909  -22.5553 N   0  0  0  0  0  0  0  0  0  0  0  0
  -16.1785   13.0294  -23.0636 C   0  0  0  0  0  0  0  0  0  0  0  0
  -16.6979   14.0876  -22.4189 N   0  0  0  0  0  0  0  0  0  0  0  0
  -17.3336   13.9461  -21.2427 C   0  0  0  0  0  0  0  0  0  0  0  0
  -17.9225   14.8444  -20.4087 N   0  0  0  0  0  0  0  0  0  0  0  0
  -18.3932   14.1575  -19.3701 C   0  0  0  0  0  0  0  0  0  0  0  0
  -18.1169   12.8063  -19.5166 C   0  0  0  0  0  0  0  0  0  0  0  0
  -17.4437   12.6563  -20.6987 C   0  0  0  0  0  0  0  0  0  0  0  0
  -16.4526    9.9417  -19.9859 H   0  0  0  0  0  0  0  0  0  0  0  0
  -17.6045    9.5691  -21.2873 H   0  0  0  0  0  0  0  0  0  0  0  0
  -18.5134   11.7330  -18.6062 C   0  0  0  0  0  0  0  0  0  0  0  0
  -17.8242   10.5466  -18.4662 C   0  0  0  0  0  0  0  0  0  0  0  0
  -18.2110    9.5540  -17.5927 C   0  0  0  0  0  0  0  0  0  0  0  0
  -19.3276    9.6984  -16.7994 C   0  0  0  0  0  0  0  0  0  0  0  0
  -20.0202   10.8904  -16.9406 C   0  0  0  0  0  0  0  0  0  0  0  0
  -19.6456   11.8842  -17.8051 C   0  0  0  0  0  0  0  0  0  0  0  0
  -19.7422    8.7141  -15.9087 O   0  0  0  0  0  0  0  0  0  0  0  0
  -20.1846    9.0077  -14.6270 C   0  0  0  0  0  0  0  0  0  0  0  0
  -21.4998    8.9820  -14.2667 C   0  0  0  0  0  0  0  0  0  0  0  0
  -21.8536    9.2845  -12.9824 C   0  0  0  0  0  0  0  0  0  0  0  0
  -20.9212    9.6217  -12.0128 C   0  0  0  0  0  0  0  0  0  0  0  0
  -19.5971    9.6407  -12.4021 C   0  0  0  0  0  0  0  0  0  0  0  0
  -19.2281    9.3376  -13.6944 C   0  0  0  0  0  0  0  0  0  0  0  0
  -17.9907   16.2834  -20.6652 C   0  0  0  0  0  0  0  0  0  0  0  0
  -19.2852   16.8828  -20.1986 C   0  0  0  0  0  0  0  0  0  0  0  0
  -19.1674   18.2603  -19.6453 C   0  0  0  0  0  0  0  0  0  0  0  0
  -18.1393   19.1229  -20.2980 C   0  0  0  0  0  0  0  0  0  0  0  0
  -16.8135   18.4048  -20.5092 C   0  0  0  0  0  0  0  0  0  0  0  0
  -16.8676   17.0039  -19.9143 C   0  0  0  0  0  0  0  0  0  0  0  0
  -18.5884   19.7615  -21.4956 N   0  0  0  0  0  0  0  0  0  0  0  0
  -19.0629   21.0826  -21.5816 C   0  0  0  0  0  0  0  0  0  0  0  0
  -19.1038   21.7742  -20.5338 O   0  0  0  0  0  0  0  0  0  0  0  0
  -18.5618   19.1985  -22.3830 H   0  0  0  0  0  0  0  0  0  0  0  0
  -19.5074   21.6831  -22.8252 C   0  0  0  0  0  0  0  0  0  0  0  0
  -19.5889   20.9701  -23.9310 C   0  0  0  0  0  0  0  0  0  0  0  0
  1  2  1  0  0  0
  2  3  2  0  0  0
  3  4  1  0  0  0
  4  5  2  0  0  0
  5  6  1  0  0  0
  6  7  1  0  0  0
  7  8  1  0  0  0
  8  9  2  0  0  0
  9 13  1  0  0  0
 13 14  2  0  0  0
 14 15  1  0  0  0
 15 16  2  0  0  0
 16 19  1  0  0  0
 19 20  1  0  0  0
 20 21  2  0  0  0
 21 22  1  0  0  0
 22 23  2  0  0  0
 23 24  1  0  0  0
 24 25  2  0  0  0
 16 17  1  0  0  0
 17 18  2  0  0  0
  9 10  1  0  0  0
  7 26  1  0  0  0
 26 27  1  0  0  0
 27 28  1  0  0  0
 28 29  1  0  0  0
 29 30  1  0  0  0
 30 31  1  0  0  0
 29 32  1  0  0  0
 32 33  1  0  0  0
 33 34  2  0  0  0
 33 36  1  0  0  0
 36 37  2  0  0  0
 10  2  1  0  0  0
 31 26  1  0  0  0
 10  6  2  0  0  0
 18 13  1  0  0  0
 25 20  1  0  0  0
  1 11  1  0  0  0
  1 12  1  0  0  0
 32 35  1  0  0  0
M  END
> <minimizedAffinity>
-8.53972

> <CNNscore>
0.5046916008

> <CNNaffinity>
7.1937799454

> <CNN_VS>
3.6306402683

> <CNNaffinity_variance>
0.1729473174

$$$$
[H]C([H])=C([H])C(=O)N([H])[C@]1([H])C([H])([H])C([H])([H])[C@@]([H])(n2c([H])c(-c3c([H])c([H])c(Oc4c([H])c([H])c([H])c([H])c4[H])c([H])c3[H])c3c(N([H])[H])nc([H])nc32)C([H])([H])C1([H])[H]


 37 41  0  0  0  0  0  0  0  0999 V2000
  -17.9328    9.4980  -17.5434 N   0  0  0  0  0  0  0  0  0  0  0  0
  -17.9325   10.4302  -18.6181 C   0  0  0  0  0  0  0  0  0  0  0  0
  -17.1450   10.2391  -19.6991 N   0  0  0  0  0  0  0  0  0  0  0  0
  -17.1253   11.1310  -20.7019 C   0  0  0  0  0  0  0  0  0  0  0  0
  -17.8855   12.2383  -20.6620 N   0  0  0  0  0  0  0  0  0  0  0  0
  -18.6934   12.4938  -19.6182 C   0  0  0  0  0  0  0  0  0  0  0  0
  -19.5334   13.5278  -19.3448 N   0  0  0  0  0  0  0  0  0  0  0  0
  -20.0840   13.2760  -18.1593 C   0  0  0  0  0  0  0  0  0  0  0  0
  -19.6097   12.0768  -17.6488 C   0  0  0  0  0  0  0  0  0  0  0  0
  -18.7255   11.5693  -18.5618 C   0  0  0  0  0  0  0  0  0  0  0  0
  -17.5244    9.6788  -16.6017 H   0  0  0  0  0  0  0  0  0  0  0  0
  -18.3701    8.5643  -17.6979 H   0  0  0  0  0  0  0  0  0  0  0  0
  -20.0143   11.4442  -16.3941 C   0  0  0  0  0  0  0  0  0  0  0  0
  -20.9433   10.4286  -16.3071 C   0  0  0  0  0  0  0  0  0  0  0  0
  -21.3001    9.8398  -15.1138 C   0  0  0  0  0  0  0  0  0  0  0  0
  -20.7366   10.2434  -13.9236 C   0  0  0  0  0  0  0  0  0  0  0  0
  -19.8034   11.2642  -14.0113 C   0  0  0  0  0  0  0  0  0  0  0  0
  -19.4405   11.8570  -15.1913 C   0  0  0  0  0  0  0  0  0  0  0  0
  -21.0767    9.6679  -12.7041 O   0  0  0  0  0  0  0  0  0  0  0  0
  -20.7372   10.2432  -11.4883 C   0  0  0  0  0  0  0  0  0  0  0  0
  -19.6132    9.9090  -10.7918 C   0  0  0  0  0  0  0  0  0  0  0  0
  -19.3504   10.5227   -9.6000 C   0  0  0  0  0  0  0  0  0  0  0  0
  -20.1881   11.4857   -9.0576 C   0  0  0  0  0  0  0  0  0  0  0  0
  -21.3189   11.8064   -9.7812 C   0  0  0  0  0  0  0  0  0  0  0  0
  -21.5945   11.1943  -10.9843 C   0  0  0  0  0  0  0  0  0  0  0  0
  -19.7453   14.6721  -20.2317 C   0  0  0  0  0  0  0  0  0  0  0  0
  -20.9882   15.4381  -19.8833 C   0  0  0  0  0  0  0  0  0  0  0  0
  -20.8829   16.9114  -20.0735 C   0  0  0  0  0  0  0  0  0  0  0  0
  -20.0376   17.3461  -21.2240 C   0  0  0  0  0  0  0  0  0  0  0  0
  -18.7145   16.5967  -21.3011 C   0  0  0  0  0  0  0  0  0  0  0  0
  -18.5714   15.6485  -20.1181 C   0  0  0  0  0  0  0  0  0  0  0  0
  -20.7177   17.3437  -22.4814 N   0  0  0  0  0  0  0  0  0  0  0  0
  -21.4828   18.4076  -22.9920 C   0  0  0  0  0  0  0  0  0  0  0  0
  -21.5901   19.4529  -22.3037 O   0  0  0  0  0  0  0  0  0  0  0  0
  -20.6397   16.4774  -23.0718 H   0  0  0  0  0  0  0  0  0  0  0  0
  -22.1536   18.3530  -24.2771 C   0  0  0  0  0  0  0  0  0  0  0  0
  -22.6313   19.4456  -24.8392 C   0  0  0  0  0  0  0  0  0  0  0  0
  1  2  1  0  0  0
  2  3  2  0  0  0
  3  4  1  0  0  0
  4  5  2  0  0  0
  5  6  1  0  0  0
  6  7  1  0  0  0
  7  8  1  0  0  0
  8  9  2  0  0  0
  9 13  1  0  0  0
 13 14  2  0  0  0
 14 15  1  0  0  0
 15 16  2  0  0  0
 16 19  1  0  0  0
 19 20  1  0  0  0
 20 21  2  0  0  0
 21 22  1  0  0  0
 22 23  2  0  0  0
 23 24  1  0  0  0
 24 25  2  0  0  0
 16 17  1  0  0  0
 17 18  2  0  0  0
  9 10  1  0  0  0
  7 26  1  0  0  0
 26 27  1  0  0  0
 27 28  1  0  0  0
 28 29  1  0  0  0
 29 30  1  0  0  0
 30 31  1  0  0  0
 29 32  1  0  0  0
 32 33  1  0  0  0
 33 34  2  0  0  0
 33 36  1  0  0  0
 36 37  2  0  0  0
 10  2  1  0  0  0
 31 26  1  0  0  0
 10  6  2  0  0  0
 18 13  1  0  0  0
 25 20  1  0  0  0
  1 11  1  0  0  0
  1 12  1  0  0  0
 32 35  1  0  0  0
M  END
> <minimizedAffinity>
-7.46455

> <CNNscore>
0.4979778230

> <CNNaffinity>
6.9131112099

> <CNN_VS>
3.4425761700

> <CNNaffinity_variance>
0.3724948466

$$$$
[H]c1c(N([H])c2nc3c([H])c([H])c(C(=O)N([H])c4c(Cl)c([H])c([H])c([H])c4C([H])([H])[H])c([H])c3s2)nc(N([H])[H])nc1C([H])([H])[H]


 33 36  0  0  0  0  0  0  0  0999 V2000
  -16.1172   11.4550  -21.8140 C   0  0  0  0  0  0  0  0  0  0  0  0
  -17.0293   12.1047  -21.1039 N   0  0  0  0  0  0  0  0  0  0  0  0
  -17.5516   11.5776  -20.0433 C   0  0  0  0  0  0  0  0  0  0  0  0
  -18.5261   12.1810  -19.2094 C   0  0  0  0  0  0  0  0  0  0  0  0
  -18.9666   11.4950  -18.1255 C   0  0  0  0  0  0  0  0  0  0  0  0
  -18.5521   10.2533  -17.7538 C   0  0  0  0  0  0  0  0  0  0  0  0
  -17.6081    9.6578  -18.5564 C   0  0  0  0  0  0  0  0  0  0  0  0
  -17.1198   10.3186  -19.6845 C   0  0  0  0  0  0  0  0  0  0  0  0
  -15.9918   10.0059  -20.9216 S   0  0  0  0  0  0  0  0  0  0  0  0
  -19.0486    9.5437  -16.5472 C   0  0  0  0  0  0  0  0  0  0  0  0
  -18.8187    8.2786  -16.5992 O   0  0  0  0  0  0  0  0  0  0  0  0
  -19.6653   10.1491  -15.5184 N   0  0  0  0  0  0  0  0  0  0  0  0
  -19.7869    8.9685  -14.8524 H   0  0  0  0  0  0  0  0  0  0  0  0
  -20.2866   10.7572  -14.4815 C   0  0  0  0  0  0  0  0  0  0  0  0
  -20.0807   10.3100  -13.1703 C   0  0  0  0  0  0  0  0  0  0  0  0
  -19.1669    9.1964  -12.9156 C   0  0  0  0  0  0  0  0  0  0  0  0
  -20.7717   10.9739  -12.1785 C   0  0  0  0  0  0  0  0  0  0  0  0
  -21.6176   12.0165  -12.4461 C   0  0  0  0  0  0  0  0  0  0  0  0
  -21.8268   12.4638  -13.7379 C   0  0  0  0  0  0  0  0  0  0  0  0
  -21.1597   11.8307  -14.7444 C   0  0  0  0  0  0  0  0  0  0  0  0
  -21.4193   12.3886  -16.3848 Cl  0  0  0  0  0  0  0  0  0  0  0  0
  -15.4848   11.9644  -22.9665 N   0  0  0  0  0  0  0  0  0  0  0  0
  -14.7201   11.3512  -23.3771 H   0  0  0  0  0  0  0  0  0  0  0  0
  -18.4239   15.7799  -24.1909 C   0  0  0  0  0  0  0  0  0  0  0  0
  -17.1362   15.0407  -24.2357 C   0  0  0  0  0  0  0  0  0  0  0  0
  -16.9584   13.8397  -23.5447 C   0  0  0  0  0  0  0  0  0  0  0  0
  -15.7735   13.1618  -23.5870 C   0  0  0  0  0  0  0  0  0  0  0  0
  -14.7842   13.7509  -24.3545 N   0  0  0  0  0  0  0  0  0  0  0  0
  -14.9559   14.8833  -25.0048 C   0  0  0  0  0  0  0  0  0  0  0  0
  -13.9179   15.4787  -25.7999 N   0  0  0  0  0  0  0  0  0  0  0  0
  -16.1183   15.5431  -24.9608 N   0  0  0  0  0  0  0  0  0  0  0  0
  -13.0024   15.6497  -25.3469 H   0  0  0  0  0  0  0  0  0  0  0  0
  -14.1265   15.7128  -26.7929 H   0  0  0  0  0  0  0  0  0  0  0  0
 24 25  1  0  0  0
 25 26  2  0  0  0
 26 27  1  0  0  0
 27 22  1  0  0  0
 22  1  1  0  0  0
  1  2  2  0  0  0
  2  3  1  0  0  0
  3  4  2  0  0  0
  4  5  1  0  0  0
  5  6  2  0  0  0
  6  7  1  0  0  0
  7  8  2  0  0  0
  8  9  1  0  0  0
  6 10  1  0  0  0
 10 11  2  0  0  0
 10 12  1  0  0  0
 12 14  1  0  0  0
 14 15  2  0  0  0
 15 16  1  0  0  0
 15 17  1  0  0  0
 17 18  2  0  0  0
 18 19  1  0  0  0
 19 20  2  0  0  0
 20 21  1  0  0  0
 27 28  2  0  0  0
 28 29  1  0  0  0
 29 30  1  0  0  0
 29 31  2  0  0  0
 31 25  1  0  0  0
  9  1  1  0  0  0
 20 14  1  0  0  0
  8  3  1  0  0  0
 22 23  1  0  0  0
 12 13  1  0  0  0
 30 32  1  0  0  0
 30 33  1  0  0  0
M  END
> <minimizedAffinity>
-9.10955

> <CNNscore>
0.7115581632

> <CNNaffinity>
7.1192703247

> <CNN_VS>
5.0657749176

> <CNNaffinity_variance>
0.0792407244

$$$$
[H]c1c(N([H])c2nc3c([H])c([H])c(C(=O)N([H])c4c(Cl)c([H])c([H])c([H])c4C([H])([H])[H])c([H])c3s2)nc(N([H])[H])nc1C([H])([H])[H]


 33 36  0  0  0  0  0  0  0  0999 V2000
  -16.1158   11.4851  -21.8534 C   0  0  0  0  0  0  0  0  0  0  0  0
  -17.0443   12.1211  -21.1521 N   0  0  0  0  0  0  0  0  0  0  0  0
  -17.5633   11.5894  -20.0922 C   0  0  0  0  0  0  0  0  0  0  0  0
  -18.5541   12.1785  -19.2673 C   0  0  0  0  0  0  0  0  0  0  0  0
  -18.9885   11.4896  -18.1828 C   0  0  0  0  0  0  0  0  0  0  0  0
  -18.5533   10.2577  -17.8024 C   0  0  0  0  0  0  0  0  0  0  0  0
  -17.5934    9.6761  -18.5963 C   0  0  0  0  0  0  0  0  0  0  0  0
  -17.1104   10.3404  -19.7246 C   0  0  0  0  0  0  0  0  0  0  0  0
  -15.9690   10.0429  -20.9530 S   0  0  0  0  0  0  0  0  0  0  0  0
  -19.0441    9.5447  -16.5955 C   0  0  0  0  0  0  0  0  0  0  0  0
  -18.1747    8.7156  -16.1344 O   0  0  0  0  0  0  0  0  0  0  0  0
  -20.2541    9.7411  -16.0453 N   0  0  0  0  0  0  0  0  0  0  0  0
  -19.9899    8.8402  -15.0601 H   0  0  0  0  0  0  0  0  0  0  0  0
  -21.4723    9.9375  -15.4900 C   0  0  0  0  0  0  0  0  0  0  0  0
  -21.9162   11.2325  -15.1938 C   0  0  0  0  0  0  0  0  0  0  0  0
  -21.0704   12.3829  -15.5116 C   0  0  0  0  0  0  0  0  0  0  0  0
  -23.1607   11.3371  -14.6087 C   0  0  0  0  0  0  0  0  0  0  0  0
  -23.9327   10.2423  -14.3265 C   0  0  0  0  0  0  0  0  0  0  0  0
  -23.5015    8.9604  -14.6153 C   0  0  0  0  0  0  0  0  0  0  0  0
  -22.2755    8.8188  -15.1946 C   0  0  0  0  0  0  0  0  0  0  0  0
  -21.7192    7.1988  -15.5627 Cl  0  0  0  0  0  0  0  0  0  0  0  0
  -15.4858   12.0006  -23.0044 N   0  0  0  0  0  0  0  0  0  0  0  0
  -14.7251   11.3875  -23.4226 H   0  0  0  0  0  0  0  0  0  0  0  0
  -18.4211   15.8259  -24.2072 C   0  0  0  0  0  0  0  0  0  0  0  0
  -17.1327   15.0880  -24.2524 C   0  0  0  0  0  0  0  0  0  0  0  0
  -16.9576   13.8804  -23.5721 C   0  0  0  0  0  0  0  0  0  0  0  0
  -15.7721   13.2039  -23.6147 C   0  0  0  0  0  0  0  0  0  0  0  0
  -14.7792   13.8010  -24.3713 N   0  0  0  0  0  0  0  0  0  0  0  0
  -14.9482   14.9396  -25.0114 C   0  0  0  0  0  0  0  0  0  0  0  0
  -13.9065   15.5433  -25.7953 N   0  0  0  0  0  0  0  0  0  0  0  0
  -16.1113   15.5981  -24.9672 N   0  0  0  0  0  0  0  0  0  0  0  0
  -12.9935   15.7106  -25.3357 H   0  0  0  0  0  0  0  0  0  0  0  0
  -14.1101   15.7869  -26.7871 H   0  0  0  0  0  0  0  0  0  0  0  0
 24 25  1  0  0  0
 25 26  2  0  0  0
 26 27  1  0  0  0
 27 22  1  0  0  0
 22  1  1  0  0  0
  1  2  2  0  0  0
  2  3  1  0  0  0
  3  4  2  0  0  0
  4  5  1  0  0  0
  5  6  2  0  0  0
  6  7  1  0  0  0
  7  8  2  0  0  0
  8  9  1  0  0  0
  6 10  1  0  0  0
 10 11  2  0  0  0
 10 12  1  0  0  0
 12 14  1  0  0  0
 14 15  2  0  0  0
 15 16  1  0  0  0
 15 17  1  0  0  0
 17 18  2  0  0  0
 18 19  1  0  0  0
 19 20  2  0  0  0
 20 21  1  0  0  0
 27 28  2  0  0  0
 28 29  1  0  0  0
 29 30  1  0  0  0
 29 31  2  0  0  0
 31 25  1  0  0  0
  9  1  1  0  0  0
 20 14  1  0  0  0
  8  3  1  0  0  0
 22 23  1  0  0  0
 12 13  1  0  0  0
 30 32  1  0  0  0
 30 33  1  0  0  0
M  END
> <minimizedAffinity>
-8.88233

> <CNNscore>
0.6959887743

> <CNNaffinity>
7.1225519180

> <CNN_VS>
4.9572162628

> <CNNaffinity_variance>
0.1131570488

$$$$
[H]c1c(N([H])c2nc3c([H])c([H])c(C(=O)N([H])c4c(Cl)c([H])c([H])c([H])c4C([H])([H])[H])c([H])c3s2)nc(N([H])[H])nc1C([H])([H])[H]


 33 36  0  0  0  0  0  0  0  0999 V2000
  -16.6822   11.5953  -21.0915 C   0  0  0  0  0  0  0  0  0  0  0  0
  -17.5822   12.1920  -20.3219 N   0  0  0  0  0  0  0  0  0  0  0  0
  -18.0937   11.5869  -19.2983 C   0  0  0  0  0  0  0  0  0  0  0  0
  -19.0547   12.1282  -18.4081 C   0  0  0  0  0  0  0  0  0  0  0  0
  -19.4850   11.3625  -17.3745 C   0  0  0  0  0  0  0  0  0  0  0  0
  -19.0719   10.0944  -17.1047 C   0  0  0  0  0  0  0  0  0  0  0  0
  -18.1409    9.5587  -17.9627 C   0  0  0  0  0  0  0  0  0  0  0  0
  -17.6636   10.3023  -19.0429 C   0  0  0  0  0  0  0  0  0  0  0  0
  -16.5526   10.0814  -20.3147 S   0  0  0  0  0  0  0  0  0  0  0  0
  -19.5567    9.2960  -15.9499 C   0  0  0  0  0  0  0  0  0  0  0  0
  -19.5727    8.0347  -16.2044 O   0  0  0  0  0  0  0  0  0  0  0  0
  -19.9343    9.8255  -14.7742 N   0  0  0  0  0  0  0  0  0  0  0  0
  -20.1994    8.5917  -14.2649 H   0  0  0  0  0  0  0  0  0  0  0  0
  -20.3149   10.3572  -13.5896 C   0  0  0  0  0  0  0  0  0  0  0  0
  -21.2123   11.4318  -13.5501 C   0  0  0  0  0  0  0  0  0  0  0  0
  -21.7640   11.9661  -14.7951 C   0  0  0  0  0  0  0  0  0  0  0  0
  -21.5269   11.9246  -12.3010 C   0  0  0  0  0  0  0  0  0  0  0  0
  -20.9982   11.4015  -11.1517 C   0  0  0  0  0  0  0  0  0  0  0  0
  -20.1112   10.3408  -11.1820 C   0  0  0  0  0  0  0  0  0  0  0  0
  -19.7773    9.8277  -12.4002 C   0  0  0  0  0  0  0  0  0  0  0  0
  -18.6528    8.4850  -12.4497 Cl  0  0  0  0  0  0  0  0  0  0  0  0
  -16.0617   12.1893  -22.2094 N   0  0  0  0  0  0  0  0  0  0  0  0
  -15.0040   12.0945  -22.2493 H   0  0  0  0  0  0  0  0  0  0  0  0
  -18.6314   15.9719  -24.1549 C   0  0  0  0  0  0  0  0  0  0  0  0
  -17.9567   14.6517  -24.2460 C   0  0  0  0  0  0  0  0  0  0  0  0
  -17.3219   14.0774  -23.1420 C   0  0  0  0  0  0  0  0  0  0  0  0
  -16.7018   12.8636  -23.2282 C   0  0  0  0  0  0  0  0  0  0  0  0
  -16.7529   12.2624  -24.4735 N   0  0  0  0  0  0  0  0  0  0  0  0
  -17.3526   12.8070  -25.5119 C   0  0  0  0  0  0  0  0  0  0  0  0
  -17.3985   12.1663  -26.7971 N   0  0  0  0  0  0  0  0  0  0  0  0
  -17.9591   13.9955  -25.4224 N   0  0  0  0  0  0  0  0  0  0  0  0
  -16.5003   11.8729  -27.2212 H   0  0  0  0  0  0  0  0  0  0  0  0
  -18.3266   12.0239  -27.2473 H   0  0  0  0  0  0  0  0  0  0  0  0
 24 25  1  0  0  0
 25 26  2  0  0  0
 26 27  1  0  0  0
 27 22  1  0  0  0
 22  1  1  0  0  0
  1  2  2  0  0  0
  2  3  1  0  0  0
  3  4  2  0  0  0
  4  5  1  0  0  0
  5  6  2  0  0  0
  6  7  1  0  0  0
  7  8  2  0  0  0
  8  9  1  0  0  0
  6 10  1  0  0  0
 10 11  2  0  0  0
 10 12  1  0  0  0
 12 14  1  0  0  0
 14 15  2  0  0  0
 15 16  1  0  0  0
 15 17  1  0  0  0
 17 18  2  0  0  0
 18 19  1  0  0  0
 19 20  2  0  0  0
 20 21  1  0  0  0
 27 28  2  0  0  0
 28 29  1  0  0  0
 29 30  1  0  0  0
 29 31  2  0  0  0
 31 25  1  0  0  0
  9  1  1  0  0  0
 20 14  1  0  0  0
  8  3  1  0  0  0
 22 23  1  0  0  0
 12 13  1  0  0  0
 30 32  1  0  0  0
 30 33  1  0  0  0
M  END
> <minimizedAffinity>
-9.21110

> <CNNscore>
0.6391297579

> <CNNaffinity>
6.9630026817

> <CNN_VS>
4.4502620697

> <CNNaffinity_variance>
0.1087420359

$$$$
[H]c1c(N([H])c2nc3c([H])c([H])c(C(=O)N([H])c4c(Cl)c([H])c([H])c([H])c4C([H])([H])[H])c([H])c3s2)nc(N([H])[H])nc1C([H])([H])[H]


 33 36  0  0  0  0  0  0  0  0999 V2000
  -18.1124   10.0321  -17.9779 C   0  0  0  0  0  0  0  0  0  0  0  0
  -17.3971   10.0638  -19.0940 N   0  0  0  0  0  0  0  0  0  0  0  0
  -17.4905   11.0557  -19.9204 C   0  0  0  0  0  0  0  0  0  0  0  0
  -16.7729   11.1955  -21.1348 C   0  0  0  0  0  0  0  0  0  0  0  0
  -16.9808   12.3049  -21.8868 C   0  0  0  0  0  0  0  0  0  0  0  0
  -17.8327   13.3204  -21.5788 C   0  0  0  0  0  0  0  0  0  0  0  0
  -18.5352   13.1945  -20.4038 C   0  0  0  0  0  0  0  0  0  0  0  0
  -18.3602   12.0733  -19.5914 C   0  0  0  0  0  0  0  0  0  0  0  0
  -18.9710   11.5011  -18.1082 S   0  0  0  0  0  0  0  0  0  0  0  0
  -18.0177   14.5280  -22.4235 C   0  0  0  0  0  0  0  0  0  0  0  0
  -18.6964   15.4413  -21.8225 O   0  0  0  0  0  0  0  0  0  0  0  0
  -17.5330   14.6561  -23.6700 N   0  0  0  0  0  0  0  0  0  0  0  0
  -18.0374   15.9159  -23.7732 H   0  0  0  0  0  0  0  0  0  0  0  0
  -17.0457   14.7868  -24.9256 C   0  0  0  0  0  0  0  0  0  0  0  0
  -16.3339   15.9353  -25.2942 C   0  0  0  0  0  0  0  0  0  0  0  0
  -16.0910   16.9891  -24.3091 C   0  0  0  0  0  0  0  0  0  0  0  0
  -15.8938   15.9934  -26.6000 C   0  0  0  0  0  0  0  0  0  0  0  0
  -16.1323   14.9894  -27.4995 C   0  0  0  0  0  0  0  0  0  0  0  0
  -16.8346   13.8524  -27.1437 C   0  0  0  0  0  0  0  0  0  0  0  0
  -17.2851   13.7606  -25.8602 C   0  0  0  0  0  0  0  0  0  0  0  0
  -18.1776   12.3249  -25.3999 Cl  0  0  0  0  0  0  0  0  0  0  0  0
  -18.0547    9.0025  -17.0165 N   0  0  0  0  0  0  0  0  0  0  0  0
  -17.1728    8.4098  -17.0339 H   0  0  0  0  0  0  0  0  0  0  0  0
  -20.6004    9.7750  -12.8191 C   0  0  0  0  0  0  0  0  0  0  0  0
  -20.2997    9.0103  -14.0565 C   0  0  0  0  0  0  0  0  0  0  0  0
  -19.2994    9.4174  -14.9427 C   0  0  0  0  0  0  0  0  0  0  0  0
  -19.0249    8.7130  -16.0800 C   0  0  0  0  0  0  0  0  0  0  0  0
  -19.8034    7.5862  -16.2782 N   0  0  0  0  0  0  0  0  0  0  0  0
  -20.7454    7.2055  -15.4401 C   0  0  0  0  0  0  0  0  0  0  0  0
  -21.5421    6.0303  -15.6607 N   0  0  0  0  0  0  0  0  0  0  0  0
  -21.0101    7.8983  -14.3273 N   0  0  0  0  0  0  0  0  0  0  0  0
  -22.0398    5.9488  -16.5652 H   0  0  0  0  0  0  0  0  0  0  0  0
  -21.5866    5.3130  -14.9071 H   0  0  0  0  0  0  0  0  0  0  0  0
 24 25  1  0  0  0
 25 26  2  0  0  0
 26 27  1  0  0  0
 27 22  1  0  0  0
 22  1  1  0  0  0
  1  2  2  0  0  0
  2  3  1  0  0  0
  3  4  2  0  0  0
  4  5  1  0  0  0
  5  6  2  0  0  0
  6  7  1  0  0  0
  7  8  2  0  0  0
  8  9  1  0  0  0
  6 10  1  0  0  0
 10 11  2  0  0  0
 10 12  1  0  0  0
 12 14  1  0  0  0
 14 15  2  0  0  0
 15 16  1  0  0  0
 15 17  1  0  0  0
 17 18  2  0  0  0
 18 19  1  0  0  0
 19 20  2  0  0  0
 20 21  1  0  0  0
 27 28  2  0  0  0
 28 29  1  0  0  0
 29 30  1  0  0  0
 29 31  2  0  0  0
 31 25  1  0  0  0
  9  1  1  0  0  0
 20 14  1  0  0  0
  8  3  1  0  0  0
 22 23  1  0  0  0
 12 13  1  0  0  0
 30 32  1  0  0  0
 30 33  1  0  0  0
M  END
> <minimizedAffinity>
-9.65199

> <CNNscore>
0.6300379038

> <CNNaffinity>
7.1243081093

> <CNN_VS>
4.4885840416

> <CNNaffinity_variance>
0.2291713953

$$$$
[H]c1c(N([H])c2nc3c([H])c([H])c(C(=O)N([H])c4c(Cl)c([H])c([H])c([H])c4C([H])([H])[H])c([H])c3s2)nc(N([H])[H])nc1C([H])([H])[H]


 33 36  0  0  0  0  0  0  0  0999 V2000
  -18.0682    9.9627  -18.0163 C   0  0  0  0  0  0  0  0  0  0  0  0
  -17.3430    9.9998  -19.1258 N   0  0  0  0  0  0  0  0  0  0  0  0
  -17.4225   10.9998  -19.9438 C   0  0  0  0  0  0  0  0  0  0  0  0
  -16.6934   11.1458  -21.1505 C   0  0  0  0  0  0  0  0  0  0  0  0
  -16.8871   12.2636  -21.8940 C   0  0  0  0  0  0  0  0  0  0  0  0
  -17.7347   13.2820  -21.5840 C   0  0  0  0  0  0  0  0  0  0  0  0
  -18.4482   13.1501  -20.4163 C   0  0  0  0  0  0  0  0  0  0  0  0
  -18.2880   12.0204  -19.6129 C   0  0  0  0  0  0  0  0  0  0  0  0
  -18.9156   11.4387  -18.1404 S   0  0  0  0  0  0  0  0  0  0  0  0
  -17.9040   14.4987  -22.4189 C   0  0  0  0  0  0  0  0  0  0  0  0
  -18.4809   15.4523  -21.7758 O   0  0  0  0  0  0  0  0  0  0  0  0
  -17.5017   14.5963  -23.6972 N   0  0  0  0  0  0  0  0  0  0  0  0
  -17.9334   15.8849  -23.7702 H   0  0  0  0  0  0  0  0  0  0  0  0
  -17.0972   14.6963  -24.9845 C   0  0  0  0  0  0  0  0  0  0  0  0
  -17.2931   13.6324  -25.8742 C   0  0  0  0  0  0  0  0  0  0  0  0
  -17.9640   12.4154  -25.4177 C   0  0  0  0  0  0  0  0  0  0  0  0
  -16.8294   13.8131  -27.1605 C   0  0  0  0  0  0  0  0  0  0  0  0
  -16.2085   14.9656  -27.5610 C   0  0  0  0  0  0  0  0  0  0  0  0
  -16.0108   16.0205  -26.6887 C   0  0  0  0  0  0  0  0  0  0  0  0
  -16.4568   15.8771  -25.4084 C   0  0  0  0  0  0  0  0  0  0  0  0
  -16.2095   17.2070  -24.2949 Cl  0  0  0  0  0  0  0  0  0  0  0  0
  -18.0259    8.9239  -17.0641 N   0  0  0  0  0  0  0  0  0  0  0  0
  -17.2148    8.2447  -17.1643 H   0  0  0  0  0  0  0  0  0  0  0  0
  -22.3697    7.4639  -15.1416 C   0  0  0  0  0  0  0  0  0  0  0  0
  -21.0109    8.0537  -15.0307 C   0  0  0  0  0  0  0  0  0  0  0  0
  -20.1774    8.1840  -16.1442 C   0  0  0  0  0  0  0  0  0  0  0  0
  -18.9283    8.7262  -16.0399 C   0  0  0  0  0  0  0  0  0  0  0  0
  -18.5639    9.1272  -14.7666 N   0  0  0  0  0  0  0  0  0  0  0  0
  -19.3528    9.0029  -13.7193 C   0  0  0  0  0  0  0  0  0  0  0  0
  -18.9586    9.4281  -12.4047 N   0  0  0  0  0  0  0  0  0  0  0  0
  -20.5754    8.4719  -13.8266 N   0  0  0  0  0  0  0  0  0  0  0  0
  -18.0692    9.0574  -12.0252 H   0  0  0  0  0  0  0  0  0  0  0  0
  -19.5791   10.0873  -11.8900 H   0  0  0  0  0  0  0  0  0  0  0  0
 24 25  1  0  0  0
 25 26  2  0  0  0
 26 27  1  0  0  0
 27 22  1  0  0  0
 22  1  1  0  0  0
  1  2  2  0  0  0
  2  3  1  0  0  0
  3  4  2  0  0  0
  4  5  1  0  0  0
  5  6  2  0  0  0
  6  7  1  0  0  0
  7  8  2  0  0  0
  8  9  1  0  0  0
  6 10  1  0  0  0
 10 11  2  0  0  0
 10 12  1  0  0  0
 12 14  1  0  0  0
 14 15  2  0  0  0
 15 16  1  0  0  0
 15 17  1  0  0  0
 17 18  2  0  0  0
 18 19  1  0  0  0
 19 20  2  0  0  0
 20 21  1  0  0  0
 27 28  2  0  0  0
 28 29  1  0  0  0
 29 30  1  0  0  0
 29 31  2  0  0  0
 31 25  1  0  0  0
  9  1  1  0  0  0
 20 14  1  0  0  0
  8  3  1  0  0  0
 22 23  1  0  0  0
 12 13  1  0  0  0
 30 32  1  0  0  0
 30 33  1  0  0  0
M  END
> <minimizedAffinity>
-9.83042

> <CNNscore>
0.6108072400

> <CNNaffinity>
7.0730109215

> <CNN_VS>
4.3202462196

> <CNNaffinity_variance>
0.3112915158

$$$$
[H]c1c(N([H])c2nc3c([H])c([H])c(C(=O)N([H])c4c(Cl)c([H])c([H])c([H])c4C([H])([H])[H])c([H])c3s2)nc(N([H])[H])nc1C([H])([H])[H]


 33 36  0  0  0  0  0  0  0  0999 V2000
  -16.7620   12.1955  -21.7149 C   0  0  0  0  0  0  0  0  0  0  0  0
  -17.7021   12.6694  -20.9087 N   0  0  0  0  0  0  0  0  0  0  0  0
  -18.0841   12.0068  -19.8644 C   0  0  0  0  0  0  0  0  0  0  0  0
  -19.0722   12.4183  -18.9351 C   0  0  0  0  0  0  0  0  0  0  0  0
  -19.3516   11.6077  -17.8842 C   0  0  0  0  0  0  0  0  0  0  0  0
  -18.7595   10.4089  -17.6312 C   0  0  0  0  0  0  0  0  0  0  0  0
  -17.8006    9.9991  -18.5272 C   0  0  0  0  0  0  0  0  0  0  0  0
  -17.4736   10.7939  -19.6266 C   0  0  0  0  0  0  0  0  0  0  0  0
  -16.3964   10.7179  -20.9436 S   0  0  0  0  0  0  0  0  0  0  0  0
  -19.0834    9.5592  -16.4569 C   0  0  0  0  0  0  0  0  0  0  0  0
  -18.7694    8.3261  -16.6486 O   0  0  0  0  0  0  0  0  0  0  0  0
  -19.6387   10.0210  -15.3239 N   0  0  0  0  0  0  0  0  0  0  0  0
  -19.6094    8.7810  -14.7639 H   0  0  0  0  0  0  0  0  0  0  0  0
  -20.1978   10.4845  -14.1822 C   0  0  0  0  0  0  0  0  0  0  0  0
  -21.1000   11.5553  -14.2182 C   0  0  0  0  0  0  0  0  0  0  0  0
  -21.4625   12.1595  -15.5001 C   0  0  0  0  0  0  0  0  0  0  0  0
  -21.6033   11.9763  -13.0051 C   0  0  0  0  0  0  0  0  0  0  0  0
  -21.2492   11.3885  -11.8205 C   0  0  0  0  0  0  0  0  0  0  0  0
  -20.3588   10.3312  -11.7763 C   0  0  0  0  0  0  0  0  0  0  0  0
  -19.8409    9.8882  -12.9571 C   0  0  0  0  0  0  0  0  0  0  0  0
  -18.7105    8.5504  -12.9118 Cl  0  0  0  0  0  0  0  0  0  0  0  0
  -16.2746   12.8613  -22.8580 N   0  0  0  0  0  0  0  0  0  0  0  0
  -16.0315   12.2362  -23.6823 H   0  0  0  0  0  0  0  0  0  0  0  0
  -16.6485   17.5899  -21.3759 C   0  0  0  0  0  0  0  0  0  0  0  0
  -16.2467   16.5411  -22.3480 C   0  0  0  0  0  0  0  0  0  0  0  0
  -16.4656   15.1852  -22.0928 C   0  0  0  0  0  0  0  0  0  0  0  0
  -16.0951   14.2226  -22.9879 C   0  0  0  0  0  0  0  0  0  0  0  0
  -15.4970   14.6915  -24.1444 N   0  0  0  0  0  0  0  0  0  0  0  0
  -15.2926   15.9708  -24.3814 C   0  0  0  0  0  0  0  0  0  0  0  0
  -14.6728   16.4397  -25.5898 N   0  0  0  0  0  0  0  0  0  0  0  0
  -15.6578   16.9098  -23.5021 N   0  0  0  0  0  0  0  0  0  0  0  0
  -13.7499   16.0437  -25.8427 H   0  0  0  0  0  0  0  0  0  0  0  0
  -15.1731   17.1542  -26.1587 H   0  0  0  0  0  0  0  0  0  0  0  0
 24 25  1  0  0  0
 25 26  2  0  0  0
 26 27  1  0  0  0
 27 22  1  0  0  0
 22  1  1  0  0  0
  1  2  2  0  0  0
  2  3  1  0  0  0
  3  4  2  0  0  0
  4  5  1  0  0  0
  5  6  2  0  0  0
  6  7  1  0  0  0
  7  8  2  0  0  0
  8  9  1  0  0  0
  6 10  1  0  0  0
 10 11  2  0  0  0
 10 12  1  0  0  0
 12 14  1  0  0  0
 14 15  2  0  0  0
 15 16  1  0  0  0
 15 17  1  0  0  0
 17 18  2  0  0  0
 18 19  1  0  0  0
 19 20  2  0  0  0
 20 21  1  0  0  0
 27 28  2  0  0  0
 28 29  1  0  0  0
 29 30  1  0  0  0
 29 31  2  0  0  0
 31 25  1  0  0  0
  9  1  1  0  0  0
 20 14  1  0  0  0
  8  3  1  0  0  0
 22 23  1  0  0  0
 12 13  1  0  0  0
 30 32  1  0  0  0
 30 33  1  0  0  0
M  END
> <minimizedAffinity>
-9.07954

> <CNNscore>
0.5744117498

> <CNNaffinity>
6.9402112961

> <CNN_VS>
3.9865388870

> <CNNaffinity_variance>
0.0858184323

$$$$
[H]c1c(N([H])c2nc3c([H])c([H])c(C(=O)N([H])c4c(Cl)c([H])c([H])c([H])c4C([H])([H])[H])c([H])c3s2)nc(N([H])[H])nc1C([H])([H])[H]


 33 36  0  0  0  0  0  0  0  0999 V2000
  -18.0889   10.0368  -18.0194 C   0  0  0  0  0  0  0  0  0  0  0  0
  -17.3573   10.0557  -19.1252 N   0  0  0  0  0  0  0  0  0  0  0  0
  -17.4289   11.0443  -19.9577 C   0  0  0  0  0  0  0  0  0  0  0  0
  -16.6926   11.1709  -21.1623 C   0  0  0  0  0  0  0  0  0  0  0  0
  -16.8785   12.2786  -21.9226 C   0  0  0  0  0  0  0  0  0  0  0  0
  -17.7244   13.3041  -21.6318 C   0  0  0  0  0  0  0  0  0  0  0  0
  -18.4448   13.1911  -20.4665 C   0  0  0  0  0  0  0  0  0  0  0  0
  -18.2929   12.0723  -19.6462 C   0  0  0  0  0  0  0  0  0  0  0  0
  -18.9306   11.5136  -18.1692 S   0  0  0  0  0  0  0  0  0  0  0  0
  -17.8850   14.5093  -22.4848 C   0  0  0  0  0  0  0  0  0  0  0  0
  -18.4537   15.4771  -21.8556 O   0  0  0  0  0  0  0  0  0  0  0  0
  -17.4833   14.5845  -23.7648 N   0  0  0  0  0  0  0  0  0  0  0  0
  -17.9049   15.8752  -23.8568 H   0  0  0  0  0  0  0  0  0  0  0  0
  -17.0794   14.6619  -25.0539 C   0  0  0  0  0  0  0  0  0  0  0  0
  -17.2983   13.5923  -25.9312 C   0  0  0  0  0  0  0  0  0  0  0  0
  -17.9927   12.3942  -25.4599 C   0  0  0  0  0  0  0  0  0  0  0  0
  -16.8335   13.7492  -27.2202 C   0  0  0  0  0  0  0  0  0  0  0  0
  -16.1905   14.8844  -27.6348 C   0  0  0  0  0  0  0  0  0  0  0  0
  -15.9699   15.9448  -26.7747 C   0  0  0  0  0  0  0  0  0  0  0  0
  -16.4162   15.8247  -25.4921 C   0  0  0  0  0  0  0  0  0  0  0  0
  -16.1400   17.1618  -24.3940 Cl  0  0  0  0  0  0  0  0  0  0  0  0
  -18.0553    9.0114  -17.0524 N   0  0  0  0  0  0  0  0  0  0  0  0
  -17.1878    8.3979  -17.0665 H   0  0  0  0  0  0  0  0  0  0  0  0
  -20.7493   10.0041  -12.9961 C   0  0  0  0  0  0  0  0  0  0  0  0
  -20.3739    9.1513  -14.1529 C   0  0  0  0  0  0  0  0  0  0  0  0
  -19.3752    9.5357  -15.0510 C   0  0  0  0  0  0  0  0  0  0  0  0
  -19.0319    8.7502  -16.1141 C   0  0  0  0  0  0  0  0  0  0  0  0
  -19.7404    7.5668  -16.2262 N   0  0  0  0  0  0  0  0  0  0  0  0
  -20.6812    7.2078  -15.3772 C   0  0  0  0  0  0  0  0  0  0  0  0
  -21.4045    5.9733  -15.5075 N   0  0  0  0  0  0  0  0  0  0  0  0
  -21.0134    7.9801  -14.3372 N   0  0  0  0  0  0  0  0  0  0  0  0
  -21.8730    5.7827  -16.4113 H   0  0  0  0  0  0  0  0  0  0  0  0
  -21.4284    5.3243  -14.6934 H   0  0  0  0  0  0  0  0  0  0  0  0
 24 25  1  0  0  0
 25 26  2  0  0  0
 26 27  1  0  0  0
 27 22  1  0  0  0
 22  1  1  0  0  0
  1  2  2  0  0  0
  2  3  1  0  0  0
  3  4  2  0  0  0
  4  5  1  0  0  0
  5  6  2  0  0  0
  6  7  1  0  0  0
  7  8  2  0  0  0
  8  9  1  0  0  0
  6 10  1  0  0  0
 10 11  2  0  0  0
 10 12  1  0  0  0
 12 14  1  0  0  0
 14 15  2  0  0  0
 15 16  1  0  0  0
 15 17  1  0  0  0
 17 18  2  0  0  0
 18 19  1  0  0  0
 19 20  2  0  0  0
 20 21  1  0  0  0
 27 28  2  0  0  0
 28 29  1  0  0  0
 29 30  1  0  0  0
 29 31  2  0  0  0
 31 25  1  0  0  0
  9  1  1  0  0  0
 20 14  1  0  0  0
  8  3  1  0  0  0
 22 23  1  0  0  0
 12 13  1  0  0  0
 30 32  1  0  0  0
 30 33  1  0  0  0
M  END
> <minimizedAffinity>
-9.80843

> <CNNscore>
0.5499191284

> <CNNaffinity>
7.0237922668

> <CNN_VS>
3.8625178337

> <CNNaffinity_variance>
0.2727919221

$$$$
[H]c1c(N([H])c2nc3c([H])c([H])c(C(=O)N([H])c4c(Cl)c([H])c([H])c([H])c4C([H])([H])[H])c([H])c3s2)nc(N([H])[H])nc1C([H])([H])[H]


 33 36  0  0  0  0  0  0  0  0999 V2000
  -19.5161   12.0723  -17.8730 C   0  0  0  0  0  0  0  0  0  0  0  0
  -19.1803   10.7968  -17.7365 N   0  0  0  0  0  0  0  0  0  0  0  0
  -19.3138   10.1877  -16.6022 C   0  0  0  0  0  0  0  0  0  0  0  0
  -18.9931    8.8312  -16.3450 C   0  0  0  0  0  0  0  0  0  0  0  0
  -19.2007    8.3411  -15.0975 C   0  0  0  0  0  0  0  0  0  0  0  0
  -19.6994    9.0444  -14.0447 C   0  0  0  0  0  0  0  0  0  0  0  0
  -20.0125   10.3618  -14.2825 C   0  0  0  0  0  0  0  0  0  0  0  0
  -19.8189   10.9179  -15.5477 C   0  0  0  0  0  0  0  0  0  0  0  0
  -20.0553   12.4304  -16.2941 S   0  0  0  0  0  0  0  0  0  0  0  0
  -19.9276    8.4633  -12.6971 C   0  0  0  0  0  0  0  0  0  0  0  0
  -21.1533    8.1132  -12.5206 O   0  0  0  0  0  0  0  0  0  0  0  0
  -18.9681    8.3171  -11.7680 N   0  0  0  0  0  0  0  0  0  0  0  0
  -19.8483    7.7496  -10.8990 H   0  0  0  0  0  0  0  0  0  0  0  0
  -18.0029    8.1693  -10.8313 C   0  0  0  0  0  0  0  0  0  0  0  0
  -17.3402    6.9443  -10.6829 C   0  0  0  0  0  0  0  0  0  0  0  0
  -17.6729    5.8249  -11.5637 C   0  0  0  0  0  0  0  0  0  0  0  0
  -16.3870    6.8774   -9.6883 C   0  0  0  0  0  0  0  0  0  0  0  0
  -16.0932    7.9434   -8.8812 C   0  0  0  0  0  0  0  0  0  0  0  0
  -16.7432    9.1561   -9.0209 C   0  0  0  0  0  0  0  0  0  0  0  0
  -17.6921    9.2588   -9.9945 C   0  0  0  0  0  0  0  0  0  0  0  0
  -18.5228   10.7905  -10.1784 Cl  0  0  0  0  0  0  0  0  0  0  0  0
  -19.4223   12.8027  -19.0753 N   0  0  0  0  0  0  0  0  0  0  0  0
  -20.1352   13.5819  -19.1936 H   0  0  0  0  0  0  0  0  0  0  0  0
  -17.1525   13.8753  -23.3640 C   0  0  0  0  0  0  0  0  0  0  0  0
  -17.3590   13.0361  -22.1558 C   0  0  0  0  0  0  0  0  0  0  0  0
  -18.3147   13.3655  -21.1916 C   0  0  0  0  0  0  0  0  0  0  0  0
  -18.5027   12.5926  -20.0814 C   0  0  0  0  0  0  0  0  0  0  0  0
  -17.6850   11.4798  -19.9922 N   0  0  0  0  0  0  0  0  0  0  0  0
  -16.7852   11.1726  -20.9036 C   0  0  0  0  0  0  0  0  0  0  0  0
  -15.9470   10.0107  -20.7959 N   0  0  0  0  0  0  0  0  0  0  0  0
  -16.6053   11.9321  -21.9894 N   0  0  0  0  0  0  0  0  0  0  0  0
  -15.3942    9.8945  -19.9278 H   0  0  0  0  0  0  0  0  0  0  0  0
  -15.9290    9.3369  -21.5897 H   0  0  0  0  0  0  0  0  0  0  0  0
 24 25  1  0  0  0
 25 26  2  0  0  0
 26 27  1  0  0  0
 27 22  1  0  0  0
 22  1  1  0  0  0
  1  2  2  0  0  0
  2  3  1  0  0  0
  3  4  2  0  0  0
  4  5  1  0  0  0
  5  6  2  0  0  0
  6  7  1  0  0  0
  7  8  2  0  0  0
  8  9  1  0  0  0
  6 10  1  0  0  0
 10 11  2  0  0  0
 10 12  1  0  0  0
 12 14  1  0  0  0
 14 15  2  0  0  0
 15 16  1  0  0  0
 15 17  1  0  0  0
 17 18  2  0  0  0
 18 19  1  0  0  0
 19 20  2  0  0  0
 20 21  1  0  0  0
 27 28  2  0  0  0
 28 29  1  0  0  0
 29 30  1  0  0  0
 29 31  2  0  0  0
 31 25  1  0  0  0
  9  1  1  0  0  0
 20 14  1  0  0  0
  8  3  1  0  0  0
 22 23  1  0  0  0
 12 13  1  0  0  0
 30 32  1  0  0  0
 30 33  1  0  0  0
M  END
> <minimizedAffinity>
-8.49428

> <CNNscore>
0.4731346667

> <CNNaffinity>
6.5221138000

> <CNN_VS>
3.0858380795

> <CNNaffinity_variance>
0.4180459082

$$$$
[H]c1c(N([H])c2nc3c([H])c([H])c(C(=O)N([H])c4c(Cl)c([H])c([H])c([H])c4C([H])([H])[H])c([H])c3s2)nc(N([H])[H])nc1C([H])([H])[H]


 33 36  0  0  0  0  0  0  0  0999 V2000
  -16.7600   12.2368  -21.8181 C   0  0  0  0  0  0  0  0  0  0  0  0
  -16.6776   11.2303  -20.9588 N   0  0  0  0  0  0  0  0  0  0  0  0
  -17.4411   11.1779  -19.9149 C   0  0  0  0  0  0  0  0  0  0  0  0
  -17.4424   10.1514  -18.9373 C   0  0  0  0  0  0  0  0  0  0  0  0
  -18.3151   10.2420  -17.9031 C   0  0  0  0  0  0  0  0  0  0  0  0
  -19.2108   11.2481  -17.7104 C   0  0  0  0  0  0  0  0  0  0  0  0
  -19.2172   12.2500  -18.6517 C   0  0  0  0  0  0  0  0  0  0  0  0
  -18.3403   12.2074  -19.7365 C   0  0  0  0  0  0  0  0  0  0  0  0
  -17.9982   13.1669  -21.1013 S   0  0  0  0  0  0  0  0  0  0  0  0
  -20.1624   11.2998  -16.5711 C   0  0  0  0  0  0  0  0  0  0  0  0
  -20.2420   10.1735  -15.9538 O   0  0  0  0  0  0  0  0  0  0  0  0
  -20.8597   12.3939  -16.2219 N   0  0  0  0  0  0  0  0  0  0  0  0
  -21.4345   11.7360  -15.1784 H   0  0  0  0  0  0  0  0  0  0  0  0
  -21.5627   13.4948  -15.8689 C   0  0  0  0  0  0  0  0  0  0  0  0
  -21.7754   14.5267  -16.7918 C   0  0  0  0  0  0  0  0  0  0  0  0
  -21.2586   14.4028  -18.1546 C   0  0  0  0  0  0  0  0  0  0  0  0
  -22.4830   15.6205  -16.3390 C   0  0  0  0  0  0  0  0  0  0  0  0
  -22.9587   15.7072  -15.0582 C   0  0  0  0  0  0  0  0  0  0  0  0
  -22.7527   14.6930  -14.1408 C   0  0  0  0  0  0  0  0  0  0  0  0
  -22.0568   13.5957  -14.5537 C   0  0  0  0  0  0  0  0  0  0  0  0
  -21.7888   12.3061  -13.3985 Cl  0  0  0  0  0  0  0  0  0  0  0  0
  -15.9825   12.3592  -22.9878 N   0  0  0  0  0  0  0  0  0  0  0  0
  -15.2088   11.6394  -23.0998 H   0  0  0  0  0  0  0  0  0  0  0  0
  -15.9602   16.9938  -24.7812 C   0  0  0  0  0  0  0  0  0  0  0  0
  -16.1682   15.5292  -24.9162 C   0  0  0  0  0  0  0  0  0  0  0  0
  -15.9520   14.6583  -23.8454 C   0  0  0  0  0  0  0  0  0  0  0  0
  -16.1435   13.3121  -23.9719 C   0  0  0  0  0  0  0  0  0  0  0  0
  -16.5604   12.8905  -25.2222 N   0  0  0  0  0  0  0  0  0  0  0  0
  -16.7634   13.7148  -26.2293 C   0  0  0  0  0  0  0  0  0  0  0  0
  -17.1996   13.2593  -27.5202 N   0  0  0  0  0  0  0  0  0  0  0  0
  -16.5752   15.0325  -26.1004 N   0  0  0  0  0  0  0  0  0  0  0  0
  -16.6432   12.5182  -27.9826 H   0  0  0  0  0  0  0  0  0  0  0  0
  -18.0517   13.6899  -27.9360 H   0  0  0  0  0  0  0  0  0  0  0  0
 24 25  1  0  0  0
 25 26  2  0  0  0
 26 27  1  0  0  0
 27 22  1  0  0  0
 22  1  1  0  0  0
  1  2  2  0  0  0
  2  3  1  0  0  0
  3  4  2  0  0  0
  4  5  1  0  0  0
  5  6  2  0  0  0
  6  7  1  0  0  0
  7  8  2  0  0  0
  8  9  1  0  0  0
  6 10  1  0  0  0
 10 11  2  0  0  0
 10 12  1  0  0  0
 12 14  1  0  0  0
 14 15  2  0  0  0
 15 16  1  0  0  0
 15 17  1  0  0  0
 17 18  2  0  0  0
 18 19  1  0  0  0
 19 20  2  0  0  0
 20 21  1  0  0  0
 27 28  2  0  0  0
 28 29  1  0  0  0
 29 30  1  0  0  0
 29 31  2  0  0  0
 31 25  1  0  0  0
  9  1  1  0  0  0
 20 14  1  0  0  0
  8  3  1  0  0  0
 22 23  1  0  0  0
 12 13  1  0  0  0
 30 32  1  0  0  0
 30 33  1  0  0  0
M  END
> <minimizedAffinity>
-8.52657

> <CNNscore>
0.4340956807

> <CNNaffinity>
6.8843398094

> <CNN_VS>
2.9884622097

> <CNNaffinity_variance>
0.1456708610

$$$$
[H]c1c([H])c(Cl)c(N([H])C(=O)c2c([H])c([H])c3nc(N([H])C(=O)C4([H])C([H])([H])C4([H])[H])sc3c2[H])c(C([H])([H])[H])c1[H]


 28 31  0  0  0  0  0  0  0  0999 V2000
  -17.9048   13.4629  -21.9659 C   0  0  0  0  0  0  0  0  0  0  0  0
  -18.6227   14.0190  -20.9355 C   0  0  0  0  0  0  0  0  0  0  0  0
  -18.8511   13.4066  -19.7336 C   0  0  0  0  0  0  0  0  0  0  0  0
  -18.3360   12.1226  -19.4929 C   0  0  0  0  0  0  0  0  0  0  0  0
  -18.4800   11.4317  -18.3972 N   0  0  0  0  0  0  0  0  0  0  0  0
  -17.9547   10.2413  -18.2837 C   0  0  0  0  0  0  0  0  0  0  0  0
  -17.1923   10.0390  -19.8081 S   0  0  0  0  0  0  0  0  0  0  0  0
  -17.6159   11.5463  -20.5061 C   0  0  0  0  0  0  0  0  0  0  0  0
  -17.3933   12.1898  -21.7293 C   0  0  0  0  0  0  0  0  0  0  0  0
  -16.6321   13.6016  -24.1031 N   0  0  0  0  0  0  0  0  0  0  0  0
  -17.6490   14.0867  -23.2435 C   0  0  0  0  0  0  0  0  0  0  0  0
  -18.3180   15.0680  -23.6200 O   0  0  0  0  0  0  0  0  0  0  0  0
  -16.0188   12.7849  -23.8758 H   0  0  0  0  0  0  0  0  0  0  0  0
  -17.6111   12.3827  -26.4931 C   0  0  0  0  0  0  0  0  0  0  0  0
  -16.8294   13.6398  -26.5358 C   0  0  0  0  0  0  0  0  0  0  0  0
  -16.5976   14.1927  -27.7841 C   0  0  0  0  0  0  0  0  0  0  0  0
  -15.8808   15.3543  -27.8847 C   0  0  0  0  0  0  0  0  0  0  0  0
  -15.4045   15.9488  -26.7317 C   0  0  0  0  0  0  0  0  0  0  0  0
  -15.6467   15.3785  -25.4767 C   0  0  0  0  0  0  0  0  0  0  0  0
  -15.0482   16.1255  -24.0298 Cl  0  0  0  0  0  0  0  0  0  0  0  0
  -16.3678   14.2087  -25.3695 C   0  0  0  0  0  0  0  0  0  0  0  0
  -17.9900    9.3133  -17.1747 N   0  0  0  0  0  0  0  0  0  0  0  0
  -19.1067    9.1917  -16.3402 C   0  0  0  0  0  0  0  0  0  0  0  0
  -20.1138    9.8989  -16.5443 O   0  0  0  0  0  0  0  0  0  0  0  0
  -17.1400    8.7244  -17.0119 H   0  0  0  0  0  0  0  0  0  0  0  0
  -19.1074    8.2367  -15.2211 C   0  0  0  0  0  0  0  0  0  0  0  0
  -20.1838    8.3534  -14.2051 C   0  0  0  0  0  0  0  0  0  0  0  0
  -20.1983    7.2023  -15.1431 C   0  0  0  0  0  0  0  0  0  0  0  0
 14 15  1  0  0  0
 15 16  2  0  0  0
 16 17  1  0  0  0
 17 18  2  0  0  0
 18 19  1  0  0  0
 19 20  1  0  0  0
 19 21  2  0  0  0
 21 10  1  0  0  0
 10 11  1  0  0  0
 11 12  2  0  0  0
 11  1  1  0  0  0
  1  2  2  0  0  0
  2  3  1  0  0  0
  3  4  2  0  0  0
  4  5  1  0  0  0
  5  6  2  0  0  0
  6 22  1  0  0  0
 22 23  1  0  0  0
 23 24  2  0  0  0
 23 26  1  0  0  0
 26 27  1  0  0  0
 27 28  1  0  0  0
  6  7  1  0  0  0
  7  8  1  0  0  0
  8  9  2  0  0  0
 21 15  1  0  0  0
  9  1  1  0  0  0
  8  4  1  0  0  0
 28 26  1  0  0  0
 10 13  1  0  0  0
 22 25  1  0  0  0
M  END
> <minimizedAffinity>
-9.01869

> <CNNscore>
0.8592808843

> <CNNaffinity>
6.9018096924

> <CNN_VS>
5.9305930138

> <CNNaffinity_variance>
0.1080925465

$$$$
[H]c1c([H])c(Cl)c(N([H])C(=O)c2c([H])c([H])c3nc(N([H])C(=O)C4([H])C([H])([H])C4([H])[H])sc3c2[H])c(C([H])([H])[H])c1[H]


 28 31  0  0  0  0  0  0  0  0999 V2000
  -16.5667   11.9009  -21.7574 C   0  0  0  0  0  0  0  0  0  0  0  0
  -16.0235   10.7254  -21.2997 C   0  0  0  0  0  0  0  0  0  0  0  0
  -16.4097   10.0912  -20.1506 C   0  0  0  0  0  0  0  0  0  0  0  0
  -17.4261   10.6427  -19.3540 C   0  0  0  0  0  0  0  0  0  0  0  0
  -17.8855   10.1420  -18.2419 N   0  0  0  0  0  0  0  0  0  0  0  0
  -18.8378   10.7439  -17.5809 C   0  0  0  0  0  0  0  0  0  0  0  0
  -19.1397   12.1204  -18.5608 S   0  0  0  0  0  0  0  0  0  0  0  0
  -17.9841   11.8159  -19.7898 C   0  0  0  0  0  0  0  0  0  0  0  0
  -17.5746   12.4494  -20.9691 C   0  0  0  0  0  0  0  0  0  0  0  0
  -17.0309   13.5509  -23.5654 N   0  0  0  0  0  0  0  0  0  0  0  0
  -16.1782   12.5910  -22.9657 C   0  0  0  0  0  0  0  0  0  0  0  0
  -15.0818   12.3575  -23.5096 O   0  0  0  0  0  0  0  0  0  0  0  0
  -17.9689   13.8147  -23.1843 H   0  0  0  0  0  0  0  0  0  0  0  0
  -15.7074   16.0757  -23.3932 C   0  0  0  0  0  0  0  0  0  0  0  0
  -16.0207   15.4597  -24.7030 C   0  0  0  0  0  0  0  0  0  0  0  0
  -15.6427   16.1636  -25.8341 C   0  0  0  0  0  0  0  0  0  0  0  0
  -15.9066   15.6429  -27.0720 C   0  0  0  0  0  0  0  0  0  0  0  0
  -16.5468   14.4215  -27.1617 C   0  0  0  0  0  0  0  0  0  0  0  0
  -16.9229   13.7213  -26.0097 C   0  0  0  0  0  0  0  0  0  0  0  0
  -17.7266   12.1881  -26.1233 Cl  0  0  0  0  0  0  0  0  0  0  0  0
  -16.6597   14.2411  -24.7605 C   0  0  0  0  0  0  0  0  0  0  0  0
  -19.4877   10.3707  -16.3437 N   0  0  0  0  0  0  0  0  0  0  0  0
  -19.5855    9.0389  -15.9256 C   0  0  0  0  0  0  0  0  0  0  0  0
  -19.1021    8.1302  -16.6304 O   0  0  0  0  0  0  0  0  0  0  0  0
  -19.8900   11.1406  -15.7595 H   0  0  0  0  0  0  0  0  0  0  0  0
  -20.2539    8.6961  -14.6607 C   0  0  0  0  0  0  0  0  0  0  0  0
  -19.8931    7.4128  -14.0065 C   0  0  0  0  0  0  0  0  0  0  0  0
  -19.4503    8.6881  -13.3877 C   0  0  0  0  0  0  0  0  0  0  0  0
 14 15  1  0  0  0
 15 16  2  0  0  0
 16 17  1  0  0  0
 17 18  2  0  0  0
 18 19  1  0  0  0
 19 20  1  0  0  0
 19 21  2  0  0  0
 21 10  1  0  0  0
 10 11  1  0  0  0
 11 12  2  0  0  0
 11  1  1  0  0  0
  1  2  2  0  0  0
  2  3  1  0  0  0
  3  4  2  0  0  0
  4  5  1  0  0  0
  5  6  2  0  0  0
  6 22  1  0  0  0
 22 23  1  0  0  0
 23 24  2  0  0  0
 23 26  1  0  0  0
 26 27  1  0  0  0
 27 28  1  0  0  0
  6  7  1  0  0  0
  7  8  1  0  0  0
  8  9  2  0  0  0
 21 15  1  0  0  0
  9  1  1  0  0  0
  8  4  1  0  0  0
 28 26  1  0  0  0
 10 13  1  0  0  0
 22 25  1  0  0  0
M  END
> <minimizedAffinity>
-9.52600

> <CNNscore>
0.6054471731

> <CNNaffinity>
6.7515082359

> <CNN_VS>
4.0876817703

> <CNNaffinity_variance>
0.1534281820

$$$$
[H]c1c([H])c(Cl)c(N([H])C(=O)c2c([H])c([H])c3nc(N([H])C(=O)C4([H])C([H])([H])C4([H])[H])sc3c2[H])c(C([H])([H])[H])c1[H]


 28 31  0  0  0  0  0  0  0  0999 V2000
  -16.4559   11.9969  -21.9323 C   0  0  0  0  0  0  0  0  0  0  0  0
  -15.8895   10.8388  -21.4585 C   0  0  0  0  0  0  0  0  0  0  0  0
  -16.2638   10.2124  -20.3012 C   0  0  0  0  0  0  0  0  0  0  0  0
  -17.2919   10.7539  -19.5128 C   0  0  0  0  0  0  0  0  0  0  0  0
  -17.7421   10.2590  -18.3943 N   0  0  0  0  0  0  0  0  0  0  0  0
  -18.7069   10.8502  -17.7421 C   0  0  0  0  0  0  0  0  0  0  0  0
  -19.0356   12.2071  -18.7405 S   0  0  0  0  0  0  0  0  0  0  0  0
  -17.8730   11.9095  -19.9646 C   0  0  0  0  0  0  0  0  0  0  0  0
  -17.4754   12.5354  -21.1520 C   0  0  0  0  0  0  0  0  0  0  0  0
  -16.9871   13.5415  -23.8134 N   0  0  0  0  0  0  0  0  0  0  0  0
  -16.0802   12.6784  -23.1495 C   0  0  0  0  0  0  0  0  0  0  0  0
  -14.9476   12.5226  -23.6447 O   0  0  0  0  0  0  0  0  0  0  0  0
  -17.9583   13.7358  -23.4761 H   0  0  0  0  0  0  0  0  0  0  0  0
  -17.5881   12.3599  -26.3430 C   0  0  0  0  0  0  0  0  0  0  0  0
  -16.9087   13.6724  -26.2496 C   0  0  0  0  0  0  0  0  0  0  0  0
  -16.5807   14.2957  -27.4420 C   0  0  0  0  0  0  0  0  0  0  0  0
  -15.9514   15.5108  -27.4170 C   0  0  0  0  0  0  0  0  0  0  0  0
  -15.6580   16.0876  -26.1959 C   0  0  0  0  0  0  0  0  0  0  0  0
  -15.9956   15.4459  -24.9988 C   0  0  0  0  0  0  0  0  0  0  0  0
  -15.6267   16.1707  -23.4664 Cl  0  0  0  0  0  0  0  0  0  0  0  0
  -16.6293   14.2220  -25.0181 C   0  0  0  0  0  0  0  0  0  0  0  0
  -19.3503   10.4807  -16.5004 N   0  0  0  0  0  0  0  0  0  0  0  0
  -19.5135    9.1455  -16.1143 C   0  0  0  0  0  0  0  0  0  0  0  0
  -19.0967    8.2307  -16.8529 O   0  0  0  0  0  0  0  0  0  0  0  0
  -19.6965   11.2557  -15.8878 H   0  0  0  0  0  0  0  0  0  0  0  0
  -20.1730    8.8065  -14.8437 C   0  0  0  0  0  0  0  0  0  0  0  0
  -19.9226    7.4624  -14.2647 C   0  0  0  0  0  0  0  0  0  0  0  0
  -19.3349    8.6546  -13.6025 C   0  0  0  0  0  0  0  0  0  0  0  0
 14 15  1  0  0  0
 15 16  2  0  0  0
 16 17  1  0  0  0
 17 18  2  0  0  0
 18 19  1  0  0  0
 19 20  1  0  0  0
 19 21  2  0  0  0
 21 10  1  0  0  0
 10 11  1  0  0  0
 11 12  2  0  0  0
 11  1  1  0  0  0
  1  2  2  0  0  0
  2  3  1  0  0  0
  3  4  2  0  0  0
  4  5  1  0  0  0
  5  6  2  0  0  0
  6 22  1  0  0  0
 22 23  1  0  0  0
 23 24  2  0  0  0
 23 26  1  0  0  0
 26 27  1  0  0  0
 27 28  1  0  0  0
  6  7  1  0  0  0
  7  8  1  0  0  0
  8  9  2  0  0  0
 21 15  1  0  0  0
  9  1  1  0  0  0
  8  4  1  0  0  0
 28 26  1  0  0  0
 10 13  1  0  0  0
 22 25  1  0  0  0
M  END
> <minimizedAffinity>
-9.71498

> <CNNscore>
0.5572572351

> <CNNaffinity>
6.7024583817

> <CNN_VS>
3.7349934578

> <CNNaffinity_variance>
0.1683291644

$$$$
[H]c1c([H])c(Cl)c(N([H])C(=O)c2c([H])c([H])c3nc(N([H])C(=O)C4([H])C([H])([H])C4([H])[H])sc3c2[H])c(C([H])([H])[H])c1[H]


 28 31  0  0  0  0  0  0  0  0999 V2000
  -17.8094   12.9414  -21.2422 C   0  0  0  0  0  0  0  0  0  0  0  0
  -18.8701   13.6010  -20.6711 C   0  0  0  0  0  0  0  0  0  0  0  0
  -19.5014   13.2026  -19.5245 C   0  0  0  0  0  0  0  0  0  0  0  0
  -19.0696   12.0478  -18.8525 C   0  0  0  0  0  0  0  0  0  0  0  0
  -19.5812   11.5619  -17.7567 N   0  0  0  0  0  0  0  0  0  0  0  0
  -19.0965   10.4757  -17.2169 C   0  0  0  0  0  0  0  0  0  0  0  0
  -17.8254   10.0745  -18.2982 S   0  0  0  0  0  0  0  0  0  0  0  0
  -18.0123   11.3720  -19.4029 C   0  0  0  0  0  0  0  0  0  0  0  0
  -17.3798   11.7961  -20.5775 C   0  0  0  0  0  0  0  0  0  0  0  0
  -17.6526   14.3539  -23.2885 N   0  0  0  0  0  0  0  0  0  0  0  0
  -17.1253   13.3397  -22.4508 C   0  0  0  0  0  0  0  0  0  0  0  0
  -16.0536   12.7995  -22.7852 O   0  0  0  0  0  0  0  0  0  0  0  0
  -18.5443   14.8650  -23.0927 H   0  0  0  0  0  0  0  0  0  0  0  0
  -15.9938   16.6787  -23.2755 C   0  0  0  0  0  0  0  0  0  0  0  0
  -16.1819   15.8753  -24.5053 C   0  0  0  0  0  0  0  0  0  0  0  0
  -15.5180   16.3038  -25.6426 C   0  0  0  0  0  0  0  0  0  0  0  0
  -15.6547   15.6003  -26.8086 C   0  0  0  0  0  0  0  0  0  0  0  0
  -16.4560   14.4745  -26.8211 C   0  0  0  0  0  0  0  0  0  0  0  0
  -17.1210   14.0534  -25.6638 C   0  0  0  0  0  0  0  0  0  0  0  0
  -18.1268   12.6400  -25.6804 Cl  0  0  0  0  0  0  0  0  0  0  0  0
  -16.9870   14.7580  -24.4868 C   0  0  0  0  0  0  0  0  0  0  0  0
  -19.5044    9.7722  -16.0207 N   0  0  0  0  0  0  0  0  0  0  0  0
  -19.8766   10.4446  -14.8512 C   0  0  0  0  0  0  0  0  0  0  0  0
  -19.8621   11.6916  -14.8211 O   0  0  0  0  0  0  0  0  0  0  0  0
  -19.5132    8.7261  -16.0563 H   0  0  0  0  0  0  0  0  0  0  0  0
  -20.2861    9.6961  -13.6527 C   0  0  0  0  0  0  0  0  0  0  0  0
  -19.8157    8.2949  -13.5108 C   0  0  0  0  0  0  0  0  0  0  0  0
  -19.2477    9.3406  -12.6223 C   0  0  0  0  0  0  0  0  0  0  0  0
 14 15  1  0  0  0
 15 16  2  0  0  0
 16 17  1  0  0  0
 17 18  2  0  0  0
 18 19  1  0  0  0
 19 20  1  0  0  0
 19 21  2  0  0  0
 21 10  1  0  0  0
 10 11  1  0  0  0
 11 12  2  0  0  0
 11  1  1  0  0  0
  1  2  2  0  0  0
  2  3  1  0  0  0
  3  4  2  0  0  0
  4  5  1  0  0  0
  5  6  2  0  0  0
  6 22  1  0  0  0
 22 23  1  0  0  0
 23 24  2  0  0  0
 23 26  1  0  0  0
 26 27  1  0  0  0
 27 28  1  0  0  0
  6  7  1  0  0  0
  7  8  1  0  0  0
  8  9  2  0  0  0
 21 15  1  0  0  0
  9  1  1  0  0  0
  8  4  1  0  0  0
 28 26  1  0  0  0
 10 13  1  0  0  0
 22 25  1  0  0  0
M  END
> <minimizedAffinity>
-8.39769

> <CNNscore>
0.5085377693

> <CNNaffinity>
6.5604310036

> <CNN_VS>
3.3362269402

> <CNNaffinity_variance>
0.1796532124

$$$$
[H]c1c([H])c(Cl)c(N([H])C(=O)c2c([H])c([H])c3nc(N([H])C(=O)C4([H])C([H])([H])C4([H])[H])sc3c2[H])c(C([H])([H])[H])c1[H]


 28 31  0  0  0  0  0  0  0  0999 V2000
  -18.8671   10.2894  -17.2821 C   0  0  0  0  0  0  0  0  0  0  0  0
  -19.5432   11.4563  -17.5423 C   0  0  0  0  0  0  0  0  0  0  0  0
  -19.3271   12.2472  -18.6376 C   0  0  0  0  0  0  0  0  0  0  0  0
  -18.3587   11.8805  -19.5860 C   0  0  0  0  0  0  0  0  0  0  0  0
  -18.0561   12.5414  -20.6678 N   0  0  0  0  0  0  0  0  0  0  0  0
  -17.1335   12.1040  -21.4823 C   0  0  0  0  0  0  0  0  0  0  0  0
  -16.6276   10.6582  -20.7078 S   0  0  0  0  0  0  0  0  0  0  0  0
  -17.6705   10.7197  -19.3486 C   0  0  0  0  0  0  0  0  0  0  0  0
  -17.9065    9.9240  -18.2212 C   0  0  0  0  0  0  0  0  0  0  0  0
  -20.2232    9.5797  -15.3164 N   0  0  0  0  0  0  0  0  0  0  0  0
  -19.0752    9.4364  -16.1348 C   0  0  0  0  0  0  0  0  0  0  0  0
  -18.2482    8.5532  -15.8378 O   0  0  0  0  0  0  0  0  0  0  0  0
  -20.9722   10.2907  -15.4841 H   0  0  0  0  0  0  0  0  0  0  0  0
  -19.4645   10.4909  -12.7183 C   0  0  0  0  0  0  0  0  0  0  0  0
  -20.0847    9.1607  -12.9156 C   0  0  0  0  0  0  0  0  0  0  0  0
  -20.2779    8.3843  -11.7853 C   0  0  0  0  0  0  0  0  0  0  0  0
  -20.8470    7.1456  -11.9072 C   0  0  0  0  0  0  0  0  0  0  0  0
  -21.2162    6.6991  -13.1618 C   0  0  0  0  0  0  0  0  0  0  0  0
  -21.0148    7.4949  -14.2954 C   0  0  0  0  0  0  0  0  0  0  0  0
  -21.4786    6.9337  -15.8700 Cl  0  0  0  0  0  0  0  0  0  0  0  0
  -20.4421    8.7432  -14.1785 C   0  0  0  0  0  0  0  0  0  0  0  0
  -16.6450   12.6695  -22.7208 N   0  0  0  0  0  0  0  0  0  0  0  0
  -16.3549   14.0319  -22.8545 C   0  0  0  0  0  0  0  0  0  0  0  0
  -16.5170   14.7989  -21.8842 O   0  0  0  0  0  0  0  0  0  0  0  0
  -16.5124   12.0175  -23.5289 H   0  0  0  0  0  0  0  0  0  0  0  0
  -15.8595   14.5725  -24.1299 C   0  0  0  0  0  0  0  0  0  0  0  0
  -15.2198   15.9125  -24.1181 C   0  0  0  0  0  0  0  0  0  0  0  0
  -14.3750   14.7111  -24.3380 C   0  0  0  0  0  0  0  0  0  0  0  0
 14 15  1  0  0  0
 15 16  2  0  0  0
 16 17  1  0  0  0
 17 18  2  0  0  0
 18 19  1  0  0  0
 19 20  1  0  0  0
 19 21  2  0  0  0
 21 10  1  0  0  0
 10 11  1  0  0  0
 11 12  2  0  0  0
 11  1  1  0  0  0
  1  2  2  0  0  0
  2  3  1  0  0  0
  3  4  2  0  0  0
  4  5  1  0  0  0
  5  6  2  0  0  0
  6 22  1  0  0  0
 22 23  1  0  0  0
 23 24  2  0  0  0
 23 26  1  0  0  0
 26 27  1  0  0  0
 27 28  1  0  0  0
  6  7  1  0  0  0
  7  8  1  0  0  0
  8  9  2  0  0  0
 21 15  1  0  0  0
  9  1  1  0  0  0
  8  4  1  0  0  0
 28 26  1  0  0  0
 10 13  1  0  0  0
 22 25  1  0  0  0
M  END
> <minimizedAffinity>
-7.44978

> <CNNscore>
0.4747326076

> <CNNaffinity>
6.4187326431

> <CNN_VS>
3.0471816063

> <CNNaffinity_variance>
0.2023402452

$$$$
[H]c1c([H])c(Cl)c(N([H])C(=O)c2c([H])c([H])c3nc(N([H])C(=O)C4([H])C([H])([H])C4([H])[H])sc3c2[H])c(C([H])([H])[H])c1[H]


 28 31  0  0  0  0  0  0  0  0999 V2000
  -17.0073   12.6545  -21.7553 C   0  0  0  0  0  0  0  0  0  0  0  0
  -16.8456   11.4192  -21.1771 C   0  0  0  0  0  0  0  0  0  0  0  0
  -17.2917   11.0863  -19.9272 C   0  0  0  0  0  0  0  0  0  0  0  0
  -17.9655   12.0399  -19.1472 C   0  0  0  0  0  0  0  0  0  0  0  0
  -18.4390   11.8529  -17.9474 N   0  0  0  0  0  0  0  0  0  0  0  0
  -19.0511   12.8164  -17.3127 C   0  0  0  0  0  0  0  0  0  0  0  0
  -18.9780   14.0988  -18.4512 S   0  0  0  0  0  0  0  0  0  0  0  0
  -18.1393   13.2805  -19.7024 C   0  0  0  0  0  0  0  0  0  0  0  0
  -17.6751   13.6014  -20.9834 C   0  0  0  0  0  0  0  0  0  0  0  0
  -17.1939   14.0570  -23.8058 N   0  0  0  0  0  0  0  0  0  0  0  0
  -16.5467   13.0323  -23.0714 C   0  0  0  0  0  0  0  0  0  0  0  0
  -15.5677   12.4645  -23.5923 O   0  0  0  0  0  0  0  0  0  0  0  0
  -18.0221   14.5908  -23.4539 H   0  0  0  0  0  0  0  0  0  0  0  0
  -15.5976   16.4034  -24.1262 C   0  0  0  0  0  0  0  0  0  0  0  0
  -15.9787   15.5683  -25.2883 C   0  0  0  0  0  0  0  0  0  0  0  0
  -15.5259   15.9781  -26.5312 C   0  0  0  0  0  0  0  0  0  0  0  0
  -15.8472   15.2451  -27.6414 C   0  0  0  0  0  0  0  0  0  0  0  0
  -16.6194   14.1087  -27.4927 C   0  0  0  0  0  0  0  0  0  0  0  0
  -17.0699   13.7066  -26.2301 C   0  0  0  0  0  0  0  0  0  0  0  0
  -18.0393   12.2800  -26.0444 Cl  0  0  0  0  0  0  0  0  0  0  0  0
  -16.7494   14.4411  -25.1086 C   0  0  0  0  0  0  0  0  0  0  0  0
  -19.6455   12.8281  -15.9940 N   0  0  0  0  0  0  0  0  0  0  0  0
  -20.6651   11.9422  -15.6284 C   0  0  0  0  0  0  0  0  0  0  0  0
  -21.0880   11.1081  -16.4541 O   0  0  0  0  0  0  0  0  0  0  0  0
  -19.2836   13.5317  -15.3086 H   0  0  0  0  0  0  0  0  0  0  0  0
  -21.2466   11.9827  -14.2776 C   0  0  0  0  0  0  0  0  0  0  0  0
  -21.8180   10.7280  -13.7263 C   0  0  0  0  0  0  0  0  0  0  0  0
  -20.5501   11.2540  -13.1596 C   0  0  0  0  0  0  0  0  0  0  0  0
 14 15  1  0  0  0
 15 16  2  0  0  0
 16 17  1  0  0  0
 17 18  2  0  0  0
 18 19  1  0  0  0
 19 20  1  0  0  0
 19 21  2  0  0  0
 21 10  1  0  0  0
 10 11  1  0  0  0
 11 12  2  0  0  0
 11  1  1  0  0  0
  1  2  2  0  0  0
  2  3  1  0  0  0
  3  4  2  0  0  0
  4  5  1  0  0  0
  5  6  2  0  0  0
  6 22  1  0  0  0
 22 23  1  0  0  0
 23 24  2  0  0  0
 23 26  1  0  0  0
 26 27  1  0  0  0
 27 28  1  0  0  0
  6  7  1  0  0  0
  7  8  1  0  0  0
  8  9  2  0  0  0
 21 15  1  0  0  0
  9  1  1  0  0  0
  8  4  1  0  0  0
 28 26  1  0  0  0
 10 13  1  0  0  0
 22 25  1  0  0  0
M  END
> <minimizedAffinity>
-9.07723

> <CNNscore>
0.3533603549

> <CNNaffinity>
6.4289464951

> <CNN_VS>
2.2717347145

> <CNNaffinity_variance>
0.1158323288

$$$$
[H]c1c([H])c(Cl)c(N([H])C(=O)c2c([H])c([H])c3nc(N([H])C(=O)C4([H])C([H])([H])C4([H])[H])sc3c2[H])c(C([H])([H])[H])c1[H]


 28 31  0  0  0  0  0  0  0  0999 V2000
  -18.0515   12.3405  -20.1493 C   0  0  0  0  0  0  0  0  0  0  0  0
  -17.2303   11.2396  -20.1462 C   0  0  0  0  0  0  0  0  0  0  0  0
  -17.2804   10.2403  -19.2131 C   0  0  0  0  0  0  0  0  0  0  0  0
  -18.2188   10.3024  -18.1703 C   0  0  0  0  0  0  0  0  0  0  0  0
  -18.3706    9.4215  -17.2219 N   0  0  0  0  0  0  0  0  0  0  0  0
  -19.2806    9.5828  -16.2990 C   0  0  0  0  0  0  0  0  0  0  0  0
  -19.9996   11.0714  -16.7609 S   0  0  0  0  0  0  0  0  0  0  0  0
  -19.0499   11.3917  -18.1516 C   0  0  0  0  0  0  0  0  0  0  0  0
  -18.9825   12.4040  -19.1161 C   0  0  0  0  0  0  0  0  0  0  0  0
  -16.8493   13.6780  -21.8734 N   0  0  0  0  0  0  0  0  0  0  0  0
  -18.0198   13.4089  -21.1212 C   0  0  0  0  0  0  0  0  0  0  0  0
  -19.0232   14.1200  -21.3209 O   0  0  0  0  0  0  0  0  0  0  0  0
  -15.9588   13.1372  -21.7772 H   0  0  0  0  0  0  0  0  0  0  0  0
  -16.2591   16.3439  -21.0363 C   0  0  0  0  0  0  0  0  0  0  0  0
  -16.5210   16.0249  -22.4586 C   0  0  0  0  0  0  0  0  0  0  0  0
  -16.4660   17.0764  -23.3581 C   0  0  0  0  0  0  0  0  0  0  0  0
  -16.6995   16.8409  -24.6859 C   0  0  0  0  0  0  0  0  0  0  0  0
  -16.9856   15.5529  -25.0971 C   0  0  0  0  0  0  0  0  0  0  0  0
  -17.0378   14.5000  -24.1765 C   0  0  0  0  0  0  0  0  0  0  0  0
  -17.3971   12.8835  -24.6935 Cl  0  0  0  0  0  0  0  0  0  0  0  0
  -16.8035   14.7314  -22.8380 C   0  0  0  0  0  0  0  0  0  0  0  0
  -19.6172    8.7428  -15.1706 N   0  0  0  0  0  0  0  0  0  0  0  0
  -19.4636    9.1744  -13.8484 C   0  0  0  0  0  0  0  0  0  0  0  0
  -19.0232   10.3182  -13.6163 O   0  0  0  0  0  0  0  0  0  0  0  0
  -19.9859    7.7848  -15.3761 H   0  0  0  0  0  0  0  0  0  0  0  0
  -19.8162    8.2926  -12.7248 C   0  0  0  0  0  0  0  0  0  0  0  0
  -19.6019    6.8326  -12.8900 C   0  0  0  0  0  0  0  0  0  0  0  0
  -18.7167    7.5929  -11.9714 C   0  0  0  0  0  0  0  0  0  0  0  0
 14 15  1  0  0  0
 15 16  2  0  0  0
 16 17  1  0  0  0
 17 18  2  0  0  0
 18 19  1  0  0  0
 19 20  1  0  0  0
 19 21  2  0  0  0
 21 10  1  0  0  0
 10 11  1  0  0  0
 11 12  2  0  0  0
 11  1  1  0  0  0
  1  2  2  0  0  0
  2  3  1  0  0  0
  3  4  2  0  0  0
  4  5  1  0  0  0
  5  6  2  0  0  0
  6 22  1  0  0  0
 22 23  1  0  0  0
 23 24  2  0  0  0
 23 26  1  0  0  0
 26 27  1  0  0  0
 27 28  1  0  0  0
  6  7  1  0  0  0
  7  8  1  0  0  0
  8  9  2  0  0  0
 21 15  1  0  0  0
  9  1  1  0  0  0
  8  4  1  0  0  0
 28 26  1  0  0  0
 10 13  1  0  0  0
 22 25  1  0  0  0
M  END
> <minimizedAffinity>
-8.11310

> <CNNscore>
0.3099030256

> <CNNaffinity>
6.2304625511

> <CNN_VS>
1.9308391809

> <CNNaffinity_variance>
0.0766829103

$$$$
[H]c1c([H])c(Cl)c(N([H])C(=O)c2c([H])c([H])c3nc(N([H])C(=O)C4([H])C([H])([H])C4([H])[H])sc3c2[H])c(C([H])([H])[H])c1[H]


 28 31  0  0  0  0  0  0  0  0999 V2000
  -18.0387   12.3191  -20.1767 C   0  0  0  0  0  0  0  0  0  0  0  0
  -17.2239   11.2135  -20.1693 C   0  0  0  0  0  0  0  0  0  0  0  0
  -17.2787   10.2190  -19.2312 C   0  0  0  0  0  0  0  0  0  0  0  0
  -18.2154   10.2918  -18.1876 C   0  0  0  0  0  0  0  0  0  0  0  0
  -18.3712    9.4163  -17.2347 N   0  0  0  0  0  0  0  0  0  0  0  0
  -19.2791    9.5875  -16.3115 C   0  0  0  0  0  0  0  0  0  0  0  0
  -19.9900   11.0779  -16.7798 S   0  0  0  0  0  0  0  0  0  0  0  0
  -19.0401   11.3859  -18.1732 C   0  0  0  0  0  0  0  0  0  0  0  0
  -18.9681   12.3931  -19.1428 C   0  0  0  0  0  0  0  0  0  0  0  0
  -16.8609   13.5869  -21.9689 N   0  0  0  0  0  0  0  0  0  0  0  0
  -18.0021   13.3825  -21.1539 C   0  0  0  0  0  0  0  0  0  0  0  0
  -18.9751   14.1462  -21.3029 O   0  0  0  0  0  0  0  0  0  0  0  0
  -15.9967   12.9992  -21.9180 H   0  0  0  0  0  0  0  0  0  0  0  0
  -17.3570   12.9987  -24.7192 C   0  0  0  0  0  0  0  0  0  0  0  0
  -17.0462   14.3757  -24.2715 C   0  0  0  0  0  0  0  0  0  0  0  0
  -17.0080   15.3590  -25.2459 C   0  0  0  0  0  0  0  0  0  0  0  0
  -16.7257   16.6501  -24.8904 C   0  0  0  0  0  0  0  0  0  0  0  0
  -16.4847   16.9409  -23.5611 C   0  0  0  0  0  0  0  0  0  0  0  0
  -16.5267   15.9367  -22.5872 C   0  0  0  0  0  0  0  0  0  0  0  0
  -16.2240   16.3026  -20.9186 Cl  0  0  0  0  0  0  0  0  0  0  0  0
  -16.8105   14.6347  -22.9395 C   0  0  0  0  0  0  0  0  0  0  0  0
  -19.6191    8.7550  -15.1786 N   0  0  0  0  0  0  0  0  0  0  0  0
  -19.4682    9.1948  -13.8588 C   0  0  0  0  0  0  0  0  0  0  0  0
  -19.0272   10.3396  -13.6329 O   0  0  0  0  0  0  0  0  0  0  0  0
  -19.9884    7.7961  -15.3789 H   0  0  0  0  0  0  0  0  0  0  0  0
  -19.8243    8.3205  -12.7305 C   0  0  0  0  0  0  0  0  0  0  0  0
  -19.6040    6.8600  -12.8831 C   0  0  0  0  0  0  0  0  0  0  0  0
  -18.7268    7.6304  -11.9653 C   0  0  0  0  0  0  0  0  0  0  0  0
 14 15  1  0  0  0
 15 16  2  0  0  0
 16 17  1  0  0  0
 17 18  2  0  0  0
 18 19  1  0  0  0
 19 20  1  0  0  0
 19 21  2  0  0  0
 21 10  1  0  0  0
 10 11  1  0  0  0
 11 12  2  0  0  0
 11  1  1  0  0  0
  1  2  2  0  0  0
  2  3  1  0  0  0
  3  4  2  0  0  0
  4  5  1  0  0  0
  5  6  2  0  0  0
  6 22  1  0  0  0
 22 23  1  0  0  0
 23 24  2  0  0  0
 23 26  1  0  0  0
 26 27  1  0  0  0
 27 28  1  0  0  0
  6  7  1  0  0  0
  7  8  1  0  0  0
  8  9  2  0  0  0
 21 15  1  0  0  0
  9  1  1  0  0  0
  8  4  1  0  0  0
 28 26  1  0  0  0
 10 13  1  0  0  0
 22 25  1  0  0  0
M  END
> <minimizedAffinity>
-8.23482

> <CNNscore>
0.2992565632

> <CNNaffinity>
6.1893329620

> <CNN_VS>
1.8521984816

> <CNNaffinity_variance>
0.0629731268

$$$$
[H]c1c([H])c(Cl)c(N([H])C(=O)c2c([H])c([H])c3nc(N([H])C(=O)C4([H])C([H])([H])C4([H])[H])sc3c2[H])c(C([H])([H])[H])c1[H]


 28 31  0  0  0  0  0  0  0  0999 V2000
  -19.3273   11.1335  -17.4748 C   0  0  0  0  0  0  0  0  0  0  0  0
  -18.3370   10.2301  -17.7742 C   0  0  0  0  0  0  0  0  0  0  0  0
  -17.5404   10.2960  -18.8846 C   0  0  0  0  0  0  0  0  0  0  0  0
  -17.7108   11.3403  -19.8077 C   0  0  0  0  0  0  0  0  0  0  0  0
  -17.0223   11.5183  -20.8998 N   0  0  0  0  0  0  0  0  0  0  0  0
  -17.2688   12.5300  -21.6882 C   0  0  0  0  0  0  0  0  0  0  0  0
  -18.5575   13.3156  -20.8707 S   0  0  0  0  0  0  0  0  0  0  0  0
  -18.6930   12.2548  -19.5310 C   0  0  0  0  0  0  0  0  0  0  0  0
  -19.4979   12.1696  -18.3889 C   0  0  0  0  0  0  0  0  0  0  0  0
  -19.9856   11.9762  -15.2247 N   0  0  0  0  0  0  0  0  0  0  0  0
  -20.1818   11.0875  -16.3109 C   0  0  0  0  0  0  0  0  0  0  0  0
  -21.1132   10.2634  -16.2351 O   0  0  0  0  0  0  0  0  0  0  0  0
  -19.2322   12.7016  -15.1953 H   0  0  0  0  0  0  0  0  0  0  0  0
  -22.2530   13.7049  -15.0620 C   0  0  0  0  0  0  0  0  0  0  0  0
  -21.9219   12.7660  -13.9656 C   0  0  0  0  0  0  0  0  0  0  0  0
  -22.7606   12.7669  -12.8637 C   0  0  0  0  0  0  0  0  0  0  0  0
  -22.5036   11.9199  -11.8198 C   0  0  0  0  0  0  0  0  0  0  0  0
  -21.4079   11.0810  -11.8928 C   0  0  0  0  0  0  0  0  0  0  0  0
  -20.5689   11.0911  -13.0130 C   0  0  0  0  0  0  0  0  0  0  0  0
  -19.1936   10.0376  -13.1037 Cl  0  0  0  0  0  0  0  0  0  0  0  0
  -20.8230   11.9421  -14.0671 C   0  0  0  0  0  0  0  0  0  0  0  0
  -16.6369   12.9132  -22.9316 N   0  0  0  0  0  0  0  0  0  0  0  0
  -16.1560   14.2083  -23.1549 C   0  0  0  0  0  0  0  0  0  0  0  0
  -16.2676   15.0738  -22.2635 O   0  0  0  0  0  0  0  0  0  0  0  0
  -16.5482   12.1796  -23.6731 H   0  0  0  0  0  0  0  0  0  0  0  0
  -15.5185   14.5627  -24.4325 C   0  0  0  0  0  0  0  0  0  0  0  0
  -15.0296   15.9539  -24.6058 C   0  0  0  0  0  0  0  0  0  0  0  0
  -14.0420   14.8550  -24.4566 C   0  0  0  0  0  0  0  0  0  0  0  0
 14 15  1  0  0  0
 15 16  2  0  0  0
 16 17  1  0  0  0
 17 18  2  0  0  0
 18 19  1  0  0  0
 19 20  1  0  0  0
 19 21  2  0  0  0
 21 10  1  0  0  0
 10 11  1  0  0  0
 11 12  2  0  0  0
 11  1  1  0  0  0
  1  2  2  0  0  0
  2  3  1  0  0  0
  3  4  2  0  0  0
  4  5  1  0  0  0
  5  6  2  0  0  0
  6 22  1  0  0  0
 22 23  1  0  0  0
 23 24  2  0  0  0
 23 26  1  0  0  0
 26 27  1  0  0  0
 27 28  1  0  0  0
  6  7  1  0  0  0
  7  8  1  0  0  0
  8  9  2  0  0  0
 21 15  1  0  0  0
  9  1  1  0  0  0
  8  4  1  0  0  0
 28 26  1  0  0  0
 10 13  1  0  0  0
 22 25  1  0  0  0
M  END
> <minimizedAffinity>
-7.63259

> <CNNscore>
0.2776537240

> <CNNaffinity>
6.2016477585

> <CNN_VS>
1.7219105959

> <CNNaffinity_variance>
0.2524093091

$$$$
[H]c1c([H])c(Cl)c(N([H])C(=O)c2c([H])c([H])c3nc(N([H])C(=O)N([H])C4([H])C([H])([H])C4([H])[H])sc3c2[H])c(C([H])([H])[H])c1[H]


 30 33  0  0  0  0  0  0  0  0999 V2000
  -16.7018   12.0032  -21.7179 C   0  0  0  0  0  0  0  0  0  0  0  0
  -16.1239   10.8237  -21.2765 C   0  0  0  0  0  0  0  0  0  0  0  0
  -16.4696   10.1646  -20.1304 C   0  0  0  0  0  0  0  0  0  0  0  0
  -17.4824   10.6883  -19.3093 C   0  0  0  0  0  0  0  0  0  0  0  0
  -17.9107   10.1625  -18.1897 N   0  0  0  0  0  0  0  0  0  0  0  0
  -18.8712   10.7533  -17.5082 C   0  0  0  0  0  0  0  0  0  0  0  0
  -19.2065   12.1222  -18.4718 S   0  0  0  0  0  0  0  0  0  0  0  0
  -18.0696   11.8519  -19.7216 C   0  0  0  0  0  0  0  0  0  0  0  0
  -17.6940   12.5075  -20.9043 C   0  0  0  0  0  0  0  0  0  0  0  0
  -19.4580   10.3289  -16.2801 N   0  0  0  0  0  0  0  0  0  0  0  0
  -19.6448    8.9487  -16.0324 C   0  0  0  0  0  0  0  0  0  0  0  0
  -19.3011    8.0931  -16.8781 O   0  0  0  0  0  0  0  0  0  0  0  0
  -20.2266    8.4967  -14.8184 N   0  0  0  0  0  0  0  0  0  0  0  0
  -19.7396   11.0377  -15.5861 H   0  0  0  0  0  0  0  0  0  0  0  0
  -20.5132    9.1913  -14.1151 H   0  0  0  0  0  0  0  0  0  0  0  0
  -20.4246    7.0852  -14.5497 C   0  0  0  0  0  0  0  0  0  0  0  0
  -21.7611    6.5419  -14.9357 C   0  0  0  0  0  0  0  0  0  0  0  0
  -21.4051    6.7399  -13.4838 C   0  0  0  0  0  0  0  0  0  0  0  0
  -17.0485   13.6457  -23.5570 N   0  0  0  0  0  0  0  0  0  0  0  0
  -16.2753   12.6379  -22.9476 C   0  0  0  0  0  0  0  0  0  0  0  0
  -15.2017   12.2905  -23.4850 O   0  0  0  0  0  0  0  0  0  0  0  0
  -17.9488   13.9593  -23.1355 H   0  0  0  0  0  0  0  0  0  0  0  0
  -15.6427   16.0322  -23.3705 C   0  0  0  0  0  0  0  0  0  0  0  0
  -15.9499   15.4766  -24.7072 C   0  0  0  0  0  0  0  0  0  0  0  0
  -15.5533   16.1177  -25.8875 C   0  0  0  0  0  0  0  0  0  0  0  0
  -15.8534   15.5770  -27.1205 C   0  0  0  0  0  0  0  0  0  0  0  0
  -16.5536   14.3894  -27.1681 C   0  0  0  0  0  0  0  0  0  0  0  0
  -16.9565   13.7376  -25.9982 C   0  0  0  0  0  0  0  0  0  0  0  0
  -17.8454   12.2301  -26.0524 Cl  0  0  0  0  0  0  0  0  0  0  0  0
  -16.6493   14.2900  -24.7741 C   0  0  0  0  0  0  0  0  0  0  0  0
 23 24  1  0  0  0
 24 25  2  0  0  0
 25 26  1  0  0  0
 26 27  2  0  0  0
 27 28  1  0  0  0
 28 29  1  0  0  0
 28 30  2  0  0  0
 30 19  1  0  0  0
 19 20  1  0  0  0
 20 21  2  0  0  0
 20  1  1  0  0  0
  1  2  2  0  0  0
  2  3  1  0  0  0
  3  4  2  0  0  0
  4  5  1  0  0  0
  5  6  2  0  0  0
  6 10  1  0  0  0
 10 11  1  0  0  0
 11 12  2  0  0  0
 11 13  1  0  0  0
 13 16  1  0  0  0
 16 17  1  0  0  0
 17 18  1  0  0  0
  6  7  1  0  0  0
  7  8  1  0  0  0
  8  9  2  0  0  0
 30 24  1  0  0  0
  9  1  1  0  0  0
  8  4  1  0  0  0
 18 16  1  0  0  0
 19 22  1  0  0  0
 10 14  1  0  0  0
 13 15  1  0  0  0
M  END
> <minimizedAffinity>
-9.57171

> <CNNscore>
0.5916025639

> <CNNaffinity>
6.7537817955

> <CNN_VS>
3.9955546856

> <CNNaffinity_variance>
0.2253434360

$$$$
[H]c1c([H])c(Cl)c(N([H])C(=O)c2c([H])c([H])c3nc(N([H])C(=O)N([H])C4([H])C([H])([H])C4([H])[H])sc3c2[H])c(C([H])([H])[H])c1[H]


 30 33  0  0  0  0  0  0  0  0999 V2000
  -19.4830   11.0040  -17.2379 C   0  0  0  0  0  0  0  0  0  0  0  0
  -19.8339   12.2267  -17.7873 C   0  0  0  0  0  0  0  0  0  0  0  0
  -19.2935   12.7567  -18.9250 C   0  0  0  0  0  0  0  0  0  0  0  0
  -18.3047   12.0404  -19.6205 C   0  0  0  0  0  0  0  0  0  0  0  0
  -17.7055   12.4283  -20.7177 N   0  0  0  0  0  0  0  0  0  0  0  0
  -16.7905   11.6621  -21.2761 C   0  0  0  0  0  0  0  0  0  0  0  0
  -16.7529   10.3199  -20.2217 S   0  0  0  0  0  0  0  0  0  0  0  0
  -17.9396   10.8303  -19.0998 C   0  0  0  0  0  0  0  0  0  0  0  0
  -18.5122   10.3105  -17.9287 C   0  0  0  0  0  0  0  0  0  0  0  0
  -16.0413   11.9199  -22.4613 N   0  0  0  0  0  0  0  0  0  0  0  0
  -15.9496   13.2407  -22.9596 C   0  0  0  0  0  0  0  0  0  0  0  0
  -16.5184   14.1883  -22.3730 O   0  0  0  0  0  0  0  0  0  0  0  0
  -15.2104   13.5273  -24.1377 N   0  0  0  0  0  0  0  0  0  0  0  0
  -15.5742   11.1358  -22.9413 H   0  0  0  0  0  0  0  0  0  0  0  0
  -14.7382   12.7559  -24.6288 H   0  0  0  0  0  0  0  0  0  0  0  0
  -15.1072   14.8762  -24.6609 C   0  0  0  0  0  0  0  0  0  0  0  0
  -15.5041   15.0396  -26.0913 C   0  0  0  0  0  0  0  0  0  0  0  0
  -14.0538   15.1157  -25.6855 C   0  0  0  0  0  0  0  0  0  0  0  0
  -19.4521    9.5908  -15.1880 N   0  0  0  0  0  0  0  0  0  0  0  0
  -20.1067   10.5151  -16.0258 C   0  0  0  0  0  0  0  0  0  0  0  0
  -21.2475   10.9160  -15.7100 O   0  0  0  0  0  0  0  0  0  0  0  0
  -18.5002    9.2360  -15.4216 H   0  0  0  0  0  0  0  0  0  0  0  0
  -19.1569   11.0870  -12.8684 C   0  0  0  0  0  0  0  0  0  0  0  0
  -19.9138    9.8164  -12.8178 C   0  0  0  0  0  0  0  0  0  0  0  0
  -20.4892    9.3410  -11.6327 C   0  0  0  0  0  0  0  0  0  0  0  0
  -21.1897    8.1529  -11.6145 C   0  0  0  0  0  0  0  0  0  0  0  0
  -21.3126    7.4405  -12.7894 C   0  0  0  0  0  0  0  0  0  0  0  0
  -20.7435    7.9024  -13.9805 C   0  0  0  0  0  0  0  0  0  0  0  0
  -20.8961    7.0027  -15.4747 Cl  0  0  0  0  0  0  0  0  0  0  0  0
  -20.0468    9.0910  -13.9829 C   0  0  0  0  0  0  0  0  0  0  0  0
 23 24  1  0  0  0
 24 25  2  0  0  0
 25 26  1  0  0  0
 26 27  2  0  0  0
 27 28  1  0  0  0
 28 29  1  0  0  0
 28 30  2  0  0  0
 30 19  1  0  0  0
 19 20  1  0  0  0
 20 21  2  0  0  0
 20  1  1  0  0  0
  1  2  2  0  0  0
  2  3  1  0  0  0
  3  4  2  0  0  0
  4  5  1  0  0  0
  5  6  2  0  0  0
  6 10  1  0  0  0
 10 11  1  0  0  0
 11 12  2  0  0  0
 11 13  1  0  0  0
 13 16  1  0  0  0
 16 17  1  0  0  0
 17 18  1  0  0  0
  6  7  1  0  0  0
  7  8  1  0  0  0
  8  9  2  0  0  0
 30 24  1  0  0  0
  9  1  1  0  0  0
  8  4  1  0  0  0
 18 16  1  0  0  0
 19 22  1  0  0  0
 10 14  1  0  0  0
 13 15  1  0  0  0
M  END
> <minimizedAffinity>
-7.46836

> <CNNscore>
0.5898292065

> <CNNaffinity>
6.5651221275

> <CNN_VS>
3.8723008633

> <CNNaffinity_variance>
0.3010259271

$$$$
[H]c1c([H])c(Cl)c(N([H])C(=O)c2c([H])c([H])c3nc(N([H])C(=O)N([H])C4([H])C([H])([H])C4([H])[H])sc3c2[H])c(C([H])([H])[H])c1[H]


 30 33  0  0  0  0  0  0  0  0999 V2000
  -18.7752   10.2403  -17.4316 C   0  0  0  0  0  0  0  0  0  0  0  0
  -19.2888   11.4776  -17.7856 C   0  0  0  0  0  0  0  0  0  0  0  0
  -18.9099   12.1962  -18.8843 C   0  0  0  0  0  0  0  0  0  0  0  0
  -17.9287   11.6777  -19.7461 C   0  0  0  0  0  0  0  0  0  0  0  0
  -17.4744   12.2573  -20.8283 N   0  0  0  0  0  0  0  0  0  0  0  0
  -16.5488   11.6649  -21.5552 C   0  0  0  0  0  0  0  0  0  0  0  0
  -16.2869   10.2152  -20.6923 S   0  0  0  0  0  0  0  0  0  0  0  0
  -17.4049   10.4578  -19.4200 C   0  0  0  0  0  0  0  0  0  0  0  0
  -17.8135    9.7417  -18.2843 C   0  0  0  0  0  0  0  0  0  0  0  0
  -15.9420   12.1425  -22.7536 N   0  0  0  0  0  0  0  0  0  0  0  0
  -16.6617   13.0132  -23.6051 C   0  0  0  0  0  0  0  0  0  0  0  0
  -17.8264   13.3709  -23.3204 O   0  0  0  0  0  0  0  0  0  0  0  0
  -16.0829   13.5048  -24.8051 N   0  0  0  0  0  0  0  0  0  0  0  0
  -14.9819   11.8451  -22.9840 H   0  0  0  0  0  0  0  0  0  0  0  0
  -15.1253   13.2175  -25.0498 H   0  0  0  0  0  0  0  0  0  0  0  0
  -16.8080   14.3980  -25.6884 C   0  0  0  0  0  0  0  0  0  0  0  0
  -16.0216   14.9397  -26.8366 C   0  0  0  0  0  0  0  0  0  0  0  0
  -16.3948   15.8284  -25.6770 C   0  0  0  0  0  0  0  0  0  0  0  0
  -20.5777    9.6151  -15.8315 N   0  0  0  0  0  0  0  0  0  0  0  0
  -19.2335    9.5444  -16.2472 C   0  0  0  0  0  0  0  0  0  0  0  0
  -18.4270    8.8659  -15.5754 O   0  0  0  0  0  0  0  0  0  0  0  0
  -21.2764   10.1718  -16.3685 H   0  0  0  0  0  0  0  0  0  0  0  0
  -21.3742    6.9688  -16.0943 C   0  0  0  0  0  0  0  0  0  0  0  0
  -21.4587    7.6211  -14.7686 C   0  0  0  0  0  0  0  0  0  0  0  0
  -21.9296    6.9446  -13.6363 C   0  0  0  0  0  0  0  0  0  0  0  0
  -21.9977    7.5775  -12.4126 C   0  0  0  0  0  0  0  0  0  0  0  0
  -21.5919    8.8931  -12.3260 C   0  0  0  0  0  0  0  0  0  0  0  0
  -21.1195    9.5817  -13.4479 C   0  0  0  0  0  0  0  0  0  0  0  0
  -20.6031   11.2515  -13.3441 Cl  0  0  0  0  0  0  0  0  0  0  0  0
  -21.0573    8.9361  -14.6633 C   0  0  0  0  0  0  0  0  0  0  0  0
 23 24  1  0  0  0
 24 25  2  0  0  0
 25 26  1  0  0  0
 26 27  2  0  0  0
 27 28  1  0  0  0
 28 29  1  0  0  0
 28 30  2  0  0  0
 30 19  1  0  0  0
 19 20  1  0  0  0
 20 21  2  0  0  0
 20  1  1  0  0  0
  1  2  2  0  0  0
  2  3  1  0  0  0
  3  4  2  0  0  0
  4  5  1  0  0  0
  5  6  2  0  0  0
  6 10  1  0  0  0
 10 11  1  0  0  0
 11 12  2  0  0  0
 11 13  1  0  0  0
 13 16  1  0  0  0
 16 17  1  0  0  0
 17 18  1  0  0  0
  6  7  1  0  0  0
  7  8  1  0  0  0
  8  9  2  0  0  0
 30 24  1  0  0  0
  9  1  1  0  0  0
  8  4  1  0  0  0
 18 16  1  0  0  0
 19 22  1  0  0  0
 10 14  1  0  0  0
 13 15  1  0  0  0
M  END
> <minimizedAffinity>
-7.74390

> <CNNscore>
0.5473179817

> <CNNaffinity>
6.5946512222

> <CNN_VS>
3.6093711853

> <CNNaffinity_variance>
0.1720654219

$$$$
[H]c1c([H])c(Cl)c(N([H])C(=O)c2c([H])c([H])c3nc(N([H])C(=O)N([H])C4([H])C([H])([H])C4([H])[H])sc3c2[H])c(C([H])([H])[H])c1[H]


 30 33  0  0  0  0  0  0  0  0999 V2000
  -16.7173   11.9849  -21.7144 C   0  0  0  0  0  0  0  0  0  0  0  0
  -16.0978   10.8362  -21.2492 C   0  0  0  0  0  0  0  0  0  0  0  0
  -16.4477   10.1652  -20.1113 C   0  0  0  0  0  0  0  0  0  0  0  0
  -17.5099   10.6424  -19.3251 C   0  0  0  0  0  0  0  0  0  0  0  0
  -17.9477   10.1005  -18.2169 N   0  0  0  0  0  0  0  0  0  0  0  0
  -18.9565   10.6469  -17.5689 C   0  0  0  0  0  0  0  0  0  0  0  0
  -19.3263   11.9947  -18.5494 S   0  0  0  0  0  0  0  0  0  0  0  0
  -18.1389   11.7750  -19.7615 C   0  0  0  0  0  0  0  0  0  0  0  0
  -17.7578   12.4438  -20.9350 C   0  0  0  0  0  0  0  0  0  0  0  0
  -19.5610   10.1990  -16.3579 N   0  0  0  0  0  0  0  0  0  0  0  0
  -19.9690   11.1432  -15.3868 C   0  0  0  0  0  0  0  0  0  0  0  0
  -19.8065   12.3692  -15.5764 O   0  0  0  0  0  0  0  0  0  0  0  0
  -20.5737   10.7263  -14.1714 N   0  0  0  0  0  0  0  0  0  0  0  0
  -19.6929    9.1875  -16.2060 H   0  0  0  0  0  0  0  0  0  0  0  0
  -20.7126    9.7203  -14.0042 H   0  0  0  0  0  0  0  0  0  0  0  0
  -20.9973   11.6822  -13.1662 C   0  0  0  0  0  0  0  0  0  0  0  0
  -20.9455   11.1930  -11.7561 C   0  0  0  0  0  0  0  0  0  0  0  0
  -22.2694   11.3814  -12.4532 C   0  0  0  0  0  0  0  0  0  0  0  0
  -17.0539   13.6482  -23.5366 N   0  0  0  0  0  0  0  0  0  0  0  0
  -16.2829   12.6351  -22.9333 C   0  0  0  0  0  0  0  0  0  0  0  0
  -15.2044   12.2966  -23.4664 O   0  0  0  0  0  0  0  0  0  0  0  0
  -17.9582   13.9547  -23.1184 H   0  0  0  0  0  0  0  0  0  0  0  0
  -15.6469   16.0306  -23.3110 C   0  0  0  0  0  0  0  0  0  0  0  0
  -15.9468   15.4927  -24.6566 C   0  0  0  0  0  0  0  0  0  0  0  0
  -15.5427   16.1487  -25.8261 C   0  0  0  0  0  0  0  0  0  0  0  0
  -15.8361   15.6243  -27.0678 C   0  0  0  0  0  0  0  0  0  0  0  0
  -16.5372   14.4382  -27.1349 C   0  0  0  0  0  0  0  0  0  0  0  0
  -16.9476   13.7717  -25.9758 C   0  0  0  0  0  0  0  0  0  0  0  0
  -17.8377   12.2660  -26.0547 Cl  0  0  0  0  0  0  0  0  0  0  0  0
  -16.6470   14.3079  -24.7429 C   0  0  0  0  0  0  0  0  0  0  0  0
 23 24  1  0  0  0
 24 25  2  0  0  0
 25 26  1  0  0  0
 26 27  2  0  0  0
 27 28  1  0  0  0
 28 29  1  0  0  0
 28 30  2  0  0  0
 30 19  1  0  0  0
 19 20  1  0  0  0
 20 21  2  0  0  0
 20  1  1  0  0  0
  1  2  2  0  0  0
  2  3  1  0  0  0
  3  4  2  0  0  0
  4  5  1  0  0  0
  5  6  2  0  0  0
  6 10  1  0  0  0
 10 11  1  0  0  0
 11 12  2  0  0  0
 11 13  1  0  0  0
 13 16  1  0  0  0
 16 17  1  0  0  0
 17 18  1  0  0  0
  6  7  1  0  0  0
  7  8  1  0  0  0
  8  9  2  0  0  0
 30 24  1  0  0  0
  9  1  1  0  0  0
  8  4  1  0  0  0
 18 16  1  0  0  0
 19 22  1  0  0  0
 10 14  1  0  0  0
 13 15  1  0  0  0
M  END
> <minimizedAffinity>
-9.18131

> <CNNscore>
0.5278099775

> <CNNaffinity>
6.6466560364

> <CNN_VS>
3.5081713200

> <CNNaffinity_variance>
0.1750002950

$$$$
[H]c1c([H])c(Cl)c(N([H])C(=O)c2c([H])c([H])c3nc(N([H])C(=O)N([H])C4([H])C([H])([H])C4([H])[H])sc3c2[H])c(C([H])([H])[H])c1[H]


 30 33  0  0  0  0  0  0  0  0999 V2000
  -17.9735   12.3443  -20.1672 C   0  0  0  0  0  0  0  0  0  0  0  0
  -17.0236   11.3403  -20.2651 C   0  0  0  0  0  0  0  0  0  0  0  0
  -16.9444   10.2554  -19.4380 C   0  0  0  0  0  0  0  0  0  0  0  0
  -17.8769   10.1088  -18.3973 C   0  0  0  0  0  0  0  0  0  0  0  0
  -17.9168    9.1238  -17.5361 N   0  0  0  0  0  0  0  0  0  0  0  0
  -18.8458    9.1010  -16.6021 C   0  0  0  0  0  0  0  0  0  0  0  0
  -19.7218   10.5290  -16.9310 S   0  0  0  0  0  0  0  0  0  0  0  0
  -18.8256   11.0858  -18.2780 C   0  0  0  0  0  0  0  0  0  0  0  0
  -18.8829   12.1898  -19.1427 C   0  0  0  0  0  0  0  0  0  0  0  0
  -19.0408    8.1170  -15.5890 N   0  0  0  0  0  0  0  0  0  0  0  0
  -19.0435    8.5027  -14.2281 C   0  0  0  0  0  0  0  0  0  0  0  0
  -18.8767    9.6986  -13.9001 O   0  0  0  0  0  0  0  0  0  0  0  0
  -19.2354    7.5446  -13.1977 N   0  0  0  0  0  0  0  0  0  0  0  0
  -19.1780    7.1326  -15.8641 H   0  0  0  0  0  0  0  0  0  0  0  0
  -19.3736    6.5578  -13.4553 H   0  0  0  0  0  0  0  0  0  0  0  0
  -19.2406    7.9245  -11.7979 C   0  0  0  0  0  0  0  0  0  0  0  0
  -17.9277    7.8015  -11.0967 C   0  0  0  0  0  0  0  0  0  0  0  0
  -19.0439    6.8294  -10.8084 C   0  0  0  0  0  0  0  0  0  0  0  0
  -16.8856   13.7346  -21.9232 N   0  0  0  0  0  0  0  0  0  0  0  0
  -17.9865   13.4624  -21.0874 C   0  0  0  0  0  0  0  0  0  0  0  0
  -18.9900   14.2049  -21.1471 O   0  0  0  0  0  0  0  0  0  0  0  0
  -16.0329   13.1356  -21.8989 H   0  0  0  0  0  0  0  0  0  0  0  0
  -17.3755   13.2019  -24.6032 C   0  0  0  0  0  0  0  0  0  0  0  0
  -17.1132   14.5953  -24.1792 C   0  0  0  0  0  0  0  0  0  0  0  0
  -17.1038   15.6596  -25.0894 C   0  0  0  0  0  0  0  0  0  0  0  0
  -16.8562   16.9490  -24.6663 C   0  0  0  0  0  0  0  0  0  0  0  0
  -16.6176   17.1697  -23.3256 C   0  0  0  0  0  0  0  0  0  0  0  0
  -16.6237   16.1170  -22.4049 C   0  0  0  0  0  0  0  0  0  0  0  0
  -16.3215   16.3911  -20.7022 Cl  0  0  0  0  0  0  0  0  0  0  0  0
  -16.8725   14.8347  -22.8427 C   0  0  0  0  0  0  0  0  0  0  0  0
 23 24  1  0  0  0
 24 25  2  0  0  0
 25 26  1  0  0  0
 26 27  2  0  0  0
 27 28  1  0  0  0
 28 29  1  0  0  0
 28 30  2  0  0  0
 30 19  1  0  0  0
 19 20  1  0  0  0
 20 21  2  0  0  0
 20  1  1  0  0  0
  1  2  2  0  0  0
  2  3  1  0  0  0
  3  4  2  0  0  0
  4  5  1  0  0  0
  5  6  2  0  0  0
  6 10  1  0  0  0
 10 11  1  0  0  0
 11 12  2  0  0  0
 11 13  1  0  0  0
 13 16  1  0  0  0
 16 17  1  0  0  0
 17 18  1  0  0  0
  6  7  1  0  0  0
  7  8  1  0  0  0
  8  9  2  0  0  0
 30 24  1  0  0  0
  9  1  1  0  0  0
  8  4  1  0  0  0
 18 16  1  0  0  0
 19 22  1  0  0  0
 10 14  1  0  0  0
 13 15  1  0  0  0
M  END
> <minimizedAffinity>
-8.67512

> <CNNscore>
0.5189678669

> <CNNaffinity>
6.3462386131

> <CNN_VS>
3.2934939861

> <CNNaffinity_variance>
0.0911206529

$$$$
[H]c1c([H])c(Cl)c(N([H])C(=O)c2c([H])c([H])c3nc(N([H])C(=O)N([H])C4([H])C([H])([H])C4([H])[H])sc3c2[H])c(C([H])([H])[H])c1[H]


 30 33  0  0  0  0  0  0  0  0999 V2000
  -18.0460   12.4220  -20.1352 C   0  0  0  0  0  0  0  0  0  0  0  0
  -17.0944   11.4233  -20.2659 C   0  0  0  0  0  0  0  0  0  0  0  0
  -16.9938   10.3282  -19.4548 C   0  0  0  0  0  0  0  0  0  0  0  0
  -17.9038   10.1643  -18.3969 C   0  0  0  0  0  0  0  0  0  0  0  0
  -17.9218    9.1681  -17.5480 N   0  0  0  0  0  0  0  0  0  0  0  0
  -18.8311    9.1294  -16.5951 C   0  0  0  0  0  0  0  0  0  0  0  0
  -19.7192   10.5579  -16.8872 S   0  0  0  0  0  0  0  0  0  0  0  0
  -18.8536   11.1358  -18.2452 C   0  0  0  0  0  0  0  0  0  0  0  0
  -18.9333   12.2505  -19.0941 C   0  0  0  0  0  0  0  0  0  0  0  0
  -19.0011    8.1316  -15.5911 N   0  0  0  0  0  0  0  0  0  0  0  0
  -19.0443    8.5083  -14.2283 C   0  0  0  0  0  0  0  0  0  0  0  0
  -18.9353    9.7083  -13.8909 O   0  0  0  0  0  0  0  0  0  0  0  0
  -19.2126    7.5364  -13.2067 N   0  0  0  0  0  0  0  0  0  0  0  0
  -19.0906    7.1440  -15.8740 H   0  0  0  0  0  0  0  0  0  0  0  0
  -19.3034    6.5462  -13.4722 H   0  0  0  0  0  0  0  0  0  0  0  0
  -19.2589    7.9070  -11.8052 C   0  0  0  0  0  0  0  0  0  0  0  0
  -17.9805    7.7292  -11.0539 C   0  0  0  0  0  0  0  0  0  0  0  0
  -19.1433    6.7987  -10.8177 C   0  0  0  0  0  0  0  0  0  0  0  0
  -16.9412   13.9440  -21.7671 N   0  0  0  0  0  0  0  0  0  0  0  0
  -18.0826   13.5519  -21.0403 C   0  0  0  0  0  0  0  0  0  0  0  0
  -19.1434   14.1967  -21.1849 O   0  0  0  0  0  0  0  0  0  0  0  0
  -16.0405   13.4283  -21.6703 H   0  0  0  0  0  0  0  0  0  0  0  0
  -16.4100   16.4650  -20.7335 C   0  0  0  0  0  0  0  0  0  0  0  0
  -16.6892   16.3207  -22.1796 C   0  0  0  0  0  0  0  0  0  0  0  0
  -16.6946   17.4189  -23.0486 C   0  0  0  0  0  0  0  0  0  0  0  0
  -16.9582   17.2551  -24.3927 C   0  0  0  0  0  0  0  0  0  0  0  0
  -17.2171   15.9851  -24.8649 C   0  0  0  0  0  0  0  0  0  0  0  0
  -17.2154   14.8788  -24.0093 C   0  0  0  0  0  0  0  0  0  0  0  0
  -17.5432   13.2646  -24.6029 Cl  0  0  0  0  0  0  0  0  0  0  0  0
  -16.9503   15.0583  -22.6694 C   0  0  0  0  0  0  0  0  0  0  0  0
 23 24  1  0  0  0
 24 25  2  0  0  0
 25 26  1  0  0  0
 26 27  2  0  0  0
 27 28  1  0  0  0
 28 29  1  0  0  0
 28 30  2  0  0  0
 30 19  1  0  0  0
 19 20  1  0  0  0
 20 21  2  0  0  0
 20  1  1  0  0  0
  1  2  2  0  0  0
  2  3  1  0  0  0
  3  4  2  0  0  0
  4  5  1  0  0  0
  5  6  2  0  0  0
  6 10  1  0  0  0
 10 11  1  0  0  0
 11 12  2  0  0  0
 11 13  1  0  0  0
 13 16  1  0  0  0
 16 17  1  0  0  0
 17 18  1  0  0  0
  6  7  1  0  0  0
  7  8  1  0  0  0
  8  9  2  0  0  0
 30 24  1  0  0  0
  9  1  1  0  0  0
  8  4  1  0  0  0
 18 16  1  0  0  0
 19 22  1  0  0  0
 10 14  1  0  0  0
 13 15  1  0  0  0
M  END
> <minimizedAffinity>
-8.63397

> <CNNscore>
0.5149578452

> <CNNaffinity>
6.2920022011

> <CNN_VS>
3.2401158810

> <CNNaffinity_variance>
0.0867244974

$$$$
[H]c1c([H])c(Cl)c(N([H])C(=O)c2c([H])c([H])c3nc(N([H])C(=O)N([H])C4([H])C([H])([H])C4([H])[H])sc3c2[H])c(C([H])([H])[H])c1[H]


 30 33  0  0  0  0  0  0  0  0999 V2000
  -19.6777   11.1787  -17.1701 C   0  0  0  0  0  0  0  0  0  0  0  0
  -19.9776   12.3690  -17.8128 C   0  0  0  0  0  0  0  0  0  0  0  0
  -19.3724   12.8158  -18.9536 C   0  0  0  0  0  0  0  0  0  0  0  0
  -18.3651   12.0403  -19.5522 C   0  0  0  0  0  0  0  0  0  0  0  0
  -17.7058   12.3469  -20.6406 N   0  0  0  0  0  0  0  0  0  0  0  0
  -16.7799   11.5315  -21.1030 C   0  0  0  0  0  0  0  0  0  0  0  0
  -16.8196   10.2596  -19.9649 S   0  0  0  0  0  0  0  0  0  0  0  0
  -18.0493   10.8604  -18.9381 C   0  0  0  0  0  0  0  0  0  0  0  0
  -18.6881   10.4264  -17.7663 C   0  0  0  0  0  0  0  0  0  0  0  0
  -15.9690   11.7003  -22.2635 N   0  0  0  0  0  0  0  0  0  0  0  0
  -16.0661   12.8920  -23.0195 C   0  0  0  0  0  0  0  0  0  0  0  0
  -16.8557   13.8024  -22.6830 O   0  0  0  0  0  0  0  0  0  0  0  0
  -15.2710   13.0878  -24.1797 N   0  0  0  0  0  0  0  0  0  0  0  0
  -15.3197   10.9473  -22.5369 H   0  0  0  0  0  0  0  0  0  0  0  0
  -14.6178   12.3459  -24.4663 H   0  0  0  0  0  0  0  0  0  0  0  0
  -15.3592   14.3040  -24.9651 C   0  0  0  0  0  0  0  0  0  0  0  0
  -14.0603   14.8236  -25.4877 C   0  0  0  0  0  0  0  0  0  0  0  0
  -14.7714   15.5319  -24.3623 C   0  0  0  0  0  0  0  0  0  0  0  0
  -21.7495   11.0082  -15.7994 N   0  0  0  0  0  0  0  0  0  0  0  0
  -20.3690   10.7790  -15.9620 C   0  0  0  0  0  0  0  0  0  0  0  0
  -19.7357   10.2194  -15.0413 O   0  0  0  0  0  0  0  0  0  0  0  0
  -22.3077   11.4724  -16.5473 H   0  0  0  0  0  0  0  0  0  0  0  0
  -22.1926   12.9410  -13.8566 C   0  0  0  0  0  0  0  0  0  0  0  0
  -22.6903   11.5651  -13.6344 C   0  0  0  0  0  0  0  0  0  0  0  0
  -23.3808   11.2035  -12.4709 C   0  0  0  0  0  0  0  0  0  0  0  0
  -23.8335    9.9131  -12.2901 C   0  0  0  0  0  0  0  0  0  0  0  0
  -23.5920    8.9837  -13.2804 C   0  0  0  0  0  0  0  0  0  0  0  0
  -22.9038    9.3298  -14.4477 C   0  0  0  0  0  0  0  0  0  0  0  0
  -22.5943    8.1545  -15.7080 Cl  0  0  0  0  0  0  0  0  0  0  0  0
  -22.4578   10.6227  -14.6139 C   0  0  0  0  0  0  0  0  0  0  0  0
 23 24  1  0  0  0
 24 25  2  0  0  0
 25 26  1  0  0  0
 26 27  2  0  0  0
 27 28  1  0  0  0
 28 29  1  0  0  0
 28 30  2  0  0  0
 30 19  1  0  0  0
 19 20  1  0  0  0
 20 21  2  0  0  0
 20  1  1  0  0  0
  1  2  2  0  0  0
  2  3  1  0  0  0
  3  4  2  0  0  0
  4  5  1  0  0  0
  5  6  2  0  0  0
  6 10  1  0  0  0
 10 11  1  0  0  0
 11 12  2  0  0  0
 11 13  1  0  0  0
 13 16  1  0  0  0
 16 17  1  0  0  0
 17 18  1  0  0  0
  6  7  1  0  0  0
  7  8  1  0  0  0
  8  9  2  0  0  0
 30 24  1  0  0  0
  9  1  1  0  0  0
  8  4  1  0  0  0
 18 16  1  0  0  0
 19 22  1  0  0  0
 10 14  1  0  0  0
 13 15  1  0  0  0
M  END
> <minimizedAffinity>
-7.41151

> <CNNscore>
0.5021508336

> <CNNaffinity>
6.3587551117

> <CNN_VS>
3.1930541992

> <CNNaffinity_variance>
0.1463516951

$$$$
[H]c1c([H])c(Cl)c(N([H])C(=O)c2c([H])c([H])c3nc(N([H])C(=O)N([H])C4([H])C([H])([H])C4([H])[H])sc3c2[H])c(C([H])([H])[H])c1[H]


 30 33  0  0  0  0  0  0  0  0999 V2000
  -19.8297   10.5717  -15.8311 C   0  0  0  0  0  0  0  0  0  0  0  0
  -19.2564    9.3886  -16.2686 C   0  0  0  0  0  0  0  0  0  0  0  0
  -18.5173    9.2529  -17.4099 C   0  0  0  0  0  0  0  0  0  0  0  0
  -18.2984   10.3726  -18.2300 C   0  0  0  0  0  0  0  0  0  0  0  0
  -17.6133   10.3843  -19.3453 N   0  0  0  0  0  0  0  0  0  0  0  0
  -17.4803   11.5044  -20.0264 C   0  0  0  0  0  0  0  0  0  0  0  0
  -18.3557   12.6139  -19.0687 S   0  0  0  0  0  0  0  0  0  0  0  0
  -18.8533   11.5533  -17.8216 C   0  0  0  0  0  0  0  0  0  0  0  0
  -19.6083   11.6632  -16.6437 C   0  0  0  0  0  0  0  0  0  0  0  0
  -16.7763   11.7033  -21.2501 N   0  0  0  0  0  0  0  0  0  0  0  0
  -17.1979   12.7142  -22.1453 C   0  0  0  0  0  0  0  0  0  0  0  0
  -18.1826   13.4381  -21.8774 O   0  0  0  0  0  0  0  0  0  0  0  0
  -16.5160   12.9352  -23.3712 N   0  0  0  0  0  0  0  0  0  0  0  0
  -15.9653   11.1043  -21.4665 H   0  0  0  0  0  0  0  0  0  0  0  0
  -15.7045   12.3459  -23.6024 H   0  0  0  0  0  0  0  0  0  0  0  0
  -16.9362   13.9676  -24.2993 C   0  0  0  0  0  0  0  0  0  0  0  0
  -17.8421   13.5119  -25.3958 C   0  0  0  0  0  0  0  0  0  0  0  0
  -16.4072   13.8723  -25.6878 C   0  0  0  0  0  0  0  0  0  0  0  0
  -20.2554   11.5140  -13.5659 N   0  0  0  0  0  0  0  0  0  0  0  0
  -20.6001   10.6287  -14.6062 C   0  0  0  0  0  0  0  0  0  0  0  0
  -21.5912    9.8812  -14.4615 O   0  0  0  0  0  0  0  0  0  0  0  0
  -19.4350   12.1510  -13.6538 H   0  0  0  0  0  0  0  0  0  0  0  0
  -19.3772   10.0088  -11.4051 C   0  0  0  0  0  0  0  0  0  0  0  0
  -20.5843   10.8519  -11.2560 C   0  0  0  0  0  0  0  0  0  0  0  0
  -21.3022   10.9162  -10.0553 C   0  0  0  0  0  0  0  0  0  0  0  0
  -22.4242   11.7108   -9.9445 C   0  0  0  0  0  0  0  0  0  0  0  0
  -22.8262   12.4426  -11.0426 C   0  0  0  0  0  0  0  0  0  0  0  0
  -22.1196   12.3887  -12.2484 C   0  0  0  0  0  0  0  0  0  0  0  0
  -22.6250   13.3152  -13.6454 Cl  0  0  0  0  0  0  0  0  0  0  0  0
  -21.0008   11.5904  -12.3435 C   0  0  0  0  0  0  0  0  0  0  0  0
 23 24  1  0  0  0
 24 25  2  0  0  0
 25 26  1  0  0  0
 26 27  2  0  0  0
 27 28  1  0  0  0
 28 29  1  0  0  0
 28 30  2  0  0  0
 30 19  1  0  0  0
 19 20  1  0  0  0
 20 21  2  0  0  0
 20  1  1  0  0  0
  1  2  2  0  0  0
  2  3  1  0  0  0
  3  4  2  0  0  0
  4  5  1  0  0  0
  5  6  2  0  0  0
  6 10  1  0  0  0
 10 11  1  0  0  0
 11 12  2  0  0  0
 11 13  1  0  0  0
 13 16  1  0  0  0
 16 17  1  0  0  0
 17 18  1  0  0  0
  6  7  1  0  0  0
  7  8  1  0  0  0
  8  9  2  0  0  0
 30 24  1  0  0  0
  9  1  1  0  0  0
  8  4  1  0  0  0
 18 16  1  0  0  0
 19 22  1  0  0  0
 10 14  1  0  0  0
 13 15  1  0  0  0
M  END
> <minimizedAffinity>
-7.34634

> <CNNscore>
0.4908000231

> <CNNaffinity>
6.1191096306

> <CNN_VS>
3.0032591820

> <CNNaffinity_variance>
0.1603724957

$$$$
[H]c1c([H])c(Cl)c(N([H])C(=O)c2c([H])c([H])c3nc(N([H])C(=O)N([H])C4([H])C([H])([H])C4([H])[H])sc3c2[H])c(C([H])([H])[H])c1[H]


 30 33  0  0  0  0  0  0  0  0999 V2000
  -16.6628   12.0430  -21.8078 C   0  0  0  0  0  0  0  0  0  0  0  0
  -16.0540   10.8892  -21.3408 C   0  0  0  0  0  0  0  0  0  0  0  0
  -16.3886   10.2414  -20.1850 C   0  0  0  0  0  0  0  0  0  0  0  0
  -17.4221   10.7503  -19.3805 C   0  0  0  0  0  0  0  0  0  0  0  0
  -17.8429   10.2328  -18.2542 N   0  0  0  0  0  0  0  0  0  0  0  0
  -18.8250   10.8077  -17.5901 C   0  0  0  0  0  0  0  0  0  0  0  0
  -19.1931   12.1483  -18.5811 S   0  0  0  0  0  0  0  0  0  0  0  0
  -18.0399   11.8885  -19.8182 C   0  0  0  0  0  0  0  0  0  0  0  0
  -17.6751   12.5329  -21.0103 C   0  0  0  0  0  0  0  0  0  0  0  0
  -19.4081   10.3888  -16.3583 N   0  0  0  0  0  0  0  0  0  0  0  0
  -19.6060    9.0105  -16.1091 C   0  0  0  0  0  0  0  0  0  0  0  0
  -19.2755    8.1516  -16.9568 O   0  0  0  0  0  0  0  0  0  0  0  0
  -20.1843    8.5641  -14.8914 N   0  0  0  0  0  0  0  0  0  0  0  0
  -19.6788   11.1003  -15.6627 H   0  0  0  0  0  0  0  0  0  0  0  0
  -20.4602    9.2614  -14.1865 H   0  0  0  0  0  0  0  0  0  0  0  0
  -20.3937    7.1545  -14.6213 C   0  0  0  0  0  0  0  0  0  0  0  0
  -21.7193    6.6120  -15.0442 C   0  0  0  0  0  0  0  0  0  0  0  0
  -21.4065    6.8171  -13.5834 C   0  0  0  0  0  0  0  0  0  0  0  0
  -17.0771   13.5849  -23.7185 N   0  0  0  0  0  0  0  0  0  0  0  0
  -16.2461   12.6673  -23.0462 C   0  0  0  0  0  0  0  0  0  0  0  0
  -15.1290   12.3918  -23.5345 O   0  0  0  0  0  0  0  0  0  0  0  0
  -18.0147   13.8370  -23.3391 H   0  0  0  0  0  0  0  0  0  0  0  0
  -17.7422   12.3273  -26.1022 C   0  0  0  0  0  0  0  0  0  0  0  0
  -17.0081   13.6115  -26.1427 C   0  0  0  0  0  0  0  0  0  0  0  0
  -16.6356   14.2168  -27.3495 C   0  0  0  0  0  0  0  0  0  0  0  0
  -15.9514   15.4146  -27.3575 C   0  0  0  0  0  0  0  0  0  0  0  0
  -15.6407   16.0058  -26.1505 C   0  0  0  0  0  0  0  0  0  0  0  0
  -16.0059   15.4134  -24.9374 C   0  0  0  0  0  0  0  0  0  0  0  0
  -15.6143   16.1590  -23.4025 Cl  0  0  0  0  0  0  0  0  0  0  0  0
  -16.6889   14.2170  -24.9456 C   0  0  0  0  0  0  0  0  0  0  0  0
 23 24  1  0  0  0
 24 25  2  0  0  0
 25 26  1  0  0  0
 26 27  2  0  0  0
 27 28  1  0  0  0
 28 29  1  0  0  0
 28 30  2  0  0  0
 30 19  1  0  0  0
 19 20  1  0  0  0
 20 21  2  0  0  0
 20  1  1  0  0  0
  1  2  2  0  0  0
  2  3  1  0  0  0
  3  4  2  0  0  0
  4  5  1  0  0  0
  5  6  2  0  0  0
  6 10  1  0  0  0
 10 11  1  0  0  0
 11 12  2  0  0  0
 11 13  1  0  0  0
 13 16  1  0  0  0
 16 17  1  0  0  0
 17 18  1  0  0  0
  6  7  1  0  0  0
  7  8  1  0  0  0
  8  9  2  0  0  0
 30 24  1  0  0  0
  9  1  1  0  0  0
  8  4  1  0  0  0
 18 16  1  0  0  0
 19 22  1  0  0  0
 10 14  1  0  0  0
 13 15  1  0  0  0
M  END
> <minimizedAffinity>
-9.69533

> <CNNscore>
0.4735546708

> <CNNaffinity>
6.6288785934

> <CNN_VS>
3.1391363144

> <CNNaffinity_variance>
0.2383523434

$$$$
[H]c1nc(N([H])[H])c2c(-c3c([H])c([H])c(Oc4c([H])c([H])c([H])c([H])c4[H])c([H])c3[H])c([H])n(C3([H])C([H])([H])C([H])([H])C([H])([H])C3([H])[H])c2n1


 30 34  0  0  0  0  0  0  0  0999 V2000
  -17.0168    9.9816  -18.4198 N   0  0  0  0  0  0  0  0  0  0  0  0
  -16.6448   10.4873  -19.6888 C   0  0  0  0  0  0  0  0  0  0  0  0
  -15.7076    9.8441  -20.4430 N   0  0  0  0  0  0  0  0  0  0  0  0
  -15.3552   10.3562  -21.6270 C   0  0  0  0  0  0  0  0  0  0  0  0
  -15.9038   11.4886  -22.0880 N   0  0  0  0  0  0  0  0  0  0  0  0
  -16.8375   12.1470  -21.3580 C   0  0  0  0  0  0  0  0  0  0  0  0
  -17.5286   13.2841  -21.5702 N   0  0  0  0  0  0  0  0  0  0  0  0
  -18.3310   13.5143  -20.5312 C   0  0  0  0  0  0  0  0  0  0  0  0
  -18.1766   12.4916  -19.5791 C   0  0  0  0  0  0  0  0  0  0  0  0
  -17.2380   11.6538  -20.1204 C   0  0  0  0  0  0  0  0  0  0  0  0
  -16.7564   10.5003  -17.5696 H   0  0  0  0  0  0  0  0  0  0  0  0
  -17.5490    9.0910  -18.3659 H   0  0  0  0  0  0  0  0  0  0  0  0
  -18.9262   12.3877  -18.3299 C   0  0  0  0  0  0  0  0  0  0  0  0
  -19.6444   11.2839  -17.9403 C   0  0  0  0  0  0  0  0  0  0  0  0
  -20.3139   11.2589  -16.7432 C   0  0  0  0  0  0  0  0  0  0  0  0
  -20.2805   12.3478  -15.9004 C   0  0  0  0  0  0  0  0  0  0  0  0
  -19.5681   13.4704  -16.2647 C   0  0  0  0  0  0  0  0  0  0  0  0
  -18.9070   13.4736  -17.4643 C   0  0  0  0  0  0  0  0  0  0  0  0
  -20.9701   12.2670  -14.7130 O   0  0  0  0  0  0  0  0  0  0  0  0
  -20.7453   11.1999  -13.8253 C   0  0  0  0  0  0  0  0  0  0  0  0
  -19.5282   11.0221  -13.2104 C   0  0  0  0  0  0  0  0  0  0  0  0
  -19.2915    9.9792  -12.3362 C   0  0  0  0  0  0  0  0  0  0  0  0
  -20.3065    9.0726  -12.0598 C   0  0  0  0  0  0  0  0  0  0  0  0
  -21.5257    9.2534  -12.6779 C   0  0  0  0  0  0  0  0  0  0  0  0
  -21.7387   10.3028  -13.5475 C   0  0  0  0  0  0  0  0  0  0  0  0
  -17.3434   14.0576  -22.7846 C   0  0  0  0  0  0  0  0  0  0  0  0
  -18.3235   15.2119  -22.8586 C   0  0  0  0  0  0  0  0  0  0  0  0
  -18.1772   15.6314  -24.3247 C   0  0  0  0  0  0  0  0  0  0  0  0
  -17.7750   14.3772  -25.0696 C   0  0  0  0  0  0  0  0  0  0  0  0
  -17.6630   13.2805  -24.0249 C   0  0  0  0  0  0  0  0  0  0  0  0
  1  2  1  0  0  0
  2  3  2  0  0  0
  3  4  1  0  0  0
  4  5  2  0  0  0
  5  6  1  0  0  0
  6  7  1  0  0  0
  7  8  1  0  0  0
  8  9  2  0  0  0
  9 13  1  0  0  0
 13 14  2  0  0  0
 14 15  1  0  0  0
 15 16  2  0  0  0
 16 19  1  0  0  0
 19 20  1  0  0  0
 20 21  2  0  0  0
 21 22  1  0  0  0
 22 23  2  0  0  0
 23 24  1  0  0  0
 24 25  2  0  0  0
 16 17  1  0  0  0
 17 18  2  0  0  0
  9 10  1  0  0  0
  7 26  1  0  0  0
 26 27  1  0  0  0
 27 28  1  0  0  0
 28 29  1  0  0  0
 29 30  1  0  0  0
 10  2  1  0  0  0
 30 26  1  0  0  0
 10  6  2  0  0  0
 18 13  1  0  0  0
 25 20  1  0  0  0
  1 11  1  0  0  0
  1 12  1  0  0  0
M  END
> <minimizedAffinity>
-8.37429

> <CNNscore>
0.8911692500

> <CNNaffinity>
7.1810188293

> <CNN_VS>
6.3995032310

> <CNNaffinity_variance>
0.2083892375

$$$$
[H]c1nc(N([H])[H])c2c(-c3c([H])c([H])c(Oc4c([H])c([H])c([H])c([H])c4[H])c([H])c3[H])c([H])n(C3([H])C([H])([H])C([H])([H])C([H])([H])C3([H])[H])c2n1


 30 34  0  0  0  0  0  0  0  0999 V2000
  -16.8731   10.0404  -18.5709 N   0  0  0  0  0  0  0  0  0  0  0  0
  -16.5105   10.5449  -19.8431 C   0  0  0  0  0  0  0  0  0  0  0  0
  -15.5868    9.8949  -20.6083 N   0  0  0  0  0  0  0  0  0  0  0  0
  -15.2429   10.4058  -21.7953 C   0  0  0  0  0  0  0  0  0  0  0  0
  -15.7869   11.5435  -22.2488 N   0  0  0  0  0  0  0  0  0  0  0  0
  -16.7072   12.2085  -21.5079 C   0  0  0  0  0  0  0  0  0  0  0  0
  -17.3910   13.3517  -21.7111 N   0  0  0  0  0  0  0  0  0  0  0  0
  -18.1803   13.5871  -20.6633 C   0  0  0  0  0  0  0  0  0  0  0  0
  -18.0242   12.5617  -19.7142 C   0  0  0  0  0  0  0  0  0  0  0  0
  -17.0985   11.7169  -20.2667 C   0  0  0  0  0  0  0  0  0  0  0  0
  -16.5992   10.5557  -17.7229 H   0  0  0  0  0  0  0  0  0  0  0  0
  -17.4121    9.1543  -18.5125 H   0  0  0  0  0  0  0  0  0  0  0  0
  -18.7612   12.4623  -18.4572 C   0  0  0  0  0  0  0  0  0  0  0  0
  -19.6104   11.4339  -18.1298 C   0  0  0  0  0  0  0  0  0  0  0  0
  -20.2586   11.4060  -16.9211 C   0  0  0  0  0  0  0  0  0  0  0  0
  -20.0707   12.4159  -16.0035 C   0  0  0  0  0  0  0  0  0  0  0  0
  -19.2245   13.4617  -16.3042 C   0  0  0  0  0  0  0  0  0  0  0  0
  -18.5874   13.4693  -17.5167 C   0  0  0  0  0  0  0  0  0  0  0  0
  -20.7463   12.3362  -14.8079 O   0  0  0  0  0  0  0  0  0  0  0  0
  -21.9563   13.0279  -14.6214 C   0  0  0  0  0  0  0  0  0  0  0  0
  -22.2206   14.2033  -15.2842 C   0  0  0  0  0  0  0  0  0  0  0  0
  -23.4040   14.8946  -15.1119 C   0  0  0  0  0  0  0  0  0  0  0  0
  -24.3677   14.3981  -14.2439 C   0  0  0  0  0  0  0  0  0  0  0  0
  -24.0998   13.2193  -13.5807 C   0  0  0  0  0  0  0  0  0  0  0  0
  -22.9104   12.5465  -13.7689 C   0  0  0  0  0  0  0  0  0  0  0  0
  -17.2123   14.1254  -22.9263 C   0  0  0  0  0  0  0  0  0  0  0  0
  -16.0499   15.0906  -22.8003 C   0  0  0  0  0  0  0  0  0  0  0  0
  -16.2862   15.9987  -24.0113 C   0  0  0  0  0  0  0  0  0  0  0  0
  -17.7799   15.9779  -24.2515 C   0  0  0  0  0  0  0  0  0  0  0  0
  -18.3645   15.0403  -23.2093 C   0  0  0  0  0  0  0  0  0  0  0  0
  1  2  1  0  0  0
  2  3  2  0  0  0
  3  4  1  0  0  0
  4  5  2  0  0  0
  5  6  1  0  0  0
  6  7  1  0  0  0
  7  8  1  0  0  0
  8  9  2  0  0  0
  9 13  1  0  0  0
 13 14  2  0  0  0
 14 15  1  0  0  0
 15 16  2  0  0  0
 16 19  1  0  0  0
 19 20  1  0  0  0
 20 21  2  0  0  0
 21 22  1  0  0  0
 22 23  2  0  0  0
 23 24  1  0  0  0
 24 25  2  0  0  0
 16 17  1  0  0  0
 17 18  2  0  0  0
  9 10  1  0  0  0
  7 26  1  0  0  0
 26 27  1  0  0  0
 27 28  1  0  0  0
 28 29  1  0  0  0
 29 30  1  0  0  0
 10  2  1  0  0  0
 30 26  1  0  0  0
 10  6  2  0  0  0
 18 13  1  0  0  0
 25 20  1  0  0  0
  1 11  1  0  0  0
  1 12  1  0  0  0
M  END
> <minimizedAffinity>
-7.49861

> <CNNscore>
0.7519383430

> <CNNaffinity>
6.9096498489

> <CNN_VS>
5.1956305504

> <CNNaffinity_variance>
0.1744066030

$$$$
[H]c1nc(N([H])[H])c2c(-c3c([H])c([H])c(Oc4c([H])c([H])c([H])c([H])c4[H])c([H])c3[H])c([H])n(C3([H])C([H])([H])C([H])([H])C([H])([H])C3([H])[H])c2n1


 30 34  0  0  0  0  0  0  0  0999 V2000
  -16.5587    9.7503  -19.5597 N   0  0  0  0  0  0  0  0  0  0  0  0
  -16.3825   10.6840  -20.6093 C   0  0  0  0  0  0  0  0  0  0  0  0
  -15.4511   10.4651  -21.5817 N   0  0  0  0  0  0  0  0  0  0  0  0
  -15.2866   11.3748  -22.5480 C   0  0  0  0  0  0  0  0  0  0  0  0
  -16.0179   12.4973  -22.5808 N   0  0  0  0  0  0  0  0  0  0  0  0
  -16.9502   12.7385  -21.6265 C   0  0  0  0  0  0  0  0  0  0  0  0
  -17.7978   13.7645  -21.4156 N   0  0  0  0  0  0  0  0  0  0  0  0
  -18.5153   13.5269  -20.3179 C   0  0  0  0  0  0  0  0  0  0  0  0
  -18.1379   12.2906  -19.7650 C   0  0  0  0  0  0  0  0  0  0  0  0
  -17.1592   11.8222  -20.6008 C   0  0  0  0  0  0  0  0  0  0  0  0
  -16.2828   10.0050  -18.6012 H   0  0  0  0  0  0  0  0  0  0  0  0
  -16.9654    8.8187  -19.7738 H   0  0  0  0  0  0  0  0  0  0  0  0
  -18.7398   11.6816  -18.5818 C   0  0  0  0  0  0  0  0  0  0  0  0
  -18.5578   10.3756  -18.1981 C   0  0  0  0  0  0  0  0  0  0  0  0
  -19.1492    9.8799  -17.0641 C   0  0  0  0  0  0  0  0  0  0  0  0
  -19.9443   10.6866  -16.2802 C   0  0  0  0  0  0  0  0  0  0  0  0
  -20.1458   12.0020  -16.6402 C   0  0  0  0  0  0  0  0  0  0  0  0
  -19.5455   12.4761  -17.7764 C   0  0  0  0  0  0  0  0  0  0  0  0
  -20.5118   10.1364  -15.1545 O   0  0  0  0  0  0  0  0  0  0  0  0
  -21.8981   10.2239  -14.9354 C   0  0  0  0  0  0  0  0  0  0  0  0
  -22.4175   10.9983  -13.9248 C   0  0  0  0  0  0  0  0  0  0  0  0
  -23.7764   11.0947  -13.6967 C   0  0  0  0  0  0  0  0  0  0  0  0
  -24.6590   10.3919  -14.5065 C   0  0  0  0  0  0  0  0  0  0  0  0
  -24.1351    9.6162  -15.5190 C   0  0  0  0  0  0  0  0  0  0  0  0
  -22.7740    9.5355  -15.7276 C   0  0  0  0  0  0  0  0  0  0  0  0
  -17.8345   14.9028  -22.3158 C   0  0  0  0  0  0  0  0  0  0  0  0
  -18.9185   15.8857  -21.9187 C   0  0  0  0  0  0  0  0  0  0  0  0
  -18.9917   16.7673  -23.1694 C   0  0  0  0  0  0  0  0  0  0  0  0
  -18.5700   15.8793  -24.3197 C   0  0  0  0  0  0  0  0  0  0  0  0
  -18.2306   14.5295  -23.7116 C   0  0  0  0  0  0  0  0  0  0  0  0
  1  2  1  0  0  0
  2  3  2  0  0  0
  3  4  1  0  0  0
  4  5  2  0  0  0
  5  6  1  0  0  0
  6  7  1  0  0  0
  7  8  1  0  0  0
  8  9  2  0  0  0
  9 13  1  0  0  0
 13 14  2  0  0  0
 14 15  1  0  0  0
 15 16  2  0  0  0
 16 19  1  0  0  0
 19 20  1  0  0  0
 20 21  2  0  0  0
 21 22  1  0  0  0
 22 23  2  0  0  0
 23 24  1  0  0  0
 24 25  2  0  0  0
 16 17  1  0  0  0
 17 18  2  0  0  0
  9 10  1  0  0  0
  7 26  1  0  0  0
 26 27  1  0  0  0
 27 28  1  0  0  0
 28 29  1  0  0  0
 29 30  1  0  0  0
 10  2  1  0  0  0
 30 26  1  0  0  0
 10  6  2  0  0  0
 18 13  1  0  0  0
 25 20  1  0  0  0
  1 11  1  0  0  0
  1 12  1  0  0  0
M  END
> <minimizedAffinity>
-8.20453

> <CNNscore>
0.7272725105

> <CNNaffinity>
7.0045599937

> <CNN_VS>
5.0942239761

> <CNNaffinity_variance>
0.3479512334

$$$$
[H]c1nc(N([H])[H])c2c(-c3c([H])c([H])c(Oc4c([H])c([H])c([H])c([H])c4[H])c([H])c3[H])c([H])n(C3([H])C([H])([H])C([H])([H])C([H])([H])C3([H])[H])c2n1


 30 34  0  0  0  0  0  0  0  0999 V2000
  -17.5810   11.3066  -18.9934 N   0  0  0  0  0  0  0  0  0  0  0  0
  -16.8646   11.2792  -20.2142 C   0  0  0  0  0  0  0  0  0  0  0  0
  -15.9816   10.2729  -20.4765 N   0  0  0  0  0  0  0  0  0  0  0  0
  -15.2985   10.2836  -21.6261 C   0  0  0  0  0  0  0  0  0  0  0  0
  -15.4633   11.2629  -22.5260 N   0  0  0  0  0  0  0  0  0  0  0  0
  -16.3347   12.2742  -22.2896 C   0  0  0  0  0  0  0  0  0  0  0  0
  -16.6815   13.3662  -22.9987 N   0  0  0  0  0  0  0  0  0  0  0  0
  -17.5888   14.0659  -22.3178 C   0  0  0  0  0  0  0  0  0  0  0  0
  -17.8668   13.4207  -21.1001 C   0  0  0  0  0  0  0  0  0  0  0  0
  -17.0694   12.3072  -21.1087 C   0  0  0  0  0  0  0  0  0  0  0  0
  -17.3714   12.0354  -18.2973 H   0  0  0  0  0  0  0  0  0  0  0  0
  -18.3103   10.5878  -18.8181 H   0  0  0  0  0  0  0  0  0  0  0  0
  -18.8433   13.8747  -20.1136 C   0  0  0  0  0  0  0  0  0  0  0  0
  -20.1845   13.5820  -20.1512 C   0  0  0  0  0  0  0  0  0  0  0  0
  -21.0379   14.0368  -19.1783 C   0  0  0  0  0  0  0  0  0  0  0  0
  -20.5651   14.8024  -18.1354 C   0  0  0  0  0  0  0  0  0  0  0  0
  -19.2235   15.1129  -18.0711 C   0  0  0  0  0  0  0  0  0  0  0  0
  -18.3894   14.6482  -19.0531 C   0  0  0  0  0  0  0  0  0  0  0  0
  -21.4660   15.2310  -17.1884 O   0  0  0  0  0  0  0  0  0  0  0  0
  -21.4139   16.5463  -16.6938 C   0  0  0  0  0  0  0  0  0  0  0  0
  -21.0141   16.8133  -15.4055 C   0  0  0  0  0  0  0  0  0  0  0  0
  -20.9576   18.0994  -14.9048 C   0  0  0  0  0  0  0  0  0  0  0  0
  -21.3136   19.1677  -15.7175 C   0  0  0  0  0  0  0  0  0  0  0  0
  -21.7141   18.8968  -17.0088 C   0  0  0  0  0  0  0  0  0  0  0  0
  -21.7625   17.6037  -17.4868 C   0  0  0  0  0  0  0  0  0  0  0  0
  -16.0896   13.6356  -24.2966 C   0  0  0  0  0  0  0  0  0  0  0  0
  -14.8676   14.5245  -24.1721 C   0  0  0  0  0  0  0  0  0  0  0  0
  -14.6537   14.9401  -25.6310 C   0  0  0  0  0  0  0  0  0  0  0  0
  -16.0244   14.9040  -26.2707 C   0  0  0  0  0  0  0  0  0  0  0  0
  -16.9850   14.4382  -25.1902 C   0  0  0  0  0  0  0  0  0  0  0  0
  1  2  1  0  0  0
  2  3  2  0  0  0
  3  4  1  0  0  0
  4  5  2  0  0  0
  5  6  1  0  0  0
  6  7  1  0  0  0
  7  8  1  0  0  0
  8  9  2  0  0  0
  9 13  1  0  0  0
 13 14  2  0  0  0
 14 15  1  0  0  0
 15 16  2  0  0  0
 16 19  1  0  0  0
 19 20  1  0  0  0
 20 21  2  0  0  0
 21 22  1  0  0  0
 22 23  2  0  0  0
 23 24  1  0  0  0
 24 25  2  0  0  0
 16 17  1  0  0  0
 17 18  2  0  0  0
  9 10  1  0  0  0
  7 26  1  0  0  0
 26 27  1  0  0  0
 27 28  1  0  0  0
 28 29  1  0  0  0
 29 30  1  0  0  0
 10  2  1  0  0  0
 30 26  1  0  0  0
 10  6  2  0  0  0
 18 13  1  0  0  0
 25 20  1  0  0  0
  1 11  1  0  0  0
  1 12  1  0  0  0
M  END
> <minimizedAffinity>
-8.17048

> <CNNscore>
0.6812921166

> <CNNaffinity>
7.0875883102

> <CNN_VS>
4.8287181854

> <CNNaffinity_variance>
0.3128967881

$$$$
[H]c1nc(N([H])[H])c2c(-c3c([H])c([H])c(Oc4c([H])c([H])c([H])c([H])c4[H])c([H])c3[H])c([H])n(C3([H])C([H])([H])C([H])([H])C([H])([H])C3([H])[H])c2n1


 30 34  0  0  0  0  0  0  0  0999 V2000
  -17.6656    9.5625  -17.7491 N   0  0  0  0  0  0  0  0  0  0  0  0
  -17.7944   10.4778  -18.8215 C   0  0  0  0  0  0  0  0  0  0  0  0
  -17.0301   10.3421  -19.9433 N   0  0  0  0  0  0  0  0  0  0  0  0
  -17.1526   11.2348  -20.9315 C   0  0  0  0  0  0  0  0  0  0  0  0
  -18.0107   12.2602  -20.8424 N   0  0  0  0  0  0  0  0  0  0  0  0
  -18.7818   12.4174  -19.7384 C   0  0  0  0  0  0  0  0  0  0  0  0
  -19.6985   13.3407  -19.3880 N   0  0  0  0  0  0  0  0  0  0  0  0
  -20.1755   13.0528  -18.1772 C   0  0  0  0  0  0  0  0  0  0  0  0
  -19.5569   11.8882  -17.6901 C   0  0  0  0  0  0  0  0  0  0  0  0
  -18.6915   11.5147  -18.6838 C   0  0  0  0  0  0  0  0  0  0  0  0
  -17.2578    9.8776  -16.8580 H   0  0  0  0  0  0  0  0  0  0  0  0
  -17.9858    8.5828  -17.8785 H   0  0  0  0  0  0  0  0  0  0  0  0
  -19.8601   11.2482  -16.4128 C   0  0  0  0  0  0  0  0  0  0  0  0
  -19.5521   11.7761  -15.1829 C   0  0  0  0  0  0  0  0  0  0  0  0
  -19.8817   11.1180  -14.0253 C   0  0  0  0  0  0  0  0  0  0  0  0
  -20.5329    9.9051  -14.0715 C   0  0  0  0  0  0  0  0  0  0  0  0
  -20.8548    9.3501  -15.2917 C   0  0  0  0  0  0  0  0  0  0  0  0
  -20.5164   10.0244  -16.4348 C   0  0  0  0  0  0  0  0  0  0  0  0
  -20.8387    9.2903  -12.8796 O   0  0  0  0  0  0  0  0  0  0  0  0
  -19.8247    8.9613  -11.9626 C   0  0  0  0  0  0  0  0  0  0  0  0
  -18.9335    7.9443  -12.2123 C   0  0  0  0  0  0  0  0  0  0  0  0
  -17.9322    7.6090  -11.3219 C   0  0  0  0  0  0  0  0  0  0  0  0
  -17.8094    8.3133  -10.1313 C   0  0  0  0  0  0  0  0  0  0  0  0
  -18.7045    9.3325   -9.8837 C   0  0  0  0  0  0  0  0  0  0  0  0
  -19.6966    9.6493  -10.7883 C   0  0  0  0  0  0  0  0  0  0  0  0
  -20.0339   14.4382  -20.2769 C   0  0  0  0  0  0  0  0  0  0  0  0
  -18.9695   15.5176  -20.2473 C   0  0  0  0  0  0  0  0  0  0  0  0
  -19.6956   16.6691  -20.9499 C   0  0  0  0  0  0  0  0  0  0  0  0
  -21.1668   16.4568  -20.6671 C   0  0  0  0  0  0  0  0  0  0  0  0
  -21.2618   15.1816  -19.8475 C   0  0  0  0  0  0  0  0  0  0  0  0
  1  2  1  0  0  0
  2  3  2  0  0  0
  3  4  1  0  0  0
  4  5  2  0  0  0
  5  6  1  0  0  0
  6  7  1  0  0  0
  7  8  1  0  0  0
  8  9  2  0  0  0
  9 13  1  0  0  0
 13 14  2  0  0  0
 14 15  1  0  0  0
 15 16  2  0  0  0
 16 19  1  0  0  0
 19 20  1  0  0  0
 20 21  2  0  0  0
 21 22  1  0  0  0
 22 23  2  0  0  0
 23 24  1  0  0  0
 24 25  2  0  0  0
 16 17  1  0  0  0
 17 18  2  0  0  0
  9 10  1  0  0  0
  7 26  1  0  0  0
 26 27  1  0  0  0
 27 28  1  0  0  0
 28 29  1  0  0  0
 29 30  1  0  0  0
 10  2  1  0  0  0
 30 26  1  0  0  0
 10  6  2  0  0  0
 18 13  1  0  0  0
 25 20  1  0  0  0
  1 11  1  0  0  0
  1 12  1  0  0  0
M  END
> <minimizedAffinity>
-7.20583

> <CNNscore>
0.6420018673

> <CNNaffinity>
6.7046976089

> <CNN_VS>
4.3044285774

> <CNNaffinity_variance>
0.3810425103

$$$$
[H]c1nc(N([H])[H])c2c(-c3c([H])c([H])c(Oc4c([H])c([H])c([H])c([H])c4[H])c([H])c3[H])c([H])n(C3([H])C([H])([H])C([H])([H])C([H])([H])C3([H])[H])c2n1


 30 34  0  0  0  0  0  0  0  0999 V2000
  -17.5503   11.2764  -19.0629 N   0  0  0  0  0  0  0  0  0  0  0  0
  -16.8236   11.2721  -20.2780 C   0  0  0  0  0  0  0  0  0  0  0  0
  -15.9375   10.2715  -20.5514 N   0  0  0  0  0  0  0  0  0  0  0  0
  -15.2449   10.3041  -21.6948 C   0  0  0  0  0  0  0  0  0  0  0  0
  -15.4031   11.2996  -22.5778 N   0  0  0  0  0  0  0  0  0  0  0  0
  -16.2775   12.3057  -22.3301 C   0  0  0  0  0  0  0  0  0  0  0  0
  -16.6194   13.4104  -23.0218 N   0  0  0  0  0  0  0  0  0  0  0  0
  -17.5330   14.0966  -22.3357 C   0  0  0  0  0  0  0  0  0  0  0  0
  -17.8205   13.4289  -21.1324 C   0  0  0  0  0  0  0  0  0  0  0  0
  -17.0220   12.3163  -21.1549 C   0  0  0  0  0  0  0  0  0  0  0  0
  -17.3471   11.9923  -18.3517 H   0  0  0  0  0  0  0  0  0  0  0  0
  -18.2802   10.5539  -18.9070 H   0  0  0  0  0  0  0  0  0  0  0  0
  -18.8056   13.8638  -20.1459 C   0  0  0  0  0  0  0  0  0  0  0  0
  -20.1449   13.5641  -20.1959 C   0  0  0  0  0  0  0  0  0  0  0  0
  -21.0068   14.0006  -19.2221 C   0  0  0  0  0  0  0  0  0  0  0  0
  -20.5448   14.7545  -18.1659 C   0  0  0  0  0  0  0  0  0  0  0  0
  -19.2054   15.0715  -18.0889 C   0  0  0  0  0  0  0  0  0  0  0  0
  -18.3626   14.6250  -19.0720 C   0  0  0  0  0  0  0  0  0  0  0  0
  -21.4539   15.1649  -17.2187 O   0  0  0  0  0  0  0  0  0  0  0  0
  -21.7019   14.3820  -16.0773 C   0  0  0  0  0  0  0  0  0  0  0  0
  -21.2072   13.1041  -15.9622 C   0  0  0  0  0  0  0  0  0  0  0  0
  -21.4418   12.3224  -14.8478 C   0  0  0  0  0  0  0  0  0  0  0  0
  -22.2006   12.8305  -13.8015 C   0  0  0  0  0  0  0  0  0  0  0  0
  -22.6953   14.1121  -13.9199 C   0  0  0  0  0  0  0  0  0  0  0  0
  -22.4477   14.8741  -15.0428 C   0  0  0  0  0  0  0  0  0  0  0  0
  -16.0169   13.7042  -24.3094 C   0  0  0  0  0  0  0  0  0  0  0  0
  -14.7859   14.5761  -24.1567 C   0  0  0  0  0  0  0  0  0  0  0  0
  -14.5589   15.0242  -25.6040 C   0  0  0  0  0  0  0  0  0  0  0  0
  -15.9262   15.0188  -26.2520 C   0  0  0  0  0  0  0  0  0  0  0  0
  -16.8981   14.5380  -25.1885 C   0  0  0  0  0  0  0  0  0  0  0  0
  1  2  1  0  0  0
  2  3  2  0  0  0
  3  4  1  0  0  0
  4  5  2  0  0  0
  5  6  1  0  0  0
  6  7  1  0  0  0
  7  8  1  0  0  0
  8  9  2  0  0  0
  9 13  1  0  0  0
 13 14  2  0  0  0
 14 15  1  0  0  0
 15 16  2  0  0  0
 16 19  1  0  0  0
 19 20  1  0  0  0
 20 21  2  0  0  0
 21 22  1  0  0  0
 22 23  2  0  0  0
 23 24  1  0  0  0
 24 25  2  0  0  0
 16 17  1  0  0  0
 17 18  2  0  0  0
  9 10  1  0  0  0
  7 26  1  0  0  0
 26 27  1  0  0  0
 27 28  1  0  0  0
 28 29  1  0  0  0
 29 30  1  0  0  0
 10  2  1  0  0  0
 30 26  1  0  0  0
 10  6  2  0  0  0
 18 13  1  0  0  0
 25 20  1  0  0  0
  1 11  1  0  0  0
  1 12  1  0  0  0
M  END
> <minimizedAffinity>
-8.52498

> <CNNscore>
0.6264430881

> <CNNaffinity>
6.9342718124

> <CNN_VS>
4.3439264297

> <CNNaffinity_variance>
0.2212493122

$$$$
[H]c1nc(N([H])[H])c2c(-c3c([H])c([H])c(Oc4c([H])c([H])c([H])c([H])c4[H])c([H])c3[H])c([H])n(C3([H])C([H])([H])C([H])([H])C([H])([H])C3([H])[H])c2n1


 30 34  0  0  0  0  0  0  0  0999 V2000
  -18.2354   11.7244  -18.2951 N   0  0  0  0  0  0  0  0  0  0  0  0
  -17.5353   11.4899  -19.5031 C   0  0  0  0  0  0  0  0  0  0  0  0
  -16.7885   10.3593  -19.6625 N   0  0  0  0  0  0  0  0  0  0  0  0
  -16.1162   10.1736  -20.8034 C   0  0  0  0  0  0  0  0  0  0  0  0
  -16.1607   11.0754  -21.7937 N   0  0  0  0  0  0  0  0  0  0  0  0
  -16.8955   12.2069  -21.6605 C   0  0  0  0  0  0  0  0  0  0  0  0
  -17.1051   13.2613  -22.4729 N   0  0  0  0  0  0  0  0  0  0  0  0
  -17.9124   14.1322  -21.8678 C   0  0  0  0  0  0  0  0  0  0  0  0
  -18.2629   13.6468  -20.5958 C   0  0  0  0  0  0  0  0  0  0  0  0
  -17.6132   12.4454  -20.4929 C   0  0  0  0  0  0  0  0  0  0  0  0
  -17.9311   12.4838  -17.6704 H   0  0  0  0  0  0  0  0  0  0  0  0
  -19.0489   11.1239  -18.0567 H   0  0  0  0  0  0  0  0  0  0  0  0
  -19.1683   14.3130  -19.6634 C   0  0  0  0  0  0  0  0  0  0  0  0
  -20.5238   14.1003  -19.6053 C   0  0  0  0  0  0  0  0  0  0  0  0
  -21.3069   14.7577  -18.6908 C   0  0  0  0  0  0  0  0  0  0  0  0
  -20.7471   15.6516  -17.8050 C   0  0  0  0  0  0  0  0  0  0  0  0
  -19.3891   15.8860  -17.8396 C   0  0  0  0  0  0  0  0  0  0  0  0
  -18.6261   15.2187  -18.7608 C   0  0  0  0  0  0  0  0  0  0  0  0
  -21.5801   16.2818  -16.9100 O   0  0  0  0  0  0  0  0  0  0  0  0
  -21.1137   17.3556  -16.1310 C   0  0  0  0  0  0  0  0  0  0  0  0
  -21.0562   18.6346  -16.6329 C   0  0  0  0  0  0  0  0  0  0  0  0
  -20.6006   19.6997  -15.8808 C   0  0  0  0  0  0  0  0  0  0  0  0
  -20.1835   19.4871  -14.5733 C   0  0  0  0  0  0  0  0  0  0  0  0
  -20.2423   18.2036  -14.0729 C   0  0  0  0  0  0  0  0  0  0  0  0
  -20.7012   17.1553  -14.8433 C   0  0  0  0  0  0  0  0  0  0  0  0
  -16.4912   13.3284  -23.7867 C   0  0  0  0  0  0  0  0  0  0  0  0
  -15.3211   14.2924  -23.8007 C   0  0  0  0  0  0  0  0  0  0  0  0
  -15.0876   14.4532  -25.3062 C   0  0  0  0  0  0  0  0  0  0  0  0
  -16.4359   14.2269  -25.9546 C   0  0  0  0  0  0  0  0  0  0  0  0
  -17.4013   13.9076  -24.8263 C   0  0  0  0  0  0  0  0  0  0  0  0
  1  2  1  0  0  0
  2  3  2  0  0  0
  3  4  1  0  0  0
  4  5  2  0  0  0
  5  6  1  0  0  0
  6  7  1  0  0  0
  7  8  1  0  0  0
  8  9  2  0  0  0
  9 13  1  0  0  0
 13 14  2  0  0  0
 14 15  1  0  0  0
 15 16  2  0  0  0
 16 19  1  0  0  0
 19 20  1  0  0  0
 20 21  2  0  0  0
 21 22  1  0  0  0
 22 23  2  0  0  0
 23 24  1  0  0  0
 24 25  2  0  0  0
 16 17  1  0  0  0
 17 18  2  0  0  0
  9 10  1  0  0  0
  7 26  1  0  0  0
 26 27  1  0  0  0
 27 28  1  0  0  0
 28 29  1  0  0  0
 29 30  1  0  0  0
 10  2  1  0  0  0
 30 26  1  0  0  0
 10  6  2  0  0  0
 18 13  1  0  0  0
 25 20  1  0  0  0
  1 11  1  0  0  0
  1 12  1  0  0  0
M  END
> <minimizedAffinity>
-8.28157

> <CNNscore>
0.5870069265

> <CNNaffinity>
7.0192198753

> <CNN_VS>
4.1203308105

> <CNNaffinity_variance>
0.3805948794

$$$$
[H]c1nc(N([H])[H])c2c(-c3c([H])c([H])c(Oc4c([H])c([H])c([H])c([H])c4[H])c([H])c3[H])c([H])n(C3([H])C([H])([H])C([H])([H])C([H])([H])C3([H])[H])c2n1


 30 34  0  0  0  0  0  0  0  0999 V2000
  -17.2545   10.3877  -20.7616 N   0  0  0  0  0  0  0  0  0  0  0  0
  -17.0611   11.6620  -21.3476 C   0  0  0  0  0  0  0  0  0  0  0  0
  -16.4181   11.7834  -22.5446 N   0  0  0  0  0  0  0  0  0  0  0  0
  -16.2256   13.0003  -23.0645 C   0  0  0  0  0  0  0  0  0  0  0  0
  -16.6513   14.1034  -22.4336 N   0  0  0  0  0  0  0  0  0  0  0  0
  -17.2931   14.0100  -21.2431 C   0  0  0  0  0  0  0  0  0  0  0  0
  -17.8059   14.9334  -20.4065 N   0  0  0  0  0  0  0  0  0  0  0  0
  -18.3335   14.3240  -19.3451 C   0  0  0  0  0  0  0  0  0  0  0  0
  -18.1713   12.9331  -19.4695 C   0  0  0  0  0  0  0  0  0  0  0  0
  -17.5181   12.7663  -20.6617 C   0  0  0  0  0  0  0  0  0  0  0  0
  -16.7446   10.1408  -19.9022 H   0  0  0  0  0  0  0  0  0  0  0  0
  -17.9107    9.7187  -21.2099 H   0  0  0  0  0  0  0  0  0  0  0  0
  -18.6636   11.9422  -18.5163 C   0  0  0  0  0  0  0  0  0  0  0  0
  -19.8544   12.0355  -17.8385 C   0  0  0  0  0  0  0  0  0  0  0  0
  -20.2536   11.0548  -16.9664 C   0  0  0  0  0  0  0  0  0  0  0  0
  -19.4632    9.9477  -16.7497 C   0  0  0  0  0  0  0  0  0  0  0  0
  -18.2622    9.8264  -17.4154 C   0  0  0  0  0  0  0  0  0  0  0  0
  -17.8834   10.8173  -18.2818 C   0  0  0  0  0  0  0  0  0  0  0  0
  -19.9134    8.9960  -15.8644 O   0  0  0  0  0  0  0  0  0  0  0  0
  -19.6411    9.1107  -14.4896 C   0  0  0  0  0  0  0  0  0  0  0  0
  -19.6104   10.3347  -13.8638 C   0  0  0  0  0  0  0  0  0  0  0  0
  -19.3445   10.4642  -12.5145 C   0  0  0  0  0  0  0  0  0  0  0  0
  -19.0979    9.3297  -11.7525 C   0  0  0  0  0  0  0  0  0  0  0  0
  -19.1293    8.1037  -12.3829 C   0  0  0  0  0  0  0  0  0  0  0  0
  -19.3972    7.9993  -13.7320 C   0  0  0  0  0  0  0  0  0  0  0  0
  -17.7357   16.3492  -20.7197 C   0  0  0  0  0  0  0  0  0  0  0  0
  -16.3584   16.9115  -20.4270 C   0  0  0  0  0  0  0  0  0  0  0  0
  -16.6337   18.4172  -20.4898 C   0  0  0  0  0  0  0  0  0  0  0  0
  -18.0838   18.5838  -20.0910 C   0  0  0  0  0  0  0  0  0  0  0  0
  -18.6198   17.1842  -19.8447 C   0  0  0  0  0  0  0  0  0  0  0  0
  1  2  1  0  0  0
  2  3  2  0  0  0
  3  4  1  0  0  0
  4  5  2  0  0  0
  5  6  1  0  0  0
  6  7  1  0  0  0
  7  8  1  0  0  0
  8  9  2  0  0  0
  9 13  1  0  0  0
 13 14  2  0  0  0
 14 15  1  0  0  0
 15 16  2  0  0  0
 16 19  1  0  0  0
 19 20  1  0  0  0
 20 21  2  0  0  0
 21 22  1  0  0  0
 22 23  2  0  0  0
 23 24  1  0  0  0
 24 25  2  0  0  0
 16 17  1  0  0  0
 17 18  2  0  0  0
  9 10  1  0  0  0
  7 26  1  0  0  0
 26 27  1  0  0  0
 27 28  1  0  0  0
 28 29  1  0  0  0
 29 30  1  0  0  0
 10  2  1  0  0  0
 30 26  1  0  0  0
 10  6  2  0  0  0
 18 13  1  0  0  0
 25 20  1  0  0  0
  1 11  1  0  0  0
  1 12  1  0  0  0
M  END
> <minimizedAffinity>
-8.15840

> <CNNscore>
0.5412225723

> <CNNaffinity>
6.8112802505

> <CNN_VS>
3.6864185333

> <CNNaffinity_variance>
0.3005910516

$$$$
[H]c1nc(N([H])[H])c2c(-c3c([H])c([H])c(Oc4c([H])c([H])c([H])c([H])c4[H])c([H])c3[H])c([H])n(C3([H])C([H])([H])C([H])([H])C([H])([H])C3([H])[H])c2n1


 30 34  0  0  0  0  0  0  0  0999 V2000
  -17.9552    9.3728  -17.5502 N   0  0  0  0  0  0  0  0  0  0  0  0
  -17.7233   10.2995  -18.5952 C   0  0  0  0  0  0  0  0  0  0  0  0
  -16.8511   10.0043  -19.6017 N   0  0  0  0  0  0  0  0  0  0  0  0
  -16.6303   10.9071  -20.5633 C   0  0  0  0  0  0  0  0  0  0  0  0
  -17.2483   12.0962  -20.5584 N   0  0  0  0  0  0  0  0  0  0  0  0
  -18.1198   12.4140  -19.5697 C   0  0  0  0  0  0  0  0  0  0  0  0
  -18.8549   13.5150  -19.3184 N   0  0  0  0  0  0  0  0  0  0  0  0
  -19.5550   13.3332  -18.1991 C   0  0  0  0  0  0  0  0  0  0  0  0
  -19.2828   12.0582  -17.6730 C   0  0  0  0  0  0  0  0  0  0  0  0
  -18.3835   11.5081  -18.5474 C   0  0  0  0  0  0  0  0  0  0  0  0
  -17.6236    9.5856  -16.5992 H   0  0  0  0  0  0  0  0  0  0  0  0
  -18.4585    8.4886  -17.7602 H   0  0  0  0  0  0  0  0  0  0  0  0
  -19.9017   11.4944  -16.4764 C   0  0  0  0  0  0  0  0  0  0  0  0
  -19.5109   11.7744  -15.1899 C   0  0  0  0  0  0  0  0  0  0  0  0
  -20.1519   11.2125  -14.1151 C   0  0  0  0  0  0  0  0  0  0  0  0
  -21.2084   10.3492  -14.3040 C   0  0  0  0  0  0  0  0  0  0  0  0
  -21.6231   10.0488  -15.5839 C   0  0  0  0  0  0  0  0  0  0  0  0
  -20.9689   10.6212  -16.6424 C   0  0  0  0  0  0  0  0  0  0  0  0
  -21.8136    9.8155  -13.1900 O   0  0  0  0  0  0  0  0  0  0  0  0
  -21.7227    8.4394  -12.9154 C   0  0  0  0  0  0  0  0  0  0  0  0
  -20.5733    7.8840  -12.4041 C   0  0  0  0  0  0  0  0  0  0  0  0
  -20.4681    6.5345  -12.1291 C   0  0  0  0  0  0  0  0  0  0  0  0
  -21.5504    5.6990  -12.3719 C   0  0  0  0  0  0  0  0  0  0  0  0
  -22.7016    6.2588  -12.8846 C   0  0  0  0  0  0  0  0  0  0  0  0
  -22.7831    7.6097  -13.1514 C   0  0  0  0  0  0  0  0  0  0  0  0
  -18.8095   14.6641  -20.2044 C   0  0  0  0  0  0  0  0  0  0  0  0
  -18.6389   14.2401  -21.6500 C   0  0  0  0  0  0  0  0  0  0  0  0
  -18.2704   15.5734  -22.3083 C   0  0  0  0  0  0  0  0  0  0  0  0
  -17.5871   16.3857  -21.2299 C   0  0  0  0  0  0  0  0  0  0  0  0
  -17.6078   15.5290  -19.9759 C   0  0  0  0  0  0  0  0  0  0  0  0
  1  2  1  0  0  0
  2  3  2  0  0  0
  3  4  1  0  0  0
  4  5  2  0  0  0
  5  6  1  0  0  0
  6  7  1  0  0  0
  7  8  1  0  0  0
  8  9  2  0  0  0
  9 13  1  0  0  0
 13 14  2  0  0  0
 14 15  1  0  0  0
 15 16  2  0  0  0
 16 19  1  0  0  0
 19 20  1  0  0  0
 20 21  2  0  0  0
 21 22  1  0  0  0
 22 23  2  0  0  0
 23 24  1  0  0  0
 24 25  2  0  0  0
 16 17  1  0  0  0
 17 18  2  0  0  0
  9 10  1  0  0  0
  7 26  1  0  0  0
 26 27  1  0  0  0
 27 28  1  0  0  0
 28 29  1  0  0  0
 29 30  1  0  0  0
 10  2  1  0  0  0
 30 26  1  0  0  0
 10  6  2  0  0  0
 18 13  1  0  0  0
 25 20  1  0  0  0
  1 11  1  0  0  0
  1 12  1  0  0  0
M  END
> <minimizedAffinity>
-6.63549

> <CNNscore>
0.5153540969

> <CNNaffinity>
6.6230430603

> <CNN_VS>
3.4132122993

> <CNNaffinity_variance>
0.4432808757

$$$$
[H]c1c([H])c([H])c(N([H])c2nc3c([H])c([H])c(C(=O)N([H])c4c(Cl)c([H])c([H])c([H])c4C([H])([H])[H])c([H])c3s2)c([H])c1[H]


 29 32  0  0  0  0  0  0  0  0999 V2000
  -17.9587   13.4312  -21.8925 C   0  0  0  0  0  0  0  0  0  0  0  0
  -18.7411   13.9541  -20.8968 C   0  0  0  0  0  0  0  0  0  0  0  0
  -19.0002   13.3574  -19.7044 C   0  0  0  0  0  0  0  0  0  0  0  0
  -18.4437   12.0946  -19.4148 C   0  0  0  0  0  0  0  0  0  0  0  0
  -18.6023   11.4085  -18.3252 N   0  0  0  0  0  0  0  0  0  0  0  0
  -18.0425   10.2467  -18.1553 C   0  0  0  0  0  0  0  0  0  0  0  0
  -17.1940   10.0635  -19.6654 S   0  0  0  0  0  0  0  0  0  0  0  0
  -17.6564   11.5468  -20.3924 C   0  0  0  0  0  0  0  0  0  0  0  0
  -17.4029   12.1821  -21.6166 C   0  0  0  0  0  0  0  0  0  0  0  0
  -16.5902   13.5885  -23.9515 N   0  0  0  0  0  0  0  0  0  0  0  0
  -17.6736   14.0568  -23.1697 C   0  0  0  0  0  0  0  0  0  0  0  0
  -18.3664   15.0176  -23.6166 O   0  0  0  0  0  0  0  0  0  0  0  0
  -15.9545   12.8079  -23.6863 H   0  0  0  0  0  0  0  0  0  0  0  0
  -14.9009   15.8615  -23.9854 C   0  0  0  0  0  0  0  0  0  0  0  0
  -15.4752   15.3024  -25.2377 C   0  0  0  0  0  0  0  0  0  0  0  0
  -15.1679   15.9208  -26.4563 C   0  0  0  0  0  0  0  0  0  0  0  0
  -15.6764   15.4410  -27.6561 C   0  0  0  0  0  0  0  0  0  0  0  0
  -16.4971   14.3335  -27.6211 C   0  0  0  0  0  0  0  0  0  0  0  0
  -16.8039   13.7158  -26.4027 C   0  0  0  0  0  0  0  0  0  0  0  0
  -17.8465   12.3111  -26.3708 Cl  0  0  0  0  0  0  0  0  0  0  0  0
  -16.2961   14.1968  -25.2162 C   0  0  0  0  0  0  0  0  0  0  0  0
  -18.0625    9.3195  -17.0765 N   0  0  0  0  0  0  0  0  0  0  0  0
  -17.1848    8.7233  -16.9282 H   0  0  0  0  0  0  0  0  0  0  0  0
  -19.1323    9.1265  -16.2079 C   0  0  0  0  0  0  0  0  0  0  0  0
  -19.6992    7.8445  -16.1436 C   0  0  0  0  0  0  0  0  0  0  0  0
  -20.7689    7.5414  -15.3303 C   0  0  0  0  0  0  0  0  0  0  0  0
  -21.3271    8.5129  -14.5363 C   0  0  0  0  0  0  0  0  0  0  0  0
  -20.8104    9.7588  -14.5699 C   0  0  0  0  0  0  0  0  0  0  0  0
  -19.7225   10.0576  -15.4006 C   0  0  0  0  0  0  0  0  0  0  0  0
 14 15  1  0  0  0
 15 16  2  0  0  0
 16 17  1  0  0  0
 17 18  2  0  0  0
 18 19  1  0  0  0
 19 20  1  0  0  0
 19 21  2  0  0  0
 21 10  1  0  0  0
 10 11  1  0  0  0
 11 12  2  0  0  0
 11  1  1  0  0  0
  1  2  2  0  0  0
  2  3  1  0  0  0
  3  4  2  0  0  0
  4  5  1  0  0  0
  5  6  2  0  0  0
  6 22  1  0  0  0
 22 24  1  0  0  0
 24 25  2  0  0  0
 25 26  1  0  0  0
 26 27  2  0  0  0
 27 28  1  0  0  0
 28 29  2  0  0  0
  6  7  1  0  0  0
  7  8  1  0  0  0
  8  9  2  0  0  0
 21 15  1  0  0  0
  9  1  1  0  0  0
  8  4  1  0  0  0
 29 24  1  0  0  0
 10 13  1  0  0  0
 22 23  1  0  0  0
M  END
> <minimizedAffinity>
-8.92684

> <CNNscore>
0.8663559556

> <CNNaffinity>
7.1358175278

> <CNN_VS>
6.1821579933

> <CNNaffinity_variance>
0.1159924045

$$$$
[H]c1c([H])c([H])c(N([H])c2nc3c([H])c([H])c(C(=O)N([H])c4c(Cl)c([H])c([H])c([H])c4C([H])([H])[H])c([H])c3s2)c([H])c1[H]


 29 32  0  0  0  0  0  0  0  0999 V2000
  -18.5499   10.3537  -17.6869 C   0  0  0  0  0  0  0  0  0  0  0  0
  -19.1159   11.5294  -18.1043 C   0  0  0  0  0  0  0  0  0  0  0  0
  -18.7729   12.2128  -19.2269 C   0  0  0  0  0  0  0  0  0  0  0  0
  -17.7566   11.7166  -20.0689 C   0  0  0  0  0  0  0  0  0  0  0  0
  -17.3256   12.2577  -21.1665 N   0  0  0  0  0  0  0  0  0  0  0  0
  -16.3779   11.7172  -21.8749 C   0  0  0  0  0  0  0  0  0  0  0  0
  -16.0284   10.2954  -20.9313 S   0  0  0  0  0  0  0  0  0  0  0  0
  -17.1721   10.5418  -19.6766 C   0  0  0  0  0  0  0  0  0  0  0  0
  -17.5430    9.8536  -18.5126 C   0  0  0  0  0  0  0  0  0  0  0  0
  -20.1456    9.8654  -15.8560 N   0  0  0  0  0  0  0  0  0  0  0  0
  -18.9058    9.6135  -16.4913 C   0  0  0  0  0  0  0  0  0  0  0  0
  -18.1393    8.7400  -15.9890 O   0  0  0  0  0  0  0  0  0  0  0  0
  -20.8529   10.5580  -16.1780 H   0  0  0  0  0  0  0  0  0  0  0  0
  -19.8199   11.1417  -13.3487 C   0  0  0  0  0  0  0  0  0  0  0  0
  -20.3546    9.7581  -13.4519 C   0  0  0  0  0  0  0  0  0  0  0  0
  -20.7021    9.0793  -12.2771 C   0  0  0  0  0  0  0  0  0  0  0  0
  -21.2061    7.7859  -12.3146 C   0  0  0  0  0  0  0  0  0  0  0  0
  -21.3582    7.1798  -13.5437 C   0  0  0  0  0  0  0  0  0  0  0  0
  -21.0106    7.8589  -14.7177 C   0  0  0  0  0  0  0  0  0  0  0  0
  -21.2080    7.0795  -16.2717 Cl  0  0  0  0  0  0  0  0  0  0  0  0
  -20.5113    9.1417  -14.6734 C   0  0  0  0  0  0  0  0  0  0  0  0
  -15.7443   12.1062  -23.0877 N   0  0  0  0  0  0  0  0  0  0  0  0
  -15.0893   11.3938  -23.5473 H   0  0  0  0  0  0  0  0  0  0  0  0
  -15.9066   13.3375  -23.7153 C   0  0  0  0  0  0  0  0  0  0  0  0
  -16.9914   13.4863  -24.5926 C   0  0  0  0  0  0  0  0  0  0  0  0
  -17.2421   14.6543  -25.2783 C   0  0  0  0  0  0  0  0  0  0  0  0
  -16.4138   15.7379  -25.1182 C   0  0  0  0  0  0  0  0  0  0  0  0
  -15.3590   15.6345  -24.2832 C   0  0  0  0  0  0  0  0  0  0  0  0
  -15.1121   14.4421  -23.5904 C   0  0  0  0  0  0  0  0  0  0  0  0
 14 15  1  0  0  0
 15 16  2  0  0  0
 16 17  1  0  0  0
 17 18  2  0  0  0
 18 19  1  0  0  0
 19 20  1  0  0  0
 19 21  2  0  0  0
 21 10  1  0  0  0
 10 11  1  0  0  0
 11 12  2  0  0  0
 11  1  1  0  0  0
  1  2  2  0  0  0
  2  3  1  0  0  0
  3  4  2  0  0  0
  4  5  1  0  0  0
  5  6  2  0  0  0
  6 22  1  0  0  0
 22 24  1  0  0  0
 24 25  2  0  0  0
 25 26  1  0  0  0
 26 27  2  0  0  0
 27 28  1  0  0  0
 28 29  2  0  0  0
  6  7  1  0  0  0
  7  8  1  0  0  0
  8  9  2  0  0  0
 21 15  1  0  0  0
  9  1  1  0  0  0
  8  4  1  0  0  0
 29 24  1  0  0  0
 10 13  1  0  0  0
 22 23  1  0  0  0
M  END
> <minimizedAffinity>
-8.05456

> <CNNscore>
0.7919663787

> <CNNaffinity>
6.8451819420

> <CNN_VS>
5.4211540222

> <CNNaffinity_variance>
0.1817204207

$$$$
[H]c1c([H])c([H])c(N([H])c2nc3c([H])c([H])c(C(=O)N([H])c4c(Cl)c([H])c([H])c([H])c4C([H])([H])[H])c([H])c3s2)c([H])c1[H]


 29 32  0  0  0  0  0  0  0  0999 V2000
  -19.1311   10.6309  -17.4024 C   0  0  0  0  0  0  0  0  0  0  0  0
  -19.4859   11.8724  -17.8604 C   0  0  0  0  0  0  0  0  0  0  0  0
  -18.9661   12.4852  -18.9555 C   0  0  0  0  0  0  0  0  0  0  0  0
  -17.9763   11.8353  -19.7212 C   0  0  0  0  0  0  0  0  0  0  0  0
  -17.3926   12.2946  -20.7849 N   0  0  0  0  0  0  0  0  0  0  0  0
  -16.4867   11.6126  -21.4223 C   0  0  0  0  0  0  0  0  0  0  0  0
  -16.4196   10.1656  -20.4550 S   0  0  0  0  0  0  0  0  0  0  0  0
  -17.6014   10.5918  -19.2869 C   0  0  0  0  0  0  0  0  0  0  0  0
  -18.1524    9.9788  -18.1525 C   0  0  0  0  0  0  0  0  0  0  0  0
  -20.6917   10.5993  -15.4787 N   0  0  0  0  0  0  0  0  0  0  0  0
  -19.6772    9.9648  -16.2354 C   0  0  0  0  0  0  0  0  0  0  0  0
  -19.2753    8.8230  -15.8642 O   0  0  0  0  0  0  0  0  0  0  0  0
  -21.0982   11.5343  -15.6886 H   0  0  0  0  0  0  0  0  0  0  0  0
  -23.0709    9.0943  -15.7883 C   0  0  0  0  0  0  0  0  0  0  0  0
  -22.3982    9.2203  -14.4682 C   0  0  0  0  0  0  0  0  0  0  0  0
  -22.9616    8.5765  -13.3592 C   0  0  0  0  0  0  0  0  0  0  0  0
  -22.3757    8.6603  -12.1031 C   0  0  0  0  0  0  0  0  0  0  0  0
  -21.2178    9.3970  -11.9705 C   0  0  0  0  0  0  0  0  0  0  0  0
  -20.6551   10.0404  -13.0795 C   0  0  0  0  0  0  0  0  0  0  0  0
  -19.1854   10.9725  -12.8990 Cl  0  0  0  0  0  0  0  0  0  0  0  0
  -21.2413    9.9532  -14.3227 C   0  0  0  0  0  0  0  0  0  0  0  0
  -15.7172   11.8904  -22.5861 N   0  0  0  0  0  0  0  0  0  0  0  0
  -14.8085   11.3378  -22.7146 H   0  0  0  0  0  0  0  0  0  0  0  0
  -16.0519   12.8244  -23.5616 C   0  0  0  0  0  0  0  0  0  0  0  0
  -15.0730   13.7568  -23.9374 C   0  0  0  0  0  0  0  0  0  0  0  0
  -15.2966   14.7342  -24.8819 C   0  0  0  0  0  0  0  0  0  0  0  0
  -16.5191   14.8268  -25.5007 C   0  0  0  0  0  0  0  0  0  0  0  0
  -17.4872   13.9484  -25.1665 C   0  0  0  0  0  0  0  0  0  0  0  0
  -17.2503   12.9579  -24.2044 C   0  0  0  0  0  0  0  0  0  0  0  0
 14 15  1  0  0  0
 15 16  2  0  0  0
 16 17  1  0  0  0
 17 18  2  0  0  0
 18 19  1  0  0  0
 19 20  1  0  0  0
 19 21  2  0  0  0
 21 10  1  0  0  0
 10 11  1  0  0  0
 11 12  2  0  0  0
 11  1  1  0  0  0
  1  2  2  0  0  0
  2  3  1  0  0  0
  3  4  2  0  0  0
  4  5  1  0  0  0
  5  6  2  0  0  0
  6 22  1  0  0  0
 22 24  1  0  0  0
 24 25  2  0  0  0
 25 26  1  0  0  0
 26 27  2  0  0  0
 27 28  1  0  0  0
 28 29  2  0  0  0
  6  7  1  0  0  0
  7  8  1  0  0  0
  8  9  2  0  0  0
 21 15  1  0  0  0
  9  1  1  0  0  0
  8  4  1  0  0  0
 29 24  1  0  0  0
 10 13  1  0  0  0
 22 23  1  0  0  0
M  END
> <minimizedAffinity>
-8.17574

> <CNNscore>
0.7845073938

> <CNNaffinity>
6.7461142540

> <CNN_VS>
5.2923765182

> <CNNaffinity_variance>
0.1229422539

$$$$
[H]c1c([H])c([H])c(N([H])c2nc3c([H])c([H])c(C(=O)N([H])c4c(Cl)c([H])c([H])c([H])c4C([H])([H])[H])c([H])c3s2)c([H])c1[H]


 29 32  0  0  0  0  0  0  0  0999 V2000
  -17.8947   13.2124  -21.6412 C   0  0  0  0  0  0  0  0  0  0  0  0
  -17.2404   12.1097  -21.1588 C   0  0  0  0  0  0  0  0  0  0  0  0
  -17.4726   11.5201  -19.9573 C   0  0  0  0  0  0  0  0  0  0  0  0
  -18.4574   12.0450  -19.0954 C   0  0  0  0  0  0  0  0  0  0  0  0
  -18.7866   11.5904  -17.9258 N   0  0  0  0  0  0  0  0  0  0  0  0
  -19.7140   12.1499  -17.2054 C   0  0  0  0  0  0  0  0  0  0  0  0
  -20.1997   13.4579  -18.2481 S   0  0  0  0  0  0  0  0  0  0  0  0
  -19.1284   13.1483  -19.5516 C   0  0  0  0  0  0  0  0  0  0  0  0
  -18.8712   13.7401  -20.7966 C   0  0  0  0  0  0  0  0  0  0  0  0
  -16.5732   13.4260  -23.7257 N   0  0  0  0  0  0  0  0  0  0  0  0
  -17.6573   13.8522  -22.9212 C   0  0  0  0  0  0  0  0  0  0  0  0
  -18.3927   14.7891  -23.3505 O   0  0  0  0  0  0  0  0  0  0  0  0
  -15.9049   12.6679  -23.4761 H   0  0  0  0  0  0  0  0  0  0  0  0
  -14.8414   15.6656  -23.8039 C   0  0  0  0  0  0  0  0  0  0  0  0
  -15.4846   15.1383  -25.0364 C   0  0  0  0  0  0  0  0  0  0  0  0
  -15.2218   15.7702  -26.2584 C   0  0  0  0  0  0  0  0  0  0  0  0
  -15.7952   15.3201  -27.4402 C   0  0  0  0  0  0  0  0  0  0  0  0
  -16.6357   14.2285  -27.3839 C   0  0  0  0  0  0  0  0  0  0  0  0
  -16.8981   13.5972  -26.1620 C   0  0  0  0  0  0  0  0  0  0  0  0
  -17.9664   12.2129  -26.1028 Cl  0  0  0  0  0  0  0  0  0  0  0  0
  -16.3260   14.0488  -24.9934 C   0  0  0  0  0  0  0  0  0  0  0  0
  -20.2456   11.8479  -15.9208 N   0  0  0  0  0  0  0  0  0  0  0  0
  -20.9753   12.5238  -15.5227 H   0  0  0  0  0  0  0  0  0  0  0  0
  -19.8869   10.7498  -15.1452 C   0  0  0  0  0  0  0  0  0  0  0  0
  -19.7387   10.9455  -13.7637 C   0  0  0  0  0  0  0  0  0  0  0  0
  -19.3742    9.9350  -12.9015 C   0  0  0  0  0  0  0  0  0  0  0  0
  -19.1388    8.6707  -13.3831 C   0  0  0  0  0  0  0  0  0  0  0  0
  -19.2705    8.4420  -14.7063 C   0  0  0  0  0  0  0  0  0  0  0  0
  -19.6414    9.4764  -15.5754 C   0  0  0  0  0  0  0  0  0  0  0  0
 14 15  1  0  0  0
 15 16  2  0  0  0
 16 17  1  0  0  0
 17 18  2  0  0  0
 18 19  1  0  0  0
 19 20  1  0  0  0
 19 21  2  0  0  0
 21 10  1  0  0  0
 10 11  1  0  0  0
 11 12  2  0  0  0
 11  1  1  0  0  0
  1  2  2  0  0  0
  2  3  1  0  0  0
  3  4  2  0  0  0
  4  5  1  0  0  0
  5  6  2  0  0  0
  6 22  1  0  0  0
 22 24  1  0  0  0
 24 25  2  0  0  0
 25 26  1  0  0  0
 26 27  2  0  0  0
 27 28  1  0  0  0
 28 29  2  0  0  0
  6  7  1  0  0  0
  7  8  1  0  0  0
  8  9  2  0  0  0
 21 15  1  0  0  0
  9  1  1  0  0  0
  8  4  1  0  0  0
 29 24  1  0  0  0
 10 13  1  0  0  0
 22 23  1  0  0  0
M  END
> <minimizedAffinity>
-9.07708

> <CNNscore>
0.4981393218

> <CNNaffinity>
6.5957922935

> <CNN_VS>
3.2856235504

> <CNNaffinity_variance>
0.0838897675

$$$$
[H]c1c([H])c([H])c(N([H])c2nc3c([H])c([H])c(C(=O)N([H])c4c(Cl)c([H])c([H])c([H])c4C([H])([H])[H])c([H])c3s2)c([H])c1[H]


 29 32  0  0  0  0  0  0  0  0999 V2000
  -16.8433   12.0959  -21.6653 C   0  0  0  0  0  0  0  0  0  0  0  0
  -16.4201   10.9012  -21.1453 C   0  0  0  0  0  0  0  0  0  0  0  0
  -16.8447   10.3580  -19.9749 C   0  0  0  0  0  0  0  0  0  0  0  0
  -17.7990   11.0374  -19.1901 C   0  0  0  0  0  0  0  0  0  0  0  0
  -18.2942   10.6432  -18.0576 N   0  0  0  0  0  0  0  0  0  0  0  0
  -19.1747   11.3473  -17.4086 C   0  0  0  0  0  0  0  0  0  0  0  0
  -19.3520   12.7167  -18.4704 S   0  0  0  0  0  0  0  0  0  0  0  0
  -18.2407   12.2354  -19.6853 C   0  0  0  0  0  0  0  0  0  0  0  0
  -17.7876   12.7766  -20.8969 C   0  0  0  0  0  0  0  0  0  0  0  0
  -17.1720   13.7080  -23.5174 N   0  0  0  0  0  0  0  0  0  0  0  0
  -16.3989   12.6877  -22.9128 C   0  0  0  0  0  0  0  0  0  0  0  0
  -15.3321   12.3211  -23.4877 O   0  0  0  0  0  0  0  0  0  0  0  0
  -18.0633   14.0881  -23.1369 H   0  0  0  0  0  0  0  0  0  0  0  0
  -15.7489   16.1540  -23.4047 C   0  0  0  0  0  0  0  0  0  0  0  0
  -16.0533   15.4920  -24.7008 C   0  0  0  0  0  0  0  0  0  0  0  0
  -15.6222   16.0996  -25.8869 C   0  0  0  0  0  0  0  0  0  0  0  0
  -15.8787   15.5255  -27.1249 C   0  0  0  0  0  0  0  0  0  0  0  0
  -16.5726   14.3346  -27.1613 C   0  0  0  0  0  0  0  0  0  0  0  0
  -17.0033   13.7278  -25.9753 C   0  0  0  0  0  0  0  0  0  0  0  0
  -17.8832   12.2165  -26.0340 Cl  0  0  0  0  0  0  0  0  0  0  0  0
  -16.7455   14.3025  -24.7506 C   0  0  0  0  0  0  0  0  0  0  0  0
  -19.8536   11.1369  -16.1762 N   0  0  0  0  0  0  0  0  0  0  0  0
  -19.7027   11.8648  -15.4047 H   0  0  0  0  0  0  0  0  0  0  0  0
  -20.6898   10.0602  -15.8978 C   0  0  0  0  0  0  0  0  0  0  0  0
  -22.0689   10.3066  -15.8194 C   0  0  0  0  0  0  0  0  0  0  0  0
  -22.9885    9.3207  -15.5370 C   0  0  0  0  0  0  0  0  0  0  0  0
  -22.5698    8.0313  -15.3177 C   0  0  0  0  0  0  0  0  0  0  0  0
  -21.2511    7.7538  -15.3840 C   0  0  0  0  0  0  0  0  0  0  0  0
  -20.3234    8.7634  -15.6716 C   0  0  0  0  0  0  0  0  0  0  0  0
 14 15  1  0  0  0
 15 16  2  0  0  0
 16 17  1  0  0  0
 17 18  2  0  0  0
 18 19  1  0  0  0
 19 20  1  0  0  0
 19 21  2  0  0  0
 21 10  1  0  0  0
 10 11  1  0  0  0
 11 12  2  0  0  0
 11  1  1  0  0  0
  1  2  2  0  0  0
  2  3  1  0  0  0
  3  4  2  0  0  0
  4  5  1  0  0  0
  5  6  2  0  0  0
  6 22  1  0  0  0
 22 24  1  0  0  0
 24 25  2  0  0  0
 25 26  1  0  0  0
 26 27  2  0  0  0
 27 28  1  0  0  0
 28 29  2  0  0  0
  6  7  1  0  0  0
  7  8  1  0  0  0
  8  9  2  0  0  0
 21 15  1  0  0  0
  9  1  1  0  0  0
  8  4  1  0  0  0
 29 24  1  0  0  0
 10 13  1  0  0  0
 22 23  1  0  0  0
M  END
> <minimizedAffinity>
-9.77511

> <CNNscore>
0.4948989749

> <CNNaffinity>
6.7151694298

> <CNN_VS>
3.3233304024

> <CNNaffinity_variance>
0.1294689476

$$$$
[H]c1c([H])c([H])c(N([H])c2nc3c([H])c([H])c(C(=O)N([H])c4c(Cl)c([H])c([H])c([H])c4C([H])([H])[H])c([H])c3s2)c([H])c1[H]


 29 32  0  0  0  0  0  0  0  0999 V2000
  -16.8166   12.0665  -21.6654 C   0  0  0  0  0  0  0  0  0  0  0  0
  -16.3497   10.9015  -21.1162 C   0  0  0  0  0  0  0  0  0  0  0  0
  -16.7765   10.3561  -19.9476 C   0  0  0  0  0  0  0  0  0  0  0  0
  -17.7813   11.0003  -19.1970 C   0  0  0  0  0  0  0  0  0  0  0  0
  -18.2850   10.5998  -18.0705 N   0  0  0  0  0  0  0  0  0  0  0  0
  -19.2139   11.2703  -17.4542 C   0  0  0  0  0  0  0  0  0  0  0  0
  -19.4302   12.6134  -18.5419 S   0  0  0  0  0  0  0  0  0  0  0  0
  -18.2675   12.1681  -19.7220 C   0  0  0  0  0  0  0  0  0  0  0  0
  -17.8111   12.7123  -20.9310 C   0  0  0  0  0  0  0  0  0  0  0  0
  -17.1848   13.6193  -23.5603 N   0  0  0  0  0  0  0  0  0  0  0  0
  -16.3703   12.6602  -22.9113 C   0  0  0  0  0  0  0  0  0  0  0  0
  -15.2660   12.3486  -23.4463 O   0  0  0  0  0  0  0  0  0  0  0  0
  -18.1089   13.9514  -23.2147 H   0  0  0  0  0  0  0  0  0  0  0  0
  -17.8468   12.3102  -25.9830 C   0  0  0  0  0  0  0  0  0  0  0  0
  -17.0765   13.5820  -25.9731 C   0  0  0  0  0  0  0  0  0  0  0  0
  -16.6739   14.1369  -27.1945 C   0  0  0  0  0  0  0  0  0  0  0  0
  -15.9527   15.3225  -27.2442 C   0  0  0  0  0  0  0  0  0  0  0  0
  -15.6391   15.9464  -26.0553 C   0  0  0  0  0  0  0  0  0  0  0  0
  -16.0418   15.3911  -24.8347 C   0  0  0  0  0  0  0  0  0  0  0  0
  -15.6380   16.1919  -23.3324 Cl  0  0  0  0  0  0  0  0  0  0  0  0
  -16.7570   14.2149  -24.7924 C   0  0  0  0  0  0  0  0  0  0  0  0
  -19.9121   11.0460  -16.2352 N   0  0  0  0  0  0  0  0  0  0  0  0
  -20.5320   11.8414  -15.8736 H   0  0  0  0  0  0  0  0  0  0  0  0
  -19.8465    9.8796  -15.4792 C   0  0  0  0  0  0  0  0  0  0  0  0
  -19.4418    9.9902  -14.1403 C   0  0  0  0  0  0  0  0  0  0  0  0
  -19.3280    8.9026  -13.3027 C   0  0  0  0  0  0  0  0  0  0  0  0
  -19.6157    7.6427  -13.7673 C   0  0  0  0  0  0  0  0  0  0  0  0
  -20.0081    7.4946  -15.0497 C   0  0  0  0  0  0  0  0  0  0  0  0
  -20.1206    8.6069  -15.8941 C   0  0  0  0  0  0  0  0  0  0  0  0
 14 15  1  0  0  0
 15 16  2  0  0  0
 16 17  1  0  0  0
 17 18  2  0  0  0
 18 19  1  0  0  0
 19 20  1  0  0  0
 19 21  2  0  0  0
 21 10  1  0  0  0
 10 11  1  0  0  0
 11 12  2  0  0  0
 11  1  1  0  0  0
  1  2  2  0  0  0
  2  3  1  0  0  0
  3  4  2  0  0  0
  4  5  1  0  0  0
  5  6  2  0  0  0
  6 22  1  0  0  0
 22 24  1  0  0  0
 24 25  2  0  0  0
 25 26  1  0  0  0
 26 27  2  0  0  0
 27 28  1  0  0  0
 28 29  2  0  0  0
  6  7  1  0  0  0
  7  8  1  0  0  0
  8  9  2  0  0  0
 21 15  1  0  0  0
  9  1  1  0  0  0
  8  4  1  0  0  0
 29 24  1  0  0  0
 10 13  1  0  0  0
 22 23  1  0  0  0
M  END
> <minimizedAffinity>
-9.68680

> <CNNscore>
0.4730275273

> <CNNaffinity>
6.7480225563

> <CNN_VS>
3.1920003891

> <CNNaffinity_variance>
0.1611819118

$$$$
[H]c1c([H])c([H])c(N([H])c2nc3c([H])c([H])c(C(=O)N([H])c4c(Cl)c([H])c([H])c([H])c4C([H])([H])[H])c([H])c3s2)c([H])c1[H]


 29 32  0  0  0  0  0  0  0  0999 V2000
  -17.8043   13.1030  -21.2859 C   0  0  0  0  0  0  0  0  0  0  0  0
  -18.7860   13.8085  -20.6412 C   0  0  0  0  0  0  0  0  0  0  0  0
  -19.4008   13.4297  -19.4908 C   0  0  0  0  0  0  0  0  0  0  0  0
  -19.0377   12.2193  -18.8655 C   0  0  0  0  0  0  0  0  0  0  0  0
  -19.5349   11.7322  -17.7706 N   0  0  0  0  0  0  0  0  0  0  0  0
  -19.1289   10.6008  -17.2734 C   0  0  0  0  0  0  0  0  0  0  0  0
  -17.9198   10.1410  -18.4399 S   0  0  0  0  0  0  0  0  0  0  0  0
  -18.0581   11.4921  -19.4877 C   0  0  0  0  0  0  0  0  0  0  0  0
  -17.4373   11.9036  -20.6758 C   0  0  0  0  0  0  0  0  0  0  0  0
  -17.8132   14.3293  -23.4384 N   0  0  0  0  0  0  0  0  0  0  0  0
  -17.1395   13.4951  -22.5140 C   0  0  0  0  0  0  0  0  0  0  0  0
  -15.9648   13.1142  -22.7930 O   0  0  0  0  0  0  0  0  0  0  0  0
  -18.7773   14.7022  -23.3154 H   0  0  0  0  0  0  0  0  0  0  0  0
  -16.4573   16.8153  -23.4912 C   0  0  0  0  0  0  0  0  0  0  0  0
  -16.5084   15.9333  -24.6872 C   0  0  0  0  0  0  0  0  0  0  0  0
  -15.8685   16.3502  -25.8613 C   0  0  0  0  0  0  0  0  0  0  0  0
  -15.8843   15.5666  -27.0075 C   0  0  0  0  0  0  0  0  0  0  0  0
  -16.5490   14.3593  -26.9641 C   0  0  0  0  0  0  0  0  0  0  0  0
  -17.1884   13.9432  -25.7901 C   0  0  0  0  0  0  0  0  0  0  0  0
  -18.0288   12.4092  -25.7469 Cl  0  0  0  0  0  0  0  0  0  0  0  0
  -17.1689   14.7253  -24.6566 C   0  0  0  0  0  0  0  0  0  0  0  0
  -19.5078    9.8706  -16.1128 N   0  0  0  0  0  0  0  0  0  0  0  0
  -19.4186    8.8038  -16.1558 H   0  0  0  0  0  0  0  0  0  0  0  0
  -19.9876   10.4345  -14.9347 C   0  0  0  0  0  0  0  0  0  0  0  0
  -19.3507   10.0831  -13.7348 C   0  0  0  0  0  0  0  0  0  0  0  0
  -19.7482   10.5689  -12.5087 C   0  0  0  0  0  0  0  0  0  0  0  0
  -20.8097   11.4360  -12.4230 C   0  0  0  0  0  0  0  0  0  0  0  0
  -21.4489   11.7980  -13.5547 C   0  0  0  0  0  0  0  0  0  0  0  0
  -21.0373   11.2984  -14.7972 C   0  0  0  0  0  0  0  0  0  0  0  0
 14 15  1  0  0  0
 15 16  2  0  0  0
 16 17  1  0  0  0
 17 18  2  0  0  0
 18 19  1  0  0  0
 19 20  1  0  0  0
 19 21  2  0  0  0
 21 10  1  0  0  0
 10 11  1  0  0  0
 11 12  2  0  0  0
 11  1  1  0  0  0
  1  2  2  0  0  0
  2  3  1  0  0  0
  3  4  2  0  0  0
  4  5  1  0  0  0
  5  6  2  0  0  0
  6 22  1  0  0  0
 22 24  1  0  0  0
 24 25  2  0  0  0
 25 26  1  0  0  0
 26 27  2  0  0  0
 27 28  1  0  0  0
 28 29  2  0  0  0
  6  7  1  0  0  0
  7  8  1  0  0  0
  8  9  2  0  0  0
 21 15  1  0  0  0
  9  1  1  0  0  0
  8  4  1  0  0  0
 29 24  1  0  0  0
 10 13  1  0  0  0
 22 23  1  0  0  0
M  END
> <minimizedAffinity>
-8.70015

> <CNNscore>
0.4291325212

> <CNNaffinity>
6.5681748390

> <CNN_VS>
2.8186173439

> <CNNaffinity_variance>
0.1399614215

$$$$
[H]c1c([H])c([H])c(N([H])c2nc3c([H])c([H])c(C(=O)N([H])c4c(Cl)c([H])c([H])c([H])c4C([H])([H])[H])c([H])c3s2)c([H])c1[H]


 29 32  0  0  0  0  0  0  0  0999 V2000
  -17.4247   12.9328  -21.8637 C   0  0  0  0  0  0  0  0  0  0  0  0
  -18.3644   13.6628  -21.1848 C   0  0  0  0  0  0  0  0  0  0  0  0
  -18.9211   13.3163  -19.9952 C   0  0  0  0  0  0  0  0  0  0  0  0
  -18.5367   12.1164  -19.3623 C   0  0  0  0  0  0  0  0  0  0  0  0
  -18.9800   11.6592  -18.2319 N   0  0  0  0  0  0  0  0  0  0  0  0
  -18.5588   10.5350  -17.7310 C   0  0  0  0  0  0  0  0  0  0  0  0
  -17.4173   10.0366  -18.9485 S   0  0  0  0  0  0  0  0  0  0  0  0
  -17.5981   11.3653  -20.0183 C   0  0  0  0  0  0  0  0  0  0  0  0
  -17.0371   11.7436  -21.2465 C   0  0  0  0  0  0  0  0  0  0  0  0
  -17.5183   14.1445  -24.0225 N   0  0  0  0  0  0  0  0  0  0  0  0
  -16.8221   13.2903  -23.1338 C   0  0  0  0  0  0  0  0  0  0  0  0
  -15.6826   12.8614  -23.4810 O   0  0  0  0  0  0  0  0  0  0  0  0
  -18.4577   14.5560  -23.8439 H   0  0  0  0  0  0  0  0  0  0  0  0
  -17.8462   12.3757  -26.2100 C   0  0  0  0  0  0  0  0  0  0  0  0
  -17.0921   13.6498  -26.3481 C   0  0  0  0  0  0  0  0  0  0  0  0
  -16.5353   13.9734  -27.5919 C   0  0  0  0  0  0  0  0  0  0  0  0
  -15.8214   15.1498  -27.7775 C   0  0  0  0  0  0  0  0  0  0  0  0
  -15.6716   15.9993  -26.7018 C   0  0  0  0  0  0  0  0  0  0  0  0
  -16.2284   15.6753  -25.4587 C   0  0  0  0  0  0  0  0  0  0  0  0
  -16.0317   16.7611  -24.1010 Cl  0  0  0  0  0  0  0  0  0  0  0  0
  -16.9354   14.5067  -25.2814 C   0  0  0  0  0  0  0  0  0  0  0  0
  -18.8826    9.8350  -16.5356 N   0  0  0  0  0  0  0  0  0  0  0  0
  -18.0656    9.4932  -15.9328 H   0  0  0  0  0  0  0  0  0  0  0  0
  -20.1735    9.5581  -16.0960 C   0  0  0  0  0  0  0  0  0  0  0  0
  -20.4505    8.2528  -15.6620 C   0  0  0  0  0  0  0  0  0  0  0  0
  -21.6947    7.8619  -15.2188 C   0  0  0  0  0  0  0  0  0  0  0  0
  -22.7294    8.7643  -15.1879 C   0  0  0  0  0  0  0  0  0  0  0  0
  -22.5032   10.0298  -15.5975 C   0  0  0  0  0  0  0  0  0  0  0  0
  -21.2343   10.4179  -16.0469 C   0  0  0  0  0  0  0  0  0  0  0  0
 14 15  1  0  0  0
 15 16  2  0  0  0
 16 17  1  0  0  0
 17 18  2  0  0  0
 18 19  1  0  0  0
 19 20  1  0  0  0
 19 21  2  0  0  0
 21 10  1  0  0  0
 10 11  1  0  0  0
 11 12  2  0  0  0
 11  1  1  0  0  0
  1  2  2  0  0  0
  2  3  1  0  0  0
  3  4  2  0  0  0
  4  5  1  0  0  0
  5  6  2  0  0  0
  6 22  1  0  0  0
 22 24  1  0  0  0
 24 25  2  0  0  0
 25 26  1  0  0  0
 26 27  2  0  0  0
 27 28  1  0  0  0
 28 29  2  0  0  0
  6  7  1  0  0  0
  7  8  1  0  0  0
  8  9  2  0  0  0
 21 15  1  0  0  0
  9  1  1  0  0  0
  8  4  1  0  0  0
 29 24  1  0  0  0
 10 13  1  0  0  0
 22 23  1  0  0  0
M  END
> <minimizedAffinity>
-9.24475

> <CNNscore>
0.4081677198

> <CNNaffinity>
6.6116638184

> <CNN_VS>
2.6986677647

> <CNNaffinity_variance>
0.2025447190

$$$$
[H]c1c([H])c([H])c(N([H])c2nc3c([H])c([H])c(C(=O)N([H])c4c(Cl)c([H])c([H])c([H])c4C([H])([H])[H])c([H])c3s2)c([H])c1[H]


 29 32  0  0  0  0  0  0  0  0999 V2000
  -18.2567   13.5096  -20.3933 C   0  0  0  0  0  0  0  0  0  0  0  0
  -17.3260   12.6062  -20.8344 C   0  0  0  0  0  0  0  0  0  0  0  0
  -17.0754   11.3960  -20.2709 C   0  0  0  0  0  0  0  0  0  0  0  0
  -17.8042   10.9847  -19.1361 C   0  0  0  0  0  0  0  0  0  0  0  0
  -17.6747    9.8640  -18.4954 N   0  0  0  0  0  0  0  0  0  0  0  0
  -18.3997    9.5784  -17.4537 C   0  0  0  0  0  0  0  0  0  0  0  0
  -19.3803   11.0126  -17.3291 S   0  0  0  0  0  0  0  0  0  0  0  0
  -18.7423   11.8680  -18.6722 C   0  0  0  0  0  0  0  0  0  0  0  0
  -18.9836   13.1128  -19.2709 C   0  0  0  0  0  0  0  0  0  0  0  0
  -18.7502   15.9246  -20.1461 N   0  0  0  0  0  0  0  0  0  0  0  0
  -18.5348   14.8045  -20.9847 C   0  0  0  0  0  0  0  0  0  0  0  0
  -18.5925   14.9720  -22.2383 O   0  0  0  0  0  0  0  0  0  0  0  0
  -18.7270   15.9061  -19.1055 H   0  0  0  0  0  0  0  0  0  0  0  0
  -21.4553   16.6604  -20.5486 C   0  0  0  0  0  0  0  0  0  0  0  0
  -20.3399   17.5733  -20.9138 C   0  0  0  0  0  0  0  0  0  0  0  0
  -20.6443   18.8229  -21.4686 C   0  0  0  0  0  0  0  0  0  0  0  0
  -19.6426   19.7148  -21.8281 C   0  0  0  0  0  0  0  0  0  0  0  0
  -18.3312   19.3403  -21.6251 C   0  0  0  0  0  0  0  0  0  0  0  0
  -18.0276   18.0910  -21.0705 C   0  0  0  0  0  0  0  0  0  0  0  0
  -16.3597   17.6268  -20.8177 Cl  0  0  0  0  0  0  0  0  0  0  0  0
  -19.0260   17.2111  -20.7161 C   0  0  0  0  0  0  0  0  0  0  0  0
  -18.4463    8.4429  -16.5981 N   0  0  0  0  0  0  0  0  0  0  0  0
  -17.7868    7.6304  -16.8278 H   0  0  0  0  0  0  0  0  0  0  0  0
  -19.2831    8.3070  -15.4947 C   0  0  0  0  0  0  0  0  0  0  0  0
  -20.4815    7.5976  -15.6663 C   0  0  0  0  0  0  0  0  0  0  0  0
  -21.3913    7.4121  -14.6489 C   0  0  0  0  0  0  0  0  0  0  0  0
  -21.1445    7.9308  -13.4015 C   0  0  0  0  0  0  0  0  0  0  0  0
  -20.0027    8.6199  -13.1962 C   0  0  0  0  0  0  0  0  0  0  0  0
  -19.0836    8.8036  -14.2375 C   0  0  0  0  0  0  0  0  0  0  0  0
 14 15  1  0  0  0
 15 16  2  0  0  0
 16 17  1  0  0  0
 17 18  2  0  0  0
 18 19  1  0  0  0
 19 20  1  0  0  0
 19 21  2  0  0  0
 21 10  1  0  0  0
 10 11  1  0  0  0
 11 12  2  0  0  0
 11  1  1  0  0  0
  1  2  2  0  0  0
  2  3  1  0  0  0
  3  4  2  0  0  0
  4  5  1  0  0  0
  5  6  2  0  0  0
  6 22  1  0  0  0
 22 24  1  0  0  0
 24 25  2  0  0  0
 25 26  1  0  0  0
 26 27  2  0  0  0
 27 28  1  0  0  0
 28 29  2  0  0  0
  6  7  1  0  0  0
  7  8  1  0  0  0
  8  9  2  0  0  0
 21 15  1  0  0  0
  9  1  1  0  0  0
  8  4  1  0  0  0
 29 24  1  0  0  0
 10 13  1  0  0  0
 22 23  1  0  0  0
M  END
> <minimizedAffinity>
-7.62426

> <CNNscore>
0.4011425972

> <CNNaffinity>
6.4505324364

> <CNN_VS>
2.5875833035

> <CNNaffinity_variance>
0.1438365877

$$$$
[H]c1c([H])c(Cl)c(N([H])c2nc3c([H])c([H])c([H])c([H])c3n3c([H])nc([H])c23)c(C([H])([H])[H])c1[H]


 23 26  0  0  0  0  0  0  0  0999 V2000
  -16.6247   12.5724  -22.6567 C   0  0  0  0  0  0  0  0  0  0  0  0
  -17.5395   13.5357  -22.4382 N   0  0  0  0  0  0  0  0  0  0  0  0
  -18.2693   13.6278  -21.3148 C   0  0  0  0  0  0  0  0  0  0  0  0
  -19.2071   14.6381  -21.1224 C   0  0  0  0  0  0  0  0  0  0  0  0
  -19.9401   14.7025  -19.9550 C   0  0  0  0  0  0  0  0  0  0  0  0
  -19.7244   13.7388  -18.9733 C   0  0  0  0  0  0  0  0  0  0  0  0
  -18.7870   12.7472  -19.1915 C   0  0  0  0  0  0  0  0  0  0  0  0
  -18.0411   12.6649  -20.3560 C   0  0  0  0  0  0  0  0  0  0  0  0
  -17.1307   11.6738  -20.5283 N   0  0  0  0  0  0  0  0  0  0  0  0
  -16.7753   10.6510  -19.7039 C   0  0  0  0  0  0  0  0  0  0  0  0
  -15.8335    9.9723  -20.3679 N   0  0  0  0  0  0  0  0  0  0  0  0
  -15.5960   10.5330  -21.5621 C   0  0  0  0  0  0  0  0  0  0  0  0
  -16.4205   11.6174  -21.6679 C   0  0  0  0  0  0  0  0  0  0  0  0
  -15.8643   12.4859  -23.8407 N   0  0  0  0  0  0  0  0  0  0  0  0
  -15.2489   11.6623  -23.9943 H   0  0  0  0  0  0  0  0  0  0  0  0
  -17.8003   12.3584  -25.9697 C   0  0  0  0  0  0  0  0  0  0  0  0
  -16.8259   13.4611  -25.8819 C   0  0  0  0  0  0  0  0  0  0  0  0
  -16.8684   14.4473  -26.8653 C   0  0  0  0  0  0  0  0  0  0  0  0
  -15.9883   15.4871  -26.8274 C   0  0  0  0  0  0  0  0  0  0  0  0
  -15.0656   15.5487  -25.8135 C   0  0  0  0  0  0  0  0  0  0  0  0
  -15.0299   14.5683  -24.8435 C   0  0  0  0  0  0  0  0  0  0  0  0
  -13.8217   14.7221  -23.5852 Cl  0  0  0  0  0  0  0  0  0  0  0  0
  -15.9070   13.5002  -24.8511 C   0  0  0  0  0  0  0  0  0  0  0  0
 16 17  1  0  0  0
 17 18  2  0  0  0
 18 19  1  0  0  0
 19 20  2  0  0  0
 20 21  1  0  0  0
 21 22  1  0  0  0
 21 23  2  0  0  0
 23 14  1  0  0  0
 14  1  1  0  0  0
  1  2  2  0  0  0
  2  3  1  0  0  0
  3  4  2  0  0  0
  4  5  1  0  0  0
  5  6  2  0  0  0
  6  7  1  0  0  0
  7  8  2  0  0  0
  8  9  1  0  0  0
  9 10  1  0  0  0
 10 11  2  0  0  0
 11 12  1  0  0  0
 12 13  2  0  0  0
 23 17  1  0  0  0
 13  1  1  0  0  0
  8  3  1  0  0  0
 13  9  1  0  0  0
 14 15  1  0  0  0
M  END
> <minimizedAffinity>
-9.05359

> <CNNscore>
0.9515159130

> <CNNaffinity>
7.1784200668

> <CNN_VS>
6.8303809166

> <CNNaffinity_variance>
0.0513484962

$$$$
[H]c1c([H])c(Cl)c(N([H])c2nc3c([H])c([H])c([H])c([H])c3n3c([H])nc([H])c23)c(C([H])([H])[H])c1[H]


 23 26  0  0  0  0  0  0  0  0999 V2000
  -16.5930   12.5464  -22.6074 C   0  0  0  0  0  0  0  0  0  0  0  0
  -17.5253   13.4918  -22.3843 N   0  0  0  0  0  0  0  0  0  0  0  0
  -18.2966   13.5317  -21.2858 C   0  0  0  0  0  0  0  0  0  0  0  0
  -19.2514   14.5248  -21.0878 C   0  0  0  0  0  0  0  0  0  0  0  0
  -20.0271   14.5353  -19.9465 C   0  0  0  0  0  0  0  0  0  0  0  0
  -19.8372   13.5347  -18.9969 C   0  0  0  0  0  0  0  0  0  0  0  0
  -18.8819   12.5613  -19.2200 C   0  0  0  0  0  0  0  0  0  0  0  0
  -18.0932   12.5329  -20.3585 C   0  0  0  0  0  0  0  0  0  0  0  0
  -17.1667   11.5579  -20.5367 N   0  0  0  0  0  0  0  0  0  0  0  0
  -16.8308   10.5060  -19.7414 C   0  0  0  0  0  0  0  0  0  0  0  0
  -15.8583    9.8633  -20.3969 N   0  0  0  0  0  0  0  0  0  0  0  0
  -15.5834   10.4739  -21.5581 C   0  0  0  0  0  0  0  0  0  0  0  0
  -16.4149   11.5541  -21.6508 C   0  0  0  0  0  0  0  0  0  0  0  0
  -15.7890   12.5148  -23.7650 N   0  0  0  0  0  0  0  0  0  0  0  0
  -15.1347   11.7205  -23.9117 H   0  0  0  0  0  0  0  0  0  0  0  0
  -13.9127   14.6995  -23.7104 C   0  0  0  0  0  0  0  0  0  0  0  0
  -14.9507   14.6038  -24.7527 C   0  0  0  0  0  0  0  0  0  0  0  0
  -14.9987   15.6076  -25.7178 C   0  0  0  0  0  0  0  0  0  0  0  0
  -15.9403   15.5633  -26.7021 C   0  0  0  0  0  0  0  0  0  0  0  0
  -16.8346   14.5229  -26.7289 C   0  0  0  0  0  0  0  0  0  0  0  0
  -16.7806   13.5328  -25.7696 C   0  0  0  0  0  0  0  0  0  0  0  0
  -17.9583   12.2411  -25.8762 Cl  0  0  0  0  0  0  0  0  0  0  0  0
  -15.8394   13.5461  -24.7576 C   0  0  0  0  0  0  0  0  0  0  0  0
 16 17  1  0  0  0
 17 18  2  0  0  0
 18 19  1  0  0  0
 19 20  2  0  0  0
 20 21  1  0  0  0
 21 22  1  0  0  0
 21 23  2  0  0  0
 23 14  1  0  0  0
 14  1  1  0  0  0
  1  2  2  0  0  0
  2  3  1  0  0  0
  3  4  2  0  0  0
  4  5  1  0  0  0
  5  6  2  0  0  0
  6  7  1  0  0  0
  7  8  2  0  0  0
  8  9  1  0  0  0
  9 10  1  0  0  0
 10 11  2  0  0  0
 11 12  1  0  0  0
 12 13  2  0  0  0
 23 17  1  0  0  0
 13  1  1  0  0  0
  8  3  1  0  0  0
 13  9  1  0  0  0
 14 15  1  0  0  0
M  END
> <minimizedAffinity>
-9.16707

> <CNNscore>
0.9503310323

> <CNNaffinity>
7.2048316002

> <CNN_VS>
6.8469748497

> <CNNaffinity_variance>
0.0662616044

$$$$
[H]c1c([H])c(Cl)c(N([H])c2nc3c([H])c([H])c([H])c([H])c3n3c([H])nc([H])c23)c(C([H])([H])[H])c1[H]


 23 26  0  0  0  0  0  0  0  0999 V2000
  -18.8341   12.9746  -20.0770 C   0  0  0  0  0  0  0  0  0  0  0  0
  -19.5157   12.7026  -18.9482 N   0  0  0  0  0  0  0  0  0  0  0  0
  -19.2870   11.6235  -18.1825 C   0  0  0  0  0  0  0  0  0  0  0  0
  -20.0114   11.3735  -17.0208 C   0  0  0  0  0  0  0  0  0  0  0  0
  -19.7498   10.2540  -16.2575 C   0  0  0  0  0  0  0  0  0  0  0  0
  -18.7480    9.3794  -16.6705 C   0  0  0  0  0  0  0  0  0  0  0  0
  -18.0448    9.6528  -17.8283 C   0  0  0  0  0  0  0  0  0  0  0  0
  -18.2919   10.7706  -18.6084 C   0  0  0  0  0  0  0  0  0  0  0  0
  -17.5767   11.0002  -19.7383 N   0  0  0  0  0  0  0  0  0  0  0  0
  -16.5717   10.2796  -20.3063 C   0  0  0  0  0  0  0  0  0  0  0  0
  -16.2274   10.9586  -21.4059 N   0  0  0  0  0  0  0  0  0  0  0  0
  -16.9764   12.0625  -21.5373 C   0  0  0  0  0  0  0  0  0  0  0  0
  -17.8372   12.0925  -20.4767 C   0  0  0  0  0  0  0  0  0  0  0  0
  -19.0834   14.1112  -20.8729 N   0  0  0  0  0  0  0  0  0  0  0  0
  -19.3384   13.9891  -21.8732 H   0  0  0  0  0  0  0  0  0  0  0  0
  -21.3761   15.3642  -19.6604 C   0  0  0  0  0  0  0  0  0  0  0  0
  -20.0832   16.0645  -19.7650 C   0  0  0  0  0  0  0  0  0  0  0  0
  -20.0010   17.3592  -19.2569 C   0  0  0  0  0  0  0  0  0  0  0  0
  -18.8271   18.0478  -19.3301 C   0  0  0  0  0  0  0  0  0  0  0  0
  -17.7343   17.4516  -19.9075 C   0  0  0  0  0  0  0  0  0  0  0  0
  -17.8237   16.1692  -20.4084 C   0  0  0  0  0  0  0  0  0  0  0  0
  -16.3830   15.4823  -21.1289 Cl  0  0  0  0  0  0  0  0  0  0  0  0
  -18.9978   15.4422  -20.3510 C   0  0  0  0  0  0  0  0  0  0  0  0
 16 17  1  0  0  0
 17 18  2  0  0  0
 18 19  1  0  0  0
 19 20  2  0  0  0
 20 21  1  0  0  0
 21 22  1  0  0  0
 21 23  2  0  0  0
 23 14  1  0  0  0
 14  1  1  0  0  0
  1  2  2  0  0  0
  2  3  1  0  0  0
  3  4  2  0  0  0
  4  5  1  0  0  0
  5  6  2  0  0  0
  6  7  1  0  0  0
  7  8  2  0  0  0
  8  9  1  0  0  0
  9 10  1  0  0  0
 10 11  2  0  0  0
 11 12  1  0  0  0
 12 13  2  0  0  0
 23 17  1  0  0  0
 13  1  1  0  0  0
  8  3  1  0  0  0
 13  9  1  0  0  0
 14 15  1  0  0  0
M  END
> <minimizedAffinity>
-7.01167

> <CNNscore>
0.7489194274

> <CNNaffinity>
6.7419981956

> <CNN_VS>
5.0492134094

> <CNNaffinity_variance>
0.2333227694

$$$$
[H]c1c([H])c(Cl)c(N([H])c2nc3c([H])c([H])c([H])c([H])c3n3c([H])nc([H])c23)c(C([H])([H])[H])c1[H]


 23 26  0  0  0  0  0  0  0  0999 V2000
  -17.4722   13.2526  -20.1795 C   0  0  0  0  0  0  0  0  0  0  0  0
  -18.4630   13.7006  -19.3857 N   0  0  0  0  0  0  0  0  0  0  0  0
  -19.1153   12.9281  -18.5018 C   0  0  0  0  0  0  0  0  0  0  0  0
  -20.1356   13.4251  -17.6963 C   0  0  0  0  0  0  0  0  0  0  0  0
  -20.7849   12.6026  -16.7984 C   0  0  0  0  0  0  0  0  0  0  0  0
  -20.4007   11.2669  -16.7130 C   0  0  0  0  0  0  0  0  0  0  0  0
  -19.3844   10.8008  -17.5252 C   0  0  0  0  0  0  0  0  0  0  0  0
  -18.7203   11.6098  -18.4326 C   0  0  0  0  0  0  0  0  0  0  0  0
  -17.7275   11.1101  -19.2108 N   0  0  0  0  0  0  0  0  0  0  0  0
  -17.2101    9.8533  -19.2795 C   0  0  0  0  0  0  0  0  0  0  0  0
  -16.2540    9.9149  -20.2126 N   0  0  0  0  0  0  0  0  0  0  0  0
  -16.1625   11.1527  -20.7189 C   0  0  0  0  0  0  0  0  0  0  0  0
  -17.0997   11.9171  -20.0831 C   0  0  0  0  0  0  0  0  0  0  0  0
  -16.7945   14.0734  -21.1040 N   0  0  0  0  0  0  0  0  0  0  0  0
  -15.7551   14.0875  -21.1095 H   0  0  0  0  0  0  0  0  0  0  0  0
  -17.5313   16.7751  -20.4295 C   0  0  0  0  0  0  0  0  0  0  0  0
  -17.8545   16.1963  -21.7462 C   0  0  0  0  0  0  0  0  0  0  0  0
  -18.5313   16.9991  -22.6619 C   0  0  0  0  0  0  0  0  0  0  0  0
  -18.8524   16.5090  -23.8924 C   0  0  0  0  0  0  0  0  0  0  0  0
  -18.5018   15.2221  -24.2146 C   0  0  0  0  0  0  0  0  0  0  0  0
  -17.8317   14.4334  -23.3023 C   0  0  0  0  0  0  0  0  0  0  0  0
  -17.4215   12.8031  -23.7930 Cl  0  0  0  0  0  0  0  0  0  0  0  0
  -17.4904   14.8977  -22.0461 C   0  0  0  0  0  0  0  0  0  0  0  0
 16 17  1  0  0  0
 17 18  2  0  0  0
 18 19  1  0  0  0
 19 20  2  0  0  0
 20 21  1  0  0  0
 21 22  1  0  0  0
 21 23  2  0  0  0
 23 14  1  0  0  0
 14  1  1  0  0  0
  1  2  2  0  0  0
  2  3  1  0  0  0
  3  4  2  0  0  0
  4  5  1  0  0  0
  5  6  2  0  0  0
  6  7  1  0  0  0
  7  8  2  0  0  0
  8  9  1  0  0  0
  9 10  1  0  0  0
 10 11  2  0  0  0
 11 12  1  0  0  0
 12 13  2  0  0  0
 23 17  1  0  0  0
 13  1  1  0  0  0
  8  3  1  0  0  0
 13  9  1  0  0  0
 14 15  1  0  0  0
M  END
> <minimizedAffinity>
-7.05125

> <CNNscore>
0.7309467196

> <CNNaffinity>
6.6985840797

> <CNN_VS>
4.8963079453

> <CNNaffinity_variance>
0.1837900877

$$$$
[H]c1c([H])c(Cl)c(N([H])c2nc3c([H])c([H])c([H])c([H])c3n3c([H])nc([H])c23)c(C([H])([H])[H])c1[H]


 23 26  0  0  0  0  0  0  0  0999 V2000
  -18.2111   13.4008  -21.4782 C   0  0  0  0  0  0  0  0  0  0  0  0
  -18.8842   13.1493  -20.3397 N   0  0  0  0  0  0  0  0  0  0  0  0
  -18.6008   12.1253  -19.5184 C   0  0  0  0  0  0  0  0  0  0  0  0
  -19.3182   11.8949  -18.3482 C   0  0  0  0  0  0  0  0  0  0  0  0
  -18.9996   10.8325  -17.5271 C   0  0  0  0  0  0  0  0  0  0  0  0
  -17.9477    9.9955  -17.8905 C   0  0  0  0  0  0  0  0  0  0  0  0
  -17.2529   10.2482  -19.0581 C   0  0  0  0  0  0  0  0  0  0  0  0
  -17.5568   11.3090  -19.8957 C   0  0  0  0  0  0  0  0  0  0  0  0
  -16.8478   11.5201  -21.0331 N   0  0  0  0  0  0  0  0  0  0  0  0
  -15.8002   10.8289  -21.5592 C   0  0  0  0  0  0  0  0  0  0  0  0
  -15.4869   11.4688  -22.6910 N   0  0  0  0  0  0  0  0  0  0  0  0
  -16.2954   12.5208  -22.8822 C   0  0  0  0  0  0  0  0  0  0  0  0
  -17.1638   12.5568  -21.8279 C   0  0  0  0  0  0  0  0  0  0  0  0
  -18.5181   14.4793  -22.3327 N   0  0  0  0  0  0  0  0  0  0  0  0
  -19.5075   14.7778  -22.4442 H   0  0  0  0  0  0  0  0  0  0  0  0
  -16.7580   16.3225  -20.9906 C   0  0  0  0  0  0  0  0  0  0  0  0
  -16.6524   16.0763  -22.4401 C   0  0  0  0  0  0  0  0  0  0  0  0
  -15.6698   16.7654  -23.1477 C   0  0  0  0  0  0  0  0  0  0  0  0
  -15.5327   16.5715  -24.4898 C   0  0  0  0  0  0  0  0  0  0  0  0
  -16.3707   15.6936  -25.1300 C   0  0  0  0  0  0  0  0  0  0  0  0
  -17.3413   15.0150  -24.4223 C   0  0  0  0  0  0  0  0  0  0  0  0
  -18.3689   13.9133  -25.3152 Cl  0  0  0  0  0  0  0  0  0  0  0  0
  -17.5083   15.1872  -23.0611 C   0  0  0  0  0  0  0  0  0  0  0  0
 16 17  1  0  0  0
 17 18  2  0  0  0
 18 19  1  0  0  0
 19 20  2  0  0  0
 20 21  1  0  0  0
 21 22  1  0  0  0
 21 23  2  0  0  0
 23 14  1  0  0  0
 14  1  1  0  0  0
  1  2  2  0  0  0
  2  3  1  0  0  0
  3  4  2  0  0  0
  4  5  1  0  0  0
  5  6  2  0  0  0
  6  7  1  0  0  0
  7  8  2  0  0  0
  8  9  1  0  0  0
  9 10  1  0  0  0
 10 11  2  0  0  0
 11 12  1  0  0  0
 12 13  2  0  0  0
 23 17  1  0  0  0
 13  1  1  0  0  0
  8  3  1  0  0  0
 13  9  1  0  0  0
 14 15  1  0  0  0
M  END
> <minimizedAffinity>
-7.90165

> <CNNscore>
0.7030994892

> <CNNaffinity>
6.8616638184

> <CNN_VS>
4.8244323730

> <CNNaffinity_variance>
0.0965882391

$$$$
[H]c1c([H])c(Cl)c(N([H])c2nc3c([H])c([H])c([H])c([H])c3n3c([H])nc([H])c23)c(C([H])([H])[H])c1[H]


 23 26  0  0  0  0  0  0  0  0999 V2000
  -18.8733   13.1959  -20.0718 C   0  0  0  0  0  0  0  0  0  0  0  0
  -19.5500   12.9150  -18.9423 N   0  0  0  0  0  0  0  0  0  0  0  0
  -19.3402   11.8134  -18.2036 C   0  0  0  0  0  0  0  0  0  0  0  0
  -20.0589   11.5547  -17.0402 C   0  0  0  0  0  0  0  0  0  0  0  0
  -19.8172   10.4121  -16.3051 C   0  0  0  0  0  0  0  0  0  0  0  0
  -18.8414    9.5230  -16.7484 C   0  0  0  0  0  0  0  0  0  0  0  0
  -18.1433    9.8055  -17.9071 C   0  0  0  0  0  0  0  0  0  0  0  0
  -18.3707   10.9465  -18.6591 C   0  0  0  0  0  0  0  0  0  0  0  0
  -17.6615   11.1843  -19.7910 N   0  0  0  0  0  0  0  0  0  0  0  0
  -16.6802   10.4526  -20.3858 C   0  0  0  0  0  0  0  0  0  0  0  0
  -16.3304   11.1479  -21.4734 N   0  0  0  0  0  0  0  0  0  0  0  0
  -17.0533   12.2725  -21.5719 C   0  0  0  0  0  0  0  0  0  0  0  0
  -17.9024   12.2993  -20.5018 C   0  0  0  0  0  0  0  0  0  0  0  0
  -19.1025   14.3561  -20.8392 N   0  0  0  0  0  0  0  0  0  0  0  0
  -20.0126   14.4749  -21.3274 H   0  0  0  0  0  0  0  0  0  0  0  0
  -18.0777   15.0800  -23.4320 C   0  0  0  0  0  0  0  0  0  0  0  0
  -17.6125   15.7538  -22.2062 C   0  0  0  0  0  0  0  0  0  0  0  0
  -16.6560   16.7583  -22.3385 C   0  0  0  0  0  0  0  0  0  0  0  0
  -16.1945   17.4107  -21.2344 C   0  0  0  0  0  0  0  0  0  0  0  0
  -16.6822   17.0666  -19.9988 C   0  0  0  0  0  0  0  0  0  0  0  0
  -17.6292   16.0708  -19.8762 C   0  0  0  0  0  0  0  0  0  0  0  0
  -18.1987   15.6932  -18.2638 Cl  0  0  0  0  0  0  0  0  0  0  0  0
  -18.1192   15.3888  -20.9739 C   0  0  0  0  0  0  0  0  0  0  0  0
 16 17  1  0  0  0
 17 18  2  0  0  0
 18 19  1  0  0  0
 19 20  2  0  0  0
 20 21  1  0  0  0
 21 22  1  0  0  0
 21 23  2  0  0  0
 23 14  1  0  0  0
 14  1  1  0  0  0
  1  2  2  0  0  0
  2  3  1  0  0  0
  3  4  2  0  0  0
  4  5  1  0  0  0
  5  6  2  0  0  0
  6  7  1  0  0  0
  7  8  2  0  0  0
  8  9  1  0  0  0
  9 10  1  0  0  0
 10 11  2  0  0  0
 11 12  1  0  0  0
 12 13  2  0  0  0
 23 17  1  0  0  0
 13  1  1  0  0  0
  8  3  1  0  0  0
 13  9  1  0  0  0
 14 15  1  0  0  0
M  END
> <minimizedAffinity>
-7.63426

> <CNNscore>
0.6871014237

> <CNNaffinity>
6.6608047485

> <CNN_VS>
4.5766482353

> <CNNaffinity_variance>
0.0691826269

$$$$
[H]c1c([H])c(Cl)c(N([H])c2nc3c([H])c([H])c([H])c([H])c3n3c([H])nc([H])c23)c(C([H])([H])[H])c1[H]


 23 26  0  0  0  0  0  0  0  0999 V2000
  -17.5883   13.0264  -21.5722 C   0  0  0  0  0  0  0  0  0  0  0  0
  -18.0131   14.1839  -21.0315 N   0  0  0  0  0  0  0  0  0  0  0  0
  -18.2627   14.3461  -19.7220 C   0  0  0  0  0  0  0  0  0  0  0  0
  -18.7011   15.5582  -19.1969 C   0  0  0  0  0  0  0  0  0  0  0  0
  -18.9481   15.6895  -17.8456 C   0  0  0  0  0  0  0  0  0  0  0  0
  -18.7508   14.5878  -17.0172 C   0  0  0  0  0  0  0  0  0  0  0  0
  -18.3149   13.3967  -17.5661 C   0  0  0  0  0  0  0  0  0  0  0  0
  -18.0613   13.2442  -18.9195 C   0  0  0  0  0  0  0  0  0  0  0  0
  -17.6343   12.0559  -19.4158 N   0  0  0  0  0  0  0  0  0  0  0  0
  -17.3838   10.8765  -18.7847 C   0  0  0  0  0  0  0  0  0  0  0  0
  -16.9878   10.0372  -19.7476 N   0  0  0  0  0  0  0  0  0  0  0  0
  -16.9845   10.6491  -20.9403 C   0  0  0  0  0  0  0  0  0  0  0  0
  -17.3958   11.9354  -20.7330 C   0  0  0  0  0  0  0  0  0  0  0  0
  -17.3295   12.8681  -22.9489 N   0  0  0  0  0  0  0  0  0  0  0  0
  -17.7805   12.0884  -23.4678 H   0  0  0  0  0  0  0  0  0  0  0  0
  -14.5008   12.3449  -23.0950 C   0  0  0  0  0  0  0  0  0  0  0  0
  -15.0999   13.5202  -23.7528 C   0  0  0  0  0  0  0  0  0  0  0  0
  -14.2527   14.3770  -24.4524 C   0  0  0  0  0  0  0  0  0  0  0  0
  -14.7593   15.4771  -25.0774 C   0  0  0  0  0  0  0  0  0  0  0  0
  -16.1068   15.7272  -25.0084 C   0  0  0  0  0  0  0  0  0  0  0  0
  -16.9391   14.8739  -24.3136 C   0  0  0  0  0  0  0  0  0  0  0  0
  -18.6455   15.2656  -24.2748 Cl  0  0  0  0  0  0  0  0  0  0  0  0
  -16.4596   13.7497  -23.6684 C   0  0  0  0  0  0  0  0  0  0  0  0
 16 17  1  0  0  0
 17 18  2  0  0  0
 18 19  1  0  0  0
 19 20  2  0  0  0
 20 21  1  0  0  0
 21 22  1  0  0  0
 21 23  2  0  0  0
 23 14  1  0  0  0
 14  1  1  0  0  0
  1  2  2  0  0  0
  2  3  1  0  0  0
  3  4  2  0  0  0
  4  5  1  0  0  0
  5  6  2  0  0  0
  6  7  1  0  0  0
  7  8  2  0  0  0
  8  9  1  0  0  0
  9 10  1  0  0  0
 10 11  2  0  0  0
 11 12  1  0  0  0
 12 13  2  0  0  0
 23 17  1  0  0  0
 13  1  1  0  0  0
  8  3  1  0  0  0
 13  9  1  0  0  0
 14 15  1  0  0  0
M  END
> <minimizedAffinity>
-7.78529

> <CNNscore>
0.6711096764

> <CNNaffinity>
6.7397756577

> <CNN_VS>
4.5231285095

> <CNNaffinity_variance>
0.2301648408

$$$$
[H]c1c([H])c(Cl)c(N([H])c2nc3c([H])c([H])c([H])c([H])c3n3c([H])nc([H])c23)c(C([H])([H])[H])c1[H]


 23 26  0  0  0  0  0  0  0  0999 V2000
  -17.5794   12.8911  -21.6946 C   0  0  0  0  0  0  0  0  0  0  0  0
  -18.0282   14.0469  -21.1701 N   0  0  0  0  0  0  0  0  0  0  0  0
  -18.2697   14.2261  -19.8614 C   0  0  0  0  0  0  0  0  0  0  0  0
  -18.7337   15.4359  -19.3533 C   0  0  0  0  0  0  0  0  0  0  0  0
  -18.9714   15.5849  -18.0022 C   0  0  0  0  0  0  0  0  0  0  0  0
  -18.7386   14.5033  -17.1566 C   0  0  0  0  0  0  0  0  0  0  0  0
  -18.2780   13.3140  -17.6888 C   0  0  0  0  0  0  0  0  0  0  0  0
  -18.0332   13.1440  -19.0417 C   0  0  0  0  0  0  0  0  0  0  0  0
  -17.5809   11.9581  -19.5213 N   0  0  0  0  0  0  0  0  0  0  0  0
  -17.2949   10.7968  -18.8721 C   0  0  0  0  0  0  0  0  0  0  0  0
  -16.8868    9.9507  -19.8240 N   0  0  0  0  0  0  0  0  0  0  0  0
  -16.9100   10.5412  -21.0272 C   0  0  0  0  0  0  0  0  0  0  0  0
  -17.3517   11.8203  -20.8384 C   0  0  0  0  0  0  0  0  0  0  0  0
  -17.3295   12.7149  -23.0709 N   0  0  0  0  0  0  0  0  0  0  0  0
  -17.7729   11.9204  -23.5736 H   0  0  0  0  0  0  0  0  0  0  0  0
  -18.4426   14.8818  -24.6079 C   0  0  0  0  0  0  0  0  0  0  0  0
  -16.9888   14.6440  -24.5558 C   0  0  0  0  0  0  0  0  0  0  0  0
  -16.1623   15.5036  -25.2764 C   0  0  0  0  0  0  0  0  0  0  0  0
  -14.8112   15.3247  -25.2596 C   0  0  0  0  0  0  0  0  0  0  0  0
  -14.2800   14.2927  -24.5276 C   0  0  0  0  0  0  0  0  0  0  0  0
  -15.1052   13.4458  -23.8168 C   0  0  0  0  0  0  0  0  0  0  0  0
  -14.3466   12.1544  -22.9091 Cl  0  0  0  0  0  0  0  0  0  0  0  0
  -16.4789   13.5979  -23.8113 C   0  0  0  0  0  0  0  0  0  0  0  0
 16 17  1  0  0  0
 17 18  2  0  0  0
 18 19  1  0  0  0
 19 20  2  0  0  0
 20 21  1  0  0  0
 21 22  1  0  0  0
 21 23  2  0  0  0
 23 14  1  0  0  0
 14  1  1  0  0  0
  1  2  2  0  0  0
  2  3  1  0  0  0
  3  4  2  0  0  0
  4  5  1  0  0  0
  5  6  2  0  0  0
  6  7  1  0  0  0
  7  8  2  0  0  0
  8  9  1  0  0  0
  9 10  1  0  0  0
 10 11  2  0  0  0
 11 12  1  0  0  0
 12 13  2  0  0  0
 23 17  1  0  0  0
 13  1  1  0  0  0
  8  3  1  0  0  0
 13  9  1  0  0  0
 14 15  1  0  0  0
M  END
> <minimizedAffinity>
-7.87538

> <CNNscore>
0.6658155322

> <CNNaffinity>
6.7776246071

> <CNN_VS>
4.5126476288

> <CNNaffinity_variance>
0.1724660695

$$$$
[H]c1c([H])c(Cl)c(N([H])c2nc3c([H])c([H])c([H])c([H])c3n3c([H])nc([H])c23)c(C([H])([H])[H])c1[H]


 23 26  0  0  0  0  0  0  0  0999 V2000
  -17.7467   13.8968  -21.7164 C   0  0  0  0  0  0  0  0  0  0  0  0
  -18.5840   14.9497  -21.7712 N   0  0  0  0  0  0  0  0  0  0  0  0
  -19.5732   15.1606  -20.8878 C   0  0  0  0  0  0  0  0  0  0  0  0
  -20.4209   16.2610  -20.9749 C   0  0  0  0  0  0  0  0  0  0  0  0
  -21.4275   16.4467  -20.0495 C   0  0  0  0  0  0  0  0  0  0  0  0
  -21.5797   15.5135  -19.0272 C   0  0  0  0  0  0  0  0  0  0  0  0
  -20.7235   14.4304  -18.9654 C   0  0  0  0  0  0  0  0  0  0  0  0
  -19.7071   14.2259  -19.8842 C   0  0  0  0  0  0  0  0  0  0  0  0
  -18.8890   13.1480  -19.7855 N   0  0  0  0  0  0  0  0  0  0  0  0
  -18.8713   12.1359  -18.8759 C   0  0  0  0  0  0  0  0  0  0  0  0
  -17.8607   11.3432  -19.2484 N   0  0  0  0  0  0  0  0  0  0  0  0
  -17.2585   11.8238  -20.3453 C   0  0  0  0  0  0  0  0  0  0  0  0
  -17.9108   12.9737  -20.6905 C   0  0  0  0  0  0  0  0  0  0  0  0
  -16.7116   13.6860  -22.6499 N   0  0  0  0  0  0  0  0  0  0  0  0
  -16.0217   12.9260  -22.4856 H   0  0  0  0  0  0  0  0  0  0  0  0
  -17.4508   12.6431  -25.2312 C   0  0  0  0  0  0  0  0  0  0  0  0
  -16.9196   14.0096  -25.0778 C   0  0  0  0  0  0  0  0  0  0  0  0
  -16.7843   14.7882  -26.2253 C   0  0  0  0  0  0  0  0  0  0  0  0
  -16.2978   16.0581  -26.1348 C   0  0  0  0  0  0  0  0  0  0  0  0
  -15.9454   16.5558  -24.9056 C   0  0  0  0  0  0  0  0  0  0  0  0
  -16.0823   15.7785  -23.7739 C   0  0  0  0  0  0  0  0  0  0  0  0
  -15.6096   16.4894  -22.2449 Cl  0  0  0  0  0  0  0  0  0  0  0  0
  -16.5720   14.4872  -23.8289 C   0  0  0  0  0  0  0  0  0  0  0  0
 16 17  1  0  0  0
 17 18  2  0  0  0
 18 19  1  0  0  0
 19 20  2  0  0  0
 20 21  1  0  0  0
 21 22  1  0  0  0
 21 23  2  0  0  0
 23 14  1  0  0  0
 14  1  1  0  0  0
  1  2  2  0  0  0
  2  3  1  0  0  0
  3  4  2  0  0  0
  4  5  1  0  0  0
  5  6  2  0  0  0
  6  7  1  0  0  0
  7  8  2  0  0  0
  8  9  1  0  0  0
  9 10  1  0  0  0
 10 11  2  0  0  0
 11 12  1  0  0  0
 12 13  2  0  0  0
 23 17  1  0  0  0
 13  1  1  0  0  0
  8  3  1  0  0  0
 13  9  1  0  0  0
 14 15  1  0  0  0
M  END
> <minimizedAffinity>
-6.98871

> <CNNscore>
0.4669396877

> <CNNaffinity>
6.4859557152

> <CNN_VS>
3.0285501480

> <CNNaffinity_variance>
0.1415894628

$$$$
